MODEL 1
REMARK VINA RESULT:      -6.3      0.000      0.000
REMARK  Name = 
REMARK  5 active torsions:
REMARK  status: ('A' for Active; 'I' for Inactive)
REMARK    1  A    between atoms: C_2  and  C_3
REMARK    2  A    between atoms: C_6  and  C_7
REMARK    3  A    between atoms: C_7  and  S_8
REMARK    4  A    between atoms: S_8  and  C_9
REMARK    5  A    between atoms: N_11  and  C_12
REMARK                            x       y       z     vdW  Elec       q    Type
REMARK                         _______ _______ _______ _____ _____    ______ ____
ROOT
ATOM      1  C   UNL     1       6.880   5.294  16.261  0.00  0.00    +0.000 C 
ATOM      2  N   UNL     1       7.625   5.627  15.169  0.00  0.00    +0.000 N 
ATOM      3  N   UNL     1       6.846   5.808  17.434  0.00  0.00    +0.000 NA
ATOM      4  H   UNL     1       7.679   4.884  14.480  0.00  0.00    +0.000 HD
ATOM      5  H   UNL     1       8.529   6.040  15.373  0.00  0.00    +0.000 HD
ENDROOT
BRANCH   3   6
ATOM      6  C   UNL     1       7.587   6.865  17.824  0.00  0.00    +0.000 C 
ATOM      7  N   UNL     1       7.652   7.958  17.150  0.00  0.00    +0.000 NA
ATOM      8  N   UNL     1       8.258   6.757  18.987  0.00  0.00    +0.000 N 
ATOM      9  H   UNL     1       6.996   7.889  16.367  0.00  0.00    +0.000 HD
ATOM     10  H   UNL     1       8.457   5.811  19.278  0.00  0.00    +0.000 HD
ATOM     11  H   UNL     1       8.992   7.438  19.109  0.00  0.00    +0.000 HD
ENDBRANCH   3   6
BRANCH   1  12
ATOM     12  S   UNL     1       5.855   3.901  15.959  0.00  0.00    +0.000 S 
BRANCH  12  13
ATOM     13  C   UNL     1       4.232   4.582  16.421  0.00  0.00    +0.000 C 
BRANCH  13  17
ATOM     14  C   UNL     1       2.428   3.169  20.103  0.00  0.00    +0.000 A 
ATOM     15  C   UNL     1       3.799   3.006  19.902  0.00  0.00    +0.000 A 
ATOM     16  C   UNL     1       4.395   3.460  18.721  0.00  0.00    +0.000 A 
ATOM     17  C   UNL     1       3.627   4.055  17.708  0.00  0.00    +0.000 A 
ATOM     18  C   UNL     1       2.250   4.228  17.933  0.00  0.00    +0.000 A 
ATOM     19  C   UNL     1       1.654   3.789  19.119  0.00  0.00    +0.000 A 
BRANCH  14  21
ATOM     20  N   UNL     1       1.320   2.357  22.302  0.00  0.00    +0.000 NA
ATOM     21  C   UNL     1       1.818   2.714  21.320  0.00  0.00    +0.000 C 
ENDBRANCH  14  21
ENDBRANCH  13  17
ENDBRANCH  12  13
ENDBRANCH   1  12
TORSDOF 5
ENDMDL
MODEL 2
REMARK VINA RESULT:      -6.3      1.255      1.594
REMARK  Name = 
REMARK  5 active torsions:
REMARK  status: ('A' for Active; 'I' for Inactive)
REMARK    1  A    between atoms: C_2  and  C_3
REMARK    2  A    between atoms: C_6  and  C_7
REMARK    3  A    between atoms: C_7  and  S_8
REMARK    4  A    between atoms: S_8  and  C_9
REMARK    5  A    between atoms: N_11  and  C_12
REMARK                            x       y       z     vdW  Elec       q    Type
REMARK                         _______ _______ _______ _____ _____    ______ ____
ROOT
ATOM      1  C   UNL     1       6.877   5.116  17.184  0.00  0.00    +0.000 C 
ATOM      2  N   UNL     1       7.901   4.294  16.813  0.00  0.00    +0.000 N 
ATOM      3  N   UNL     1       6.796   5.968  18.136  0.00  0.00    +0.000 NA
ATOM      4  H   UNL     1       7.600   3.520  16.230  0.00  0.00    +0.000 HD
ATOM      5  H   UNL     1       8.515   4.003  17.567  0.00  0.00    +0.000 HD
ENDROOT
BRANCH   3   6
ATOM      6  C   UNL     1       7.795   6.240  19.001  0.00  0.00    +0.000 C 
ATOM      7  N   UNL     1       8.143   5.434  19.941  0.00  0.00    +0.000 NA
ATOM      8  N   UNL     1       8.458   7.401  18.837  0.00  0.00    +0.000 N 
ATOM      9  H   UNL     1       7.603   4.571  19.836  0.00  0.00    +0.000 HD
ATOM     10  H   UNL     1       7.946   8.119  18.348  0.00  0.00    +0.000 HD
ATOM     11  H   UNL     1       9.000   7.688  19.638  0.00  0.00    +0.000 HD
ENDBRANCH   3   6
BRANCH   1  12
ATOM     12  S   UNL     1       5.454   4.887  16.181  0.00  0.00    +0.000 S 
BRANCH  12  13
ATOM     13  C   UNL     1       4.216   5.795  17.158  0.00  0.00    +0.000 C 
BRANCH  13  17
ATOM     14  C   UNL     1       2.311   3.615  20.388  0.00  0.00    +0.000 A 
ATOM     15  C   UNL     1       2.625   2.952  19.202  0.00  0.00    +0.000 A 
ATOM     16  C   UNL     1       3.243   3.641  18.153  0.00  0.00    +0.000 A 
ATOM     17  C   UNL     1       3.528   5.011  18.259  0.00  0.00    +0.000 A 
ATOM     18  C   UNL     1       3.221   5.662  19.467  0.00  0.00    +0.000 A 
ATOM     19  C   UNL     1       2.618   4.971  20.523  0.00  0.00    +0.000 A 
BRANCH  14  21
ATOM     20  N   UNL     1       1.188   2.341  22.348  0.00  0.00    +0.000 NA
ATOM     21  C   UNL     1       1.688   2.906  21.469  0.00  0.00    +0.000 C 
ENDBRANCH  14  21
ENDBRANCH  13  17
ENDBRANCH  12  13
ENDBRANCH   1  12
TORSDOF 5
ENDMDL
MODEL 3
REMARK VINA RESULT:      -6.3      2.150      3.287
REMARK  Name = 
REMARK  5 active torsions:
REMARK  status: ('A' for Active; 'I' for Inactive)
REMARK    1  A    between atoms: C_2  and  C_3
REMARK    2  A    between atoms: C_6  and  C_7
REMARK    3  A    between atoms: C_7  and  S_8
REMARK    4  A    between atoms: S_8  and  C_9
REMARK    5  A    between atoms: N_11  and  C_12
REMARK                            x       y       z     vdW  Elec       q    Type
REMARK                         _______ _______ _______ _____ _____    ______ ____
ROOT
ATOM      1  C   UNL     1       7.110   5.391  16.373  0.00  0.00    +0.000 C 
ATOM      2  N   UNL     1       7.768   4.317  16.894  0.00  0.00    +0.000 N 
ATOM      3  N   UNL     1       6.731   5.634  15.174  0.00  0.00    +0.000 NA
ATOM      4  H   UNL     1       8.205   4.512  17.789  0.00  0.00    +0.000 HD
ATOM      5  H   UNL     1       8.388   3.836  16.251  0.00  0.00    +0.000 HD
ENDROOT
BRANCH   3   6
ATOM      6  C   UNL     1       6.914   4.795  14.133  0.00  0.00    +0.000 C 
ATOM      7  N   UNL     1       6.390   3.622  14.082  0.00  0.00    +0.000 NA
ATOM      8  N   UNL     1       7.660   5.239  13.103  0.00  0.00    +0.000 N 
ATOM      9  H   UNL     1       5.776   3.511  14.894  0.00  0.00    +0.000 HD
ATOM     10  H   UNL     1       8.309   5.975  13.334  0.00  0.00    +0.000 HD
ATOM     11  H   UNL     1       7.990   4.513  12.486  0.00  0.00    +0.000 HD
ENDBRANCH   3   6
BRANCH   1  12
ATOM     12  S   UNL     1       6.801   6.625  17.583  0.00  0.00    +0.000 S 
BRANCH  12  13
ATOM     13  C   UNL     1       6.341   5.584  19.003  0.00  0.00    +0.000 C 
BRANCH  13  17
ATOM     14  C   UNL     1       2.531   3.527  18.745  0.00  0.00    +0.000 A 
ATOM     15  C   UNL     1       2.641   4.834  18.270  0.00  0.00    +0.000 A 
ATOM     16  C   UNL     1       3.865   5.508  18.343  0.00  0.00    +0.000 A 
ATOM     17  C   UNL     1       4.990   4.900  18.921  0.00  0.00    +0.000 A 
ATOM     18  C   UNL     1       4.868   3.577  19.380  0.00  0.00    +0.000 A 
ATOM     19  C   UNL     1       3.650   2.895  19.293  0.00  0.00    +0.000 A 
BRANCH  14  21
ATOM     20  N   UNL     1       0.266   2.275  18.596  0.00  0.00    +0.000 NA
ATOM     21  C   UNL     1       1.280   2.830  18.659  0.00  0.00    +0.000 C 
ENDBRANCH  14  21
ENDBRANCH  13  17
ENDBRANCH  12  13
ENDBRANCH   1  12
TORSDOF 5
ENDMDL
MODEL 4
REMARK VINA RESULT:      -6.3      2.040      5.944
REMARK  Name = 
REMARK  5 active torsions:
REMARK  status: ('A' for Active; 'I' for Inactive)
REMARK    1  A    between atoms: C_2  and  C_3
REMARK    2  A    between atoms: C_6  and  C_7
REMARK    3  A    between atoms: C_7  and  S_8
REMARK    4  A    between atoms: S_8  and  C_9
REMARK    5  A    between atoms: N_11  and  C_12
REMARK                            x       y       z     vdW  Elec       q    Type
REMARK                         _______ _______ _______ _____ _____    ______ ____
ROOT
ATOM      1  C   UNL     1       3.449   2.513  19.605  0.00  0.00    +0.000 C 
ATOM      2  N   UNL     1       4.628   2.247  20.235  0.00  0.00    +0.000 N 
ATOM      3  N   UNL     1       2.418   3.160  20.003  0.00  0.00    +0.000 NA
ATOM      4  H   UNL     1       5.137   1.473  19.820  0.00  0.00    +0.000 HD
ATOM      5  H   UNL     1       4.572   2.182  21.247  0.00  0.00    +0.000 HD
ENDROOT
BRANCH   3   6
ATOM      6  C   UNL     1       2.314   3.757  21.209  0.00  0.00    +0.000 C 
ATOM      7  N   UNL     1       2.231   3.097  22.309  0.00  0.00    +0.000 NA
ATOM      8  N   UNL     1       2.325   5.103  21.237  0.00  0.00    +0.000 N 
ATOM      9  H   UNL     1       2.349   2.103  22.094  0.00  0.00    +0.000 HD
ATOM     10  H   UNL     1       2.041   5.550  20.378  0.00  0.00    +0.000 HD
ATOM     11  H   UNL     1       1.982   5.505  22.097  0.00  0.00    +0.000 HD
ENDBRANCH   3   6
BRANCH   1  12
ATOM     12  S   UNL     1       3.378   1.786  18.008  0.00  0.00    +0.000 S 
BRANCH  12  13
ATOM     13  C   UNL     1       3.022   3.255  16.994  0.00  0.00    +0.000 C 
BRANCH  13  17
ATOM     14  C   UNL     1       6.016   6.384  17.219  0.00  0.00    +0.000 A 
ATOM     15  C   UNL     1       4.710   6.652  17.626  0.00  0.00    +0.000 A 
ATOM     16  C   UNL     1       3.734   5.651  17.564  0.00  0.00    +0.000 A 
ATOM     17  C   UNL     1       4.040   4.377  17.062  0.00  0.00    +0.000 A 
ATOM     18  C   UNL     1       5.365   4.117  16.671  0.00  0.00    +0.000 A 
ATOM     19  C   UNL     1       6.346   5.111  16.748  0.00  0.00    +0.000 A 
BRANCH  14  21
ATOM     20  N   UNL     1       7.835   8.226  17.365  0.00  0.00    +0.000 NA
ATOM     21  C   UNL     1       7.021   7.407  17.295  0.00  0.00    +0.000 C 
ENDBRANCH  14  21
ENDBRANCH  13  17
ENDBRANCH  12  13
ENDBRANCH   1  12
TORSDOF 5
ENDMDL
MODEL 5
REMARK VINA RESULT:      -6.3      2.645      3.925
REMARK  Name = 
REMARK  5 active torsions:
REMARK  status: ('A' for Active; 'I' for Inactive)
REMARK    1  A    between atoms: C_2  and  C_3
REMARK    2  A    between atoms: C_6  and  C_7
REMARK    3  A    between atoms: C_7  and  S_8
REMARK    4  A    between atoms: S_8  and  C_9
REMARK    5  A    between atoms: N_11  and  C_12
REMARK                            x       y       z     vdW  Elec       q    Type
REMARK                         _______ _______ _______ _____ _____    ______ ____
ROOT
ATOM      1  C   UNL     1       6.970   4.632  14.391  0.00  0.00    +0.000 C 
ATOM      2  N   UNL     1       7.739   5.529  13.711  0.00  0.00    +0.000 N 
ATOM      3  N   UNL     1       6.202   3.701  13.964  0.00  0.00    +0.000 NA
ATOM      4  H   UNL     1       8.003   6.334  14.270  0.00  0.00    +0.000 HD
ATOM      5  H   UNL     1       7.392   5.786  12.792  0.00  0.00    +0.000 HD
ENDROOT
BRANCH   3   6
ATOM      6  C   UNL     1       6.014   3.407  12.661  0.00  0.00    +0.000 C 
ATOM      7  N   UNL     1       6.939   2.911  11.917  0.00  0.00    +0.000 NA
ATOM      8  N   UNL     1       4.789   3.627  12.146  0.00  0.00    +0.000 N 
ATOM      9  H   UNL     1       7.752   2.715  12.508  0.00  0.00    +0.000 HD
ATOM     10  H   UNL     1       4.238   4.314  12.637  0.00  0.00    +0.000 HD
ATOM     11  H   UNL     1       4.760   3.652  11.138  0.00  0.00    +0.000 HD
ENDBRANCH   3   6
BRANCH   1  12
ATOM     12  S   UNL     1       7.058   4.874  16.128  0.00  0.00    +0.000 S 
BRANCH  12  13
ATOM     13  C   UNL     1       5.544   5.847  16.400  0.00  0.00    +0.000 C 
BRANCH  13  17
ATOM     14  C   UNL     1       2.210   3.653  18.097  0.00  0.00    +0.000 A 
ATOM     15  C   UNL     1       2.226   5.046  18.171  0.00  0.00    +0.000 A 
ATOM     16  C   UNL     1       3.292   5.767  17.624  0.00  0.00    +0.000 A 
ATOM     17  C   UNL     1       4.377   5.108  17.025  0.00  0.00    +0.000 A 
ATOM     18  C   UNL     1       4.338   3.705  16.943  0.00  0.00    +0.000 A 
ATOM     19  C   UNL     1       3.265   2.982  17.474  0.00  0.00    +0.000 A 
BRANCH  14  21
ATOM     20  N   UNL     1       0.221   2.311  19.080  0.00  0.00    +0.000 NA
ATOM     21  C   UNL     1       1.110   2.913  18.647  0.00  0.00    +0.000 C 
ENDBRANCH  14  21
ENDBRANCH  13  17
ENDBRANCH  12  13
ENDBRANCH   1  12
TORSDOF 5
ENDMDL
MODEL 6
REMARK VINA RESULT:      -6.2      1.159      1.541
REMARK  Name = 
REMARK  5 active torsions:
REMARK  status: ('A' for Active; 'I' for Inactive)
REMARK    1  A    between atoms: C_2  and  C_3
REMARK    2  A    between atoms: C_6  and  C_7
REMARK    3  A    between atoms: C_7  and  S_8
REMARK    4  A    between atoms: S_8  and  C_9
REMARK    5  A    between atoms: N_11  and  C_12
REMARK                            x       y       z     vdW  Elec       q    Type
REMARK                         _______ _______ _______ _____ _____    ______ ____
ROOT
ATOM      1  C   UNL     1       6.879   5.540  17.046  0.00  0.00    +0.000 C 
ATOM      2  N   UNL     1       6.446   6.787  16.706  0.00  0.00    +0.000 N 
ATOM      3  N   UNL     1       7.572   5.143  18.048  0.00  0.00    +0.000 NA
ATOM      4  H   UNL     1       6.184   6.866  15.728  0.00  0.00    +0.000 HD
ATOM      5  H   UNL     1       7.039   7.550  17.016  0.00  0.00    +0.000 HD
ENDROOT
BRANCH   3   6
ATOM      6  C   UNL     1       8.019   5.951  19.032  0.00  0.00    +0.000 C 
ATOM      7  N   UNL     1       8.354   7.176  18.831  0.00  0.00    +0.000 NA
ATOM      8  N   UNL     1       8.083   5.436  20.274  0.00  0.00    +0.000 N 
ATOM      9  H   UNL     1       8.134   7.411  17.859  0.00  0.00    +0.000 HD
ATOM     10  H   UNL     1       8.154   4.430  20.316  0.00  0.00    +0.000 HD
ATOM     11  H   UNL     1       8.658   5.963  20.914  0.00  0.00    +0.000 HD
ENDBRANCH   3   6
BRANCH   1  12
ATOM     12  S   UNL     1       6.416   4.334  15.857  0.00  0.00    +0.000 S 
BRANCH  12  13
ATOM     13  C   UNL     1       4.602   4.441  15.971  0.00  0.00    +0.000 C 
BRANCH  13  17
ATOM     14  C   UNL     1       2.833   3.371  19.784  0.00  0.00    +0.000 A 
ATOM     15  C   UNL     1       2.764   4.691  19.339  0.00  0.00    +0.000 A 
ATOM     16  C   UNL     1       3.326   5.050  18.110  0.00  0.00    +0.000 A 
ATOM     17  C   UNL     1       3.996   4.103  17.319  0.00  0.00    +0.000 A 
ATOM     18  C   UNL     1       4.043   2.773  17.772  0.00  0.00    +0.000 A 
ATOM     19  C   UNL     1       3.467   2.409  18.993  0.00  0.00    +0.000 A 
BRANCH  14  21
ATOM     20  N   UNL     1       1.778   2.706  22.057  0.00  0.00    +0.000 NA
ATOM     21  C   UNL     1       2.246   2.999  21.039  0.00  0.00    +0.000 C 
ENDBRANCH  14  21
ENDBRANCH  13  17
ENDBRANCH  12  13
ENDBRANCH   1  12
TORSDOF 5
ENDMDL
MODEL 7
REMARK VINA RESULT:      -6.2      1.276      1.733
REMARK  Name = 
REMARK  5 active torsions:
REMARK  status: ('A' for Active; 'I' for Inactive)
REMARK    1  A    between atoms: C_2  and  C_3
REMARK    2  A    between atoms: C_6  and  C_7
REMARK    3  A    between atoms: C_7  and  S_8
REMARK    4  A    between atoms: S_8  and  C_9
REMARK    5  A    between atoms: N_11  and  C_12
REMARK                            x       y       z     vdW  Elec       q    Type
REMARK                         _______ _______ _______ _____ _____    ______ ____
ROOT
ATOM      1  C   UNL     1       6.796   5.166  17.111  0.00  0.00    +0.000 C 
ATOM      2  N   UNL     1       7.842   4.495  16.551  0.00  0.00    +0.000 N 
ATOM      3  N   UNL     1       6.736   5.882  18.172  0.00  0.00    +0.000 NA
ATOM      4  H   UNL     1       7.552   3.776  15.897  0.00  0.00    +0.000 HD
ATOM      5  H   UNL     1       8.546   4.170  17.206  0.00  0.00    +0.000 HD
ENDROOT
BRANCH   3   6
ATOM      6  C   UNL     1       7.787   6.134  18.980  0.00  0.00    +0.000 C 
ATOM      7  N   UNL     1       8.223   5.285  19.842  0.00  0.00    +0.000 NA
ATOM      8  N   UNL     1       8.404   7.322  18.841  0.00  0.00    +0.000 N 
ATOM      9  H   UNL     1       7.701   4.412  19.722  0.00  0.00    +0.000 HD
ATOM     10  H   UNL     1       7.838   8.052  18.434  0.00  0.00    +0.000 HD
ATOM     11  H   UNL     1       8.993   7.579  19.618  0.00  0.00    +0.000 HD
ENDBRANCH   3   6
BRANCH   1  12
ATOM     12  S   UNL     1       5.307   4.936  16.208  0.00  0.00    +0.000 S 
BRANCH  12  13
ATOM     13  C   UNL     1       4.151   5.899  17.231  0.00  0.00    +0.000 C 
BRANCH  13  17
ATOM     14  C   UNL     1       2.296   3.705  20.481  0.00  0.00    +0.000 A 
ATOM     15  C   UNL     1       2.217   5.097  20.458  0.00  0.00    +0.000 A 
ATOM     16  C   UNL     1       2.807   5.818  19.413  0.00  0.00    +0.000 A 
ATOM     17  C   UNL     1       3.513   5.162  18.393  0.00  0.00    +0.000 A 
ATOM     18  C   UNL     1       3.570   3.757  18.422  0.00  0.00    +0.000 A 
ATOM     19  C   UNL     1       2.967   3.034  19.455  0.00  0.00    +0.000 A 
BRANCH  14  21
ATOM     20  N   UNL     1       1.175   2.370  22.400  0.00  0.00    +0.000 NA
ATOM     21  C   UNL     1       1.681   2.964  21.545  0.00  0.00    +0.000 C 
ENDBRANCH  14  21
ENDBRANCH  13  17
ENDBRANCH  12  13
ENDBRANCH   1  12
TORSDOF 5
ENDMDL
MODEL 8
REMARK VINA RESULT:      -6.2      1.168      1.241
REMARK  Name = 
REMARK  5 active torsions:
REMARK  status: ('A' for Active; 'I' for Inactive)
REMARK    1  A    between atoms: C_2  and  C_3
REMARK    2  A    between atoms: C_6  and  C_7
REMARK    3  A    between atoms: C_7  and  S_8
REMARK    4  A    between atoms: S_8  and  C_9
REMARK    5  A    between atoms: N_11  and  C_12
REMARK                            x       y       z     vdW  Elec       q    Type
REMARK                         _______ _______ _______ _____ _____    ______ ____
ROOT
ATOM      1  C   UNL     1       6.614   6.128  16.900  0.00  0.00    +0.000 C 
ATOM      2  N   UNL     1       7.621   6.001  15.991  0.00  0.00    +0.000 N 
ATOM      3  N   UNL     1       6.653   6.289  18.170  0.00  0.00    +0.000 NA
ATOM      4  H   UNL     1       7.318   5.588  15.114  0.00  0.00    +0.000 HD
ATOM      5  H   UNL     1       8.475   5.583  16.347  0.00  0.00    +0.000 HD
ENDROOT
BRANCH   3   6
ATOM      6  C   UNL     1       7.790   6.387  18.890  0.00  0.00    +0.000 C 
ATOM      7  N   UNL     1       8.544   7.429  18.867  0.00  0.00    +0.000 NA
ATOM      8  N   UNL     1       8.115   5.345  19.679  0.00  0.00    +0.000 N 
ATOM      9  H   UNL     1       8.079   8.146  18.303  0.00  0.00    +0.000 HD
ATOM     10  H   UNL     1       7.715   4.461  19.404  0.00  0.00    +0.000 HD
ATOM     11  H   UNL     1       9.077   5.338  19.984  0.00  0.00    +0.000 HD
ENDBRANCH   3   6
BRANCH   1  12
ATOM     12  S   UNL     1       5.031   5.998  16.152  0.00  0.00    +0.000 S 
BRANCH  12  13
ATOM     13  C   UNL     1       4.721   4.215  16.348  0.00  0.00    +0.000 C 
BRANCH  13  17
ATOM     14  C   UNL     1       2.630   3.119  19.986  0.00  0.00    +0.000 A 
ATOM     15  C   UNL     1       3.108   2.119  19.139  0.00  0.00    +0.000 A 
ATOM     16  C   UNL     1       3.788   2.458  17.965  0.00  0.00    +0.000 A 
ATOM     17  C   UNL     1       3.973   3.800  17.599  0.00  0.00    +0.000 A 
ATOM     18  C   UNL     1       3.500   4.797  18.471  0.00  0.00    +0.000 A 
ATOM     19  C   UNL     1       2.834   4.461  19.654  0.00  0.00    +0.000 A 
BRANCH  14  21
ATOM     20  N   UNL     1       1.399   2.493  22.180  0.00  0.00    +0.000 NA
ATOM     21  C   UNL     1       1.943   2.773  21.198  0.00  0.00    +0.000 C 
ENDBRANCH  14  21
ENDBRANCH  13  17
ENDBRANCH  12  13
ENDBRANCH   1  12
TORSDOF 5
ENDMDL
MODEL 9
REMARK VINA RESULT:      -6.1      4.322      5.222
REMARK  Name = 
REMARK  5 active torsions:
REMARK  status: ('A' for Active; 'I' for Inactive)
REMARK    1  A    between atoms: C_2  and  C_3
REMARK    2  A    between atoms: C_6  and  C_7
REMARK    3  A    between atoms: C_7  and  S_8
REMARK    4  A    between atoms: S_8  and  C_9
REMARK    5  A    between atoms: N_11  and  C_12
REMARK                            x       y       z     vdW  Elec       q    Type
REMARK                         _______ _______ _______ _____ _____    ______ ____
ROOT
ATOM      1  C   UNL     1       5.211   4.470  18.351  0.00  0.00    +0.000 C 
ATOM      2  N   UNL     1       5.187   3.219  18.891  0.00  0.00    +0.000 N 
ATOM      3  N   UNL     1       6.190   5.270  18.146  0.00  0.00    +0.000 NA
ATOM      4  H   UNL     1       4.266   2.940  19.212  0.00  0.00    +0.000 HD
ATOM      5  H   UNL     1       5.915   3.028  19.573  0.00  0.00    +0.000 HD
ENDROOT
BRANCH   3   6
ATOM      6  C   UNL     1       7.477   4.988  18.433  0.00  0.00    +0.000 C 
ATOM      7  N   UNL     1       8.177   4.151  17.751  0.00  0.00    +0.000 NA
ATOM      8  N   UNL     1       8.039   5.642  19.467  0.00  0.00    +0.000 N 
ATOM      9  H   UNL     1       7.617   3.845  16.951  0.00  0.00    +0.000 HD
ATOM     10  H   UNL     1       7.389   5.992  20.154  0.00  0.00    +0.000 HD
ATOM     11  H   UNL     1       8.889   5.222  19.813  0.00  0.00    +0.000 HD
ENDBRANCH   3   6
BRANCH   1  12
ATOM     12  S   UNL     1       3.603   5.037  17.932  0.00  0.00    +0.000 S 
BRANCH  12  13
ATOM     13  C   UNL     1       3.159   5.924  19.459  0.00  0.00    +0.000 C 
BRANCH  13  17
ATOM     14  C   UNL     1       1.008   9.664  19.018  0.00  0.00    +0.000 A 
ATOM     15  C   UNL     1       1.669   9.117  17.919  0.00  0.00    +0.000 A 
ATOM     16  C   UNL     1       2.363   7.909  18.045  0.00  0.00    +0.000 A 
ATOM     17  C   UNL     1       2.437   7.245  19.279  0.00  0.00    +0.000 A 
ATOM     18  C   UNL     1       1.751   7.799  20.374  0.00  0.00    +0.000 A 
ATOM     19  C   UNL     1       1.042   8.998  20.247  0.00  0.00    +0.000 A 
BRANCH  14  21
ATOM     20  N   UNL     1      -0.290  11.895  18.778  0.00  0.00    +0.000 NA
ATOM     21  C   UNL     1       0.284  10.896  18.887  0.00  0.00    +0.000 C 
ENDBRANCH  14  21
ENDBRANCH  13  17
ENDBRANCH  12  13
ENDBRANCH   1  12
TORSDOF 5
ENDMDL
