MODEL 1
REMARK VINA RESULT:      -9.0      0.000      0.000
REMARK  Name = 
REMARK  7 active torsions:
REMARK  status: ('A' for Active; 'I' for Inactive)
REMARK    1  A    between atoms: C_1  and  C_2
REMARK    2  A    between atoms: C_7  and  C_8
REMARK    3  A    between atoms: C_8  and  C_9
REMARK    4  A    between atoms: C_11  and  C_12
REMARK    5  A    between atoms: C_15  and  C_16
REMARK    6  A    between atoms: C_21  and  C_22
REMARK    7  A    between atoms: C_22  and  O_24
REMARK                            x       y       z     vdW  Elec       q    Type
REMARK                         _______ _______ _______ _____ _____    ______ ____
ROOT
ATOM      1  C   UNL     1       7.526   7.577  18.034  0.00  0.00    +0.000 C 
ATOM      2  C   UNL     1       6.526   7.509  17.129  0.00  0.00    +0.000 C 
ENDROOT
BRANCH   1   9
ATOM      3  C   UNL     1      10.421  14.333  18.152  0.00  0.00    +0.000 C 
ATOM      4  C   UNL     1      10.103  12.919  18.536  0.00  0.00    +0.000 A 
ATOM      5  C   UNL     1      10.657  12.343  19.690  0.00  0.00    +0.000 A 
ATOM      6  C   UNL     1      10.368  11.025  20.072  0.00  0.00    +0.000 A 
ATOM      7  C   UNL     1       9.503  10.306  19.246  0.00  0.00    +0.000 A 
ATOM      8  N   UNL     1       9.005   9.029  19.310  0.00  0.00    +0.000 N 
ATOM      9  C   UNL     1       8.183   8.824  18.222  0.00  0.00    +0.000 A 
ATOM     10  N   UNL     1       8.140   9.913  17.476  0.00  0.00    +0.000 NA
ATOM     11  C   UNL     1       8.940  10.838  18.096  0.00  0.00    +0.000 A 
ATOM     12  C   UNL     1       9.235  12.162  17.728  0.00  0.00    +0.000 A 
ATOM     13  H   UNL     1       9.216   8.364  20.042  0.00  0.00    +0.000 HD
ENDBRANCH   1   9
BRANCH   2  14
ATOM     14  C   UNL     1       5.806   6.305  16.880  0.00  0.00    +0.000 A 
ATOM     15  C   UNL     1       5.978   5.363  15.874  0.00  0.00    +0.000 A 
ATOM     16  C   UNL     1       4.999   4.355  16.053  0.00  0.00    +0.000 A 
ATOM     17  C   UNL     1       4.299   4.688  17.194  0.00  0.00    +0.000 A 
ATOM     18  O   UNL     1       4.771   5.870  17.677  0.00  0.00    +0.000 OA
BRANCH  17  19
ATOM     19  C   UNL     1       3.244   4.029  17.964  0.00  0.00    +0.000 A 
ATOM     20  C   UNL     1       1.918   4.207  17.506  0.00  0.00    +0.000 A 
ATOM     21  C   UNL     1       0.834   3.564  18.108  0.00  0.00    +0.000 A 
ATOM     22  C   UNL     1       1.046   2.732  19.197  0.00  0.00    +0.000 A 
ATOM     23  C   UNL     1       2.341   2.555  19.682  0.00  0.00    +0.000 A 
ATOM     24  C   UNL     1       3.448   3.195  19.083  0.00  0.00    +0.000 A 
BRANCH  24  25
ATOM     25  C   UNL     1       4.756   2.873  19.725  0.00  0.00    +0.000 C 
ATOM     26  O   UNL     1       4.929   1.830  20.338  0.00  0.00    +0.000 OA
BRANCH  25  27
ATOM     27  O   UNL     1       5.671   3.863  19.735  0.00  0.00    +0.000 OA
ATOM     28  H   UNL     1       6.537   3.625  19.359  0.00  0.00    +0.000 HD
ENDBRANCH  25  27
ENDBRANCH  24  25
ENDBRANCH  17  19
ENDBRANCH   2  14
BRANCH   1  29
ATOM     29  C   UNL     1       7.901   6.303  18.774  0.00  0.00    +0.000 C 
ATOM     30  N   UNL     1       8.211   5.246  19.388  0.00  0.00    +0.000 NA
ENDBRANCH   1  29
TORSDOF 6
ENDMDL
MODEL 2
REMARK VINA RESULT:      -8.6      1.369      1.780
REMARK  Name = 
REMARK  7 active torsions:
REMARK  status: ('A' for Active; 'I' for Inactive)
REMARK    1  A    between atoms: C_1  and  C_2
REMARK    2  A    between atoms: C_7  and  C_8
REMARK    3  A    between atoms: C_8  and  C_9
REMARK    4  A    between atoms: C_11  and  C_12
REMARK    5  A    between atoms: C_15  and  C_16
REMARK    6  A    between atoms: C_21  and  C_22
REMARK    7  A    between atoms: C_22  and  O_24
REMARK                            x       y       z     vdW  Elec       q    Type
REMARK                         _______ _______ _______ _____ _____    ______ ____
ROOT
ATOM      1  C   UNL     1       7.670   7.630  18.054  0.00  0.00    +0.000 C 
ATOM      2  C   UNL     1       6.783   7.514  17.042  0.00  0.00    +0.000 C 
ENDROOT
BRANCH   1   9
ATOM      3  C   UNL     1      10.474  14.423  18.229  0.00  0.00    +0.000 C 
ATOM      4  C   UNL     1      10.147  13.013  18.619  0.00  0.00    +0.000 A 
ATOM      5  C   UNL     1      10.631  12.466  19.818  0.00  0.00    +0.000 A 
ATOM      6  C   UNL     1      10.333  11.151  20.206  0.00  0.00    +0.000 A 
ATOM      7  C   UNL     1       9.532  10.406  19.339  0.00  0.00    +0.000 A 
ATOM      8  N   UNL     1       9.045   9.124  19.395  0.00  0.00    +0.000 N 
ATOM      9  C   UNL     1       8.299   8.889  18.259  0.00  0.00    +0.000 A 
ATOM     10  N   UNL     1       8.293   9.963  17.492  0.00  0.00    +0.000 NA
ATOM     11  C   UNL     1       9.040  10.909  18.144  0.00  0.00    +0.000 A 
ATOM     12  C   UNL     1       9.343  12.230  17.771  0.00  0.00    +0.000 A 
ATOM     13  H   UNL     1       9.215   8.476  20.152  0.00  0.00    +0.000 HD
ENDBRANCH   1   9
BRANCH   2  14
ATOM     14  C   UNL     1       6.098   6.296  16.767  0.00  0.00    +0.000 A 
ATOM     15  C   UNL     1       6.414   5.289  15.863  0.00  0.00    +0.000 A 
ATOM     16  C   UNL     1       5.410   4.294  15.956  0.00  0.00    +0.000 A 
ATOM     17  C   UNL     1       4.546   4.702  16.951  0.00  0.00    +0.000 A 
ATOM     18  O   UNL     1       4.949   5.914  17.422  0.00  0.00    +0.000 OA
BRANCH  17  19
ATOM     19  C   UNL     1       3.380   4.095  17.593  0.00  0.00    +0.000 A 
ATOM     20  C   UNL     1       3.191   2.708  17.387  0.00  0.00    +0.000 A 
ATOM     21  C   UNL     1       2.162   2.000  18.011  0.00  0.00    +0.000 A 
ATOM     22  C   UNL     1       1.282   2.664  18.852  0.00  0.00    +0.000 A 
ATOM     23  C   UNL     1       1.432   4.035  19.057  0.00  0.00    +0.000 A 
ATOM     24  C   UNL     1       2.469   4.765  18.435  0.00  0.00    +0.000 A 
BRANCH  24  25
ATOM     25  C   UNL     1       2.484   6.216  18.786  0.00  0.00    +0.000 C 
ATOM     26  O   UNL     1       2.075   7.067  18.009  0.00  0.00    +0.000 OA
BRANCH  25  27
ATOM     27  O   UNL     1       3.125   6.544  19.926  0.00  0.00    +0.000 OA
ATOM     28  H   UNL     1       2.567   6.966  20.602  0.00  0.00    +0.000 HD
ENDBRANCH  25  27
ENDBRANCH  24  25
ENDBRANCH  17  19
ENDBRANCH   2  14
BRANCH   1  29
ATOM     29  C   UNL     1       7.958   6.393  18.890  0.00  0.00    +0.000 C 
ATOM     30  N   UNL     1       8.196   5.367  19.583  0.00  0.00    +0.000 NA
ENDBRANCH   1  29
TORSDOF 6
ENDMDL
MODEL 3
REMARK VINA RESULT:      -8.3      0.955      1.066
REMARK  Name = 
REMARK  7 active torsions:
REMARK  status: ('A' for Active; 'I' for Inactive)
REMARK    1  A    between atoms: C_1  and  C_2
REMARK    2  A    between atoms: C_7  and  C_8
REMARK    3  A    between atoms: C_8  and  C_9
REMARK    4  A    between atoms: C_11  and  C_12
REMARK    5  A    between atoms: C_15  and  C_16
REMARK    6  A    between atoms: C_21  and  C_22
REMARK    7  A    between atoms: C_22  and  O_24
REMARK                            x       y       z     vdW  Elec       q    Type
REMARK                         _______ _______ _______ _____ _____    ______ ____
ROOT
ATOM      1  C   UNL     1       7.468   7.617  18.229  0.00  0.00    +0.000 C 
ATOM      2  C   UNL     1       6.324   7.577  17.512  0.00  0.00    +0.000 C 
ENDROOT
BRANCH   1   9
ATOM      3  C   UNL     1      10.625  14.236  17.712  0.00  0.00    +0.000 C 
ATOM      4  C   UNL     1      10.273  12.867  18.214  0.00  0.00    +0.000 A 
ATOM      5  C   UNL     1      10.862  12.352  19.378  0.00  0.00    +0.000 A 
ATOM      6  C   UNL     1      10.543  11.078  19.869  0.00  0.00    +0.000 A 
ATOM      7  C   UNL     1       9.609  10.340  19.140  0.00  0.00    +0.000 A 
ATOM      8  N   UNL     1       9.065   9.092  19.321  0.00  0.00    +0.000 N 
ATOM      9  C   UNL     1       8.182   8.846  18.292  0.00  0.00    +0.000 A 
ATOM     10  N   UNL     1       8.143   9.880  17.472  0.00  0.00    +0.000 NA
ATOM     11  C   UNL     1       9.009  10.812  17.983  0.00  0.00    +0.000 A 
ATOM     12  C   UNL     1       9.336  12.093  17.506  0.00  0.00    +0.000 A 
ATOM     13  H   UNL     1       9.288   8.472  20.090  0.00  0.00    +0.000 HD
ENDBRANCH   1   9
BRANCH   2  14
ATOM     14  C   UNL     1       5.539   6.394  17.399  0.00  0.00    +0.000 A 
ATOM     15  C   UNL     1       5.545   5.419  16.409  0.00  0.00    +0.000 A 
ATOM     16  C   UNL     1       4.566   4.453  16.748  0.00  0.00    +0.000 A 
ATOM     17  C   UNL     1       4.035   4.842  17.959  0.00  0.00    +0.000 A 
ATOM     18  O   UNL     1       4.604   6.019  18.338  0.00  0.00    +0.000 OA
BRANCH  17  19
ATOM     19  C   UNL     1       3.071   4.243  18.882  0.00  0.00    +0.000 A 
ATOM     20  C   UNL     1       2.035   5.085  19.354  0.00  0.00    +0.000 A 
ATOM     21  C   UNL     1       1.010   4.609  20.173  0.00  0.00    +0.000 A 
ATOM     22  C   UNL     1       0.998   3.277  20.558  0.00  0.00    +0.000 A 
ATOM     23  C   UNL     1       2.018   2.429  20.124  0.00  0.00    +0.000 A 
ATOM     24  C   UNL     1       3.060   2.894  19.293  0.00  0.00    +0.000 A 
BRANCH  24  25
ATOM     25  C   UNL     1       4.050   1.843  18.916  0.00  0.00    +0.000 C 
ATOM     26  O   UNL     1       3.877   1.117  17.947  0.00  0.00    +0.000 OA
BRANCH  25  27
ATOM     27  O   UNL     1       5.051   1.629  19.794  0.00  0.00    +0.000 OA
ATOM     28  H   UNL     1       4.767   1.321  20.672  0.00  0.00    +0.000 HD
ENDBRANCH  25  27
ENDBRANCH  24  25
ENDBRANCH  17  19
ENDBRANCH   2  14
BRANCH   1  29
ATOM     29  C   UNL     1       7.931   6.334  18.898  0.00  0.00    +0.000 C 
ATOM     30  N   UNL     1       8.315   5.268  19.453  0.00  0.00    +0.000 NA
ENDBRANCH   1  29
TORSDOF 6
ENDMDL
MODEL 4
REMARK VINA RESULT:      -8.2      1.411      2.160
REMARK  Name = 
REMARK  7 active torsions:
REMARK  status: ('A' for Active; 'I' for Inactive)
REMARK    1  A    between atoms: C_1  and  C_2
REMARK    2  A    between atoms: C_7  and  C_8
REMARK    3  A    between atoms: C_8  and  C_9
REMARK    4  A    between atoms: C_11  and  C_12
REMARK    5  A    between atoms: C_15  and  C_16
REMARK    6  A    between atoms: C_21  and  C_22
REMARK    7  A    between atoms: C_22  and  O_24
REMARK                            x       y       z     vdW  Elec       q    Type
REMARK                         _______ _______ _______ _____ _____    ______ ____
ROOT
ATOM      1  C   UNL     1       7.678   7.672  18.096  0.00  0.00    +0.000 C 
ATOM      2  C   UNL     1       6.769   7.593  17.100  0.00  0.00    +0.000 C 
ENDROOT
BRANCH   1   9
ATOM      3  C   UNL     1      11.526  13.630  20.028  0.00  0.00    +0.000 C 
ATOM      4  C   UNL     1      10.555  12.738  19.313  0.00  0.00    +0.000 A 
ATOM      5  C   UNL     1       9.766  13.228  18.260  0.00  0.00    +0.000 A 
ATOM      6  C   UNL     1       8.856  12.411  17.574  0.00  0.00    +0.000 A 
ATOM      7  C   UNL     1       8.768  11.081  17.990  0.00  0.00    +0.000 A 
ATOM      8  N   UNL     1       8.012  10.020  17.556  0.00  0.00    +0.000 N 
ATOM      9  C   UNL     1       8.318   8.920  18.328  0.00  0.00    +0.000 A 
ATOM     10  N   UNL     1       9.231   9.238  19.227  0.00  0.00    +0.000 NA
ATOM     11  C   UNL     1       9.526  10.562  19.028  0.00  0.00    +0.000 A 
ATOM     12  C   UNL     1      10.437  11.392  19.704  0.00  0.00    +0.000 A 
ATOM     13  H   UNL     1       7.348  10.060  16.794  0.00  0.00    +0.000 HD
ENDBRANCH   1   9
BRANCH   2  14
ATOM     14  C   UNL     1       6.071   6.388  16.800  0.00  0.00    +0.000 A 
ATOM     15  C   UNL     1       6.362   5.409  15.859  0.00  0.00    +0.000 A 
ATOM     16  C   UNL     1       5.354   4.417  15.941  0.00  0.00    +0.000 A 
ATOM     17  C   UNL     1       4.514   4.797  16.966  0.00  0.00    +0.000 A 
ATOM     18  O   UNL     1       4.934   5.992  17.466  0.00  0.00    +0.000 OA
BRANCH  17  19
ATOM     19  C   UNL     1       3.357   4.176  17.612  0.00  0.00    +0.000 A 
ATOM     20  C   UNL     1       3.186   2.787  17.408  0.00  0.00    +0.000 A 
ATOM     21  C   UNL     1       2.168   2.066  18.037  0.00  0.00    +0.000 A 
ATOM     22  C   UNL     1       1.281   2.720  18.879  0.00  0.00    +0.000 A 
ATOM     23  C   UNL     1       1.415   4.093  19.082  0.00  0.00    +0.000 A 
ATOM     24  C   UNL     1       2.440   4.836  18.456  0.00  0.00    +0.000 A 
BRANCH  24  25
ATOM     25  C   UNL     1       2.438   6.287  18.805  0.00  0.00    +0.000 C 
ATOM     26  O   UNL     1       2.063   7.136  18.009  0.00  0.00    +0.000 OA
BRANCH  25  27
ATOM     27  O   UNL     1       3.026   6.618  19.972  0.00  0.00    +0.000 OA
ATOM     28  H   UNL     1       2.661   7.409  20.405  0.00  0.00    +0.000 HD
ENDBRANCH  25  27
ENDBRANCH  24  25
ENDBRANCH  17  19
ENDBRANCH   2  14
BRANCH   1  29
ATOM     29  C   UNL     1       7.976   6.407  18.885  0.00  0.00    +0.000 C 
ATOM     30  N   UNL     1       8.223   5.358  19.539  0.00  0.00    +0.000 NA
ENDBRANCH   1  29
TORSDOF 6
ENDMDL
MODEL 5
REMARK VINA RESULT:      -8.2      0.717      1.419
REMARK  Name = 
REMARK  7 active torsions:
REMARK  status: ('A' for Active; 'I' for Inactive)
REMARK    1  A    between atoms: C_1  and  C_2
REMARK    2  A    between atoms: C_7  and  C_8
REMARK    3  A    between atoms: C_8  and  C_9
REMARK    4  A    between atoms: C_11  and  C_12
REMARK    5  A    between atoms: C_15  and  C_16
REMARK    6  A    between atoms: C_21  and  C_22
REMARK    7  A    between atoms: C_22  and  O_24
REMARK                            x       y       z     vdW  Elec       q    Type
REMARK                         _______ _______ _______ _____ _____    ______ ____
ROOT
ATOM      1  C   UNL     1       7.566   7.341  18.183  0.00  0.00    +0.000 C 
ATOM      2  C   UNL     1       6.624   7.156  17.233  0.00  0.00    +0.000 C 
ENDROOT
BRANCH   1   9
ATOM      3  C   UNL     1      11.308  13.542  19.443  0.00  0.00    +0.000 C 
ATOM      4  C   UNL     1      10.295  12.583  18.893  0.00  0.00    +0.000 A 
ATOM      5  C   UNL     1       9.331  13.006  17.964  0.00  0.00    +0.000 A 
ATOM      6  C   UNL     1       8.378  12.126  17.432  0.00  0.00    +0.000 A 
ATOM      7  C   UNL     1       8.429  10.803  17.873  0.00  0.00    +0.000 A 
ATOM      8  N   UNL     1       7.680   9.693  17.571  0.00  0.00    +0.000 N 
ATOM      9  C   UNL     1       8.161   8.627  18.302  0.00  0.00    +0.000 A 
ATOM     10  N   UNL     1       9.177   9.014  19.050  0.00  0.00    +0.000 NA
ATOM     11  C   UNL     1       9.362  10.348  18.793  0.00  0.00    +0.000 A 
ATOM     12  C   UNL     1      10.314  11.241  19.314  0.00  0.00    +0.000 A 
ATOM     13  H   UNL     1       6.908   9.680  16.916  0.00  0.00    +0.000 HD
ENDBRANCH   1   9
BRANCH   2  14
ATOM     14  C   UNL     1       5.968   5.905  17.047  0.00  0.00    +0.000 A 
ATOM     15  C   UNL     1       6.347   4.814  16.274  0.00  0.00    +0.000 A 
ATOM     16  C   UNL     1       5.348   3.819  16.411  0.00  0.00    +0.000 A 
ATOM     17  C   UNL     1       4.422   4.315  17.305  0.00  0.00    +0.000 A 
ATOM     18  O   UNL     1       4.785   5.576  17.669  0.00  0.00    +0.000 OA
BRANCH  17  19
ATOM     19  C   UNL     1       3.224   3.761  17.935  0.00  0.00    +0.000 A 
ATOM     20  C   UNL     1       1.989   4.355  17.585  0.00  0.00    +0.000 A 
ATOM     21  C   UNL     1       0.770   3.862  18.056  0.00  0.00    +0.000 A 
ATOM     22  C   UNL     1       0.753   2.767  18.907  0.00  0.00    +0.000 A 
ATOM     23  C   UNL     1       1.958   2.175  19.285  0.00  0.00    +0.000 A 
ATOM     24  C   UNL     1       3.198   2.659  18.815  0.00  0.00    +0.000 A 
BRANCH  24  25
ATOM     25  C   UNL     1       4.377   1.890  19.311  0.00  0.00    +0.000 C 
ATOM     26  O   UNL     1       5.193   2.389  20.072  0.00  0.00    +0.000 OA
BRANCH  25  27
ATOM     27  O   UNL     1       4.580   0.684  18.744  0.00  0.00    +0.000 OA
ATOM     28  H   UNL     1       3.799   0.103  18.724  0.00  0.00    +0.000 HD
ENDBRANCH  25  27
ENDBRANCH  24  25
ENDBRANCH  17  19
ENDBRANCH   2  14
BRANCH   1  29
ATOM     29  C   UNL     1       7.948   6.149  19.045  0.00  0.00    +0.000 C 
ATOM     30  N   UNL     1       8.264   5.160  19.761  0.00  0.00    +0.000 NA
ENDBRANCH   1  29
TORSDOF 6
ENDMDL
MODEL 6
REMARK VINA RESULT:      -7.9      6.938      9.199
REMARK  Name = 
REMARK  7 active torsions:
REMARK  status: ('A' for Active; 'I' for Inactive)
REMARK    1  A    between atoms: C_1  and  C_2
REMARK    2  A    between atoms: C_7  and  C_8
REMARK    3  A    between atoms: C_8  and  C_9
REMARK    4  A    between atoms: C_11  and  C_12
REMARK    5  A    between atoms: C_15  and  C_16
REMARK    6  A    between atoms: C_21  and  C_22
REMARK    7  A    between atoms: C_22  and  O_24
REMARK                            x       y       z     vdW  Elec       q    Type
REMARK                         _______ _______ _______ _____ _____    ______ ____
ROOT
ATOM      1  C   UNL     1       1.967   8.507  18.823  0.00  0.00    +0.000 C 
ATOM      2  C   UNL     1       1.616   9.596  18.106  0.00  0.00    +0.000 C 
ENDROOT
BRANCH   1   9
ATOM      3  C   UNL     1       6.626   4.155  15.163  0.00  0.00    +0.000 C 
ATOM      4  C   UNL     1       5.502   4.603  16.049  0.00  0.00    +0.000 A 
ATOM      5  C   UNL     1       4.691   3.670  16.714  0.00  0.00    +0.000 A 
ATOM      6  C   UNL     1       3.639   4.067  17.552  0.00  0.00    +0.000 A 
ATOM      7  C   UNL     1       3.432   5.440  17.693  0.00  0.00    +0.000 A 
ATOM      8  N   UNL     1       2.525   6.174  18.417  0.00  0.00    +0.000 N 
ATOM      9  C   UNL     1       2.765   7.513  18.192  0.00  0.00    +0.000 A 
ATOM     10  N   UNL     1       3.780   7.657  17.360  0.00  0.00    +0.000 NA
ATOM     11  C   UNL     1       4.208   6.392  17.049  0.00  0.00    +0.000 A 
ATOM     12  C   UNL     1       5.262   5.979  16.216  0.00  0.00    +0.000 A 
ATOM     13  H   UNL     1       1.809   5.778  19.013  0.00  0.00    +0.000 HD
ENDBRANCH   1   9
BRANCH   2  14
ATOM     14  C   UNL     1       0.827  10.647  18.656  0.00  0.00    +0.000 A 
ATOM     15  C   UNL     1       1.229  11.847  19.230  0.00  0.00    +0.000 A 
ATOM     16  C   UNL     1       0.064  12.541  19.639  0.00  0.00    +0.000 A 
ATOM     17  C   UNL     1      -1.010  11.767  19.252  0.00  0.00    +0.000 A 
ATOM     18  O   UNL     1      -0.549  10.620  18.681  0.00  0.00    +0.000 OA
BRANCH  17  19
ATOM     19  C   UNL     1      -2.460  11.954  19.290  0.00  0.00    +0.000 A 
ATOM     20  C   UNL     1      -2.986  12.621  20.421  0.00  0.00    +0.000 A 
ATOM     21  C   UNL     1      -4.343  12.931  20.535  0.00  0.00    +0.000 A 
ATOM     22  C   UNL     1      -5.218  12.568  19.522  0.00  0.00    +0.000 A 
ATOM     23  C   UNL     1      -4.731  11.891  18.405  0.00  0.00    +0.000 A 
ATOM     24  C   UNL     1      -3.361  11.574  18.273  0.00  0.00    +0.000 A 
BRANCH  24  25
ATOM     25  C   UNL     1      -3.021  10.865  17.004  0.00  0.00    +0.000 C 
ATOM     26  O   UNL     1      -3.291   9.684  16.838  0.00  0.00    +0.000 OA
BRANCH  25  27
ATOM     27  O   UNL     1      -2.257  11.549  16.129  0.00  0.00    +0.000 OA
ATOM     28  H   UNL     1      -2.433  11.354  15.192  0.00  0.00    +0.000 HD
ENDBRANCH  25  27
ENDBRANCH  24  25
ENDBRANCH  17  19
ENDBRANCH   2  14
BRANCH   1  29
ATOM     29  C   UNL     1       1.461   8.406  20.252  0.00  0.00    +0.000 C 
ATOM     30  N   UNL     1       1.041   8.322  21.438  0.00  0.00    +0.000 NA
ENDBRANCH   1  29
TORSDOF 6
ENDMDL
MODEL 7
REMARK VINA RESULT:      -7.6      7.250      9.390
REMARK  Name = 
REMARK  7 active torsions:
REMARK  status: ('A' for Active; 'I' for Inactive)
REMARK    1  A    between atoms: C_1  and  C_2
REMARK    2  A    between atoms: C_7  and  C_8
REMARK    3  A    between atoms: C_8  and  C_9
REMARK    4  A    between atoms: C_11  and  C_12
REMARK    5  A    between atoms: C_15  and  C_16
REMARK    6  A    between atoms: C_21  and  C_22
REMARK    7  A    between atoms: C_22  and  O_24
REMARK                            x       y       z     vdW  Elec       q    Type
REMARK                         _______ _______ _______ _____ _____    ______ ____
ROOT
ATOM      1  C   UNL     1       1.471   8.837  19.173  0.00  0.00    +0.000 C 
ATOM      2  C   UNL     1       1.022   9.698  18.234  0.00  0.00    +0.000 C 
ENDROOT
BRANCH   1   9
ATOM      3  C   UNL     1       6.385   4.199  16.279  0.00  0.00    +0.000 C 
ATOM      4  C   UNL     1       5.408   4.816  17.235  0.00  0.00    +0.000 A 
ATOM      5  C   UNL     1       5.142   4.222  18.478  0.00  0.00    +0.000 A 
ATOM      6  C   UNL     1       4.237   4.785  19.389  0.00  0.00    +0.000 A 
ATOM      7  C   UNL     1       3.606   5.968  19.000  0.00  0.00    +0.000 A 
ATOM      8  N   UNL     1       2.692   6.781  19.622  0.00  0.00    +0.000 N 
ATOM      9  C   UNL     1       2.397   7.833  18.780  0.00  0.00    +0.000 A 
ATOM     10  N   UNL     1       3.083   7.719  17.658  0.00  0.00    +0.000 NA
ATOM     11  C   UNL     1       3.839   6.582  17.779  0.00  0.00    +0.000 A 
ATOM     12  C   UNL     1       4.752   6.008  16.878  0.00  0.00    +0.000 A 
ATOM     13  H   UNL     1       2.311   6.620  20.545  0.00  0.00    +0.000 HD
ENDBRANCH   1   9
BRANCH   2  14
ATOM     14  C   UNL     1       0.101  10.742  18.537  0.00  0.00    +0.000 A 
ATOM     15  C   UNL     1       0.346  12.052  18.930  0.00  0.00    +0.000 A 
ATOM     16  C   UNL     1      -0.906  12.686  19.125  0.00  0.00    +0.000 A 
ATOM     17  C   UNL     1      -1.870  11.758  18.791  0.00  0.00    +0.000 A 
ATOM     18  O   UNL     1      -1.265  10.585  18.459  0.00  0.00    +0.000 OA
BRANCH  17  19
ATOM     19  C   UNL     1      -3.329  11.806  18.684  0.00  0.00    +0.000 A 
ATOM     20  C   UNL     1      -4.029  12.347  19.788  0.00  0.00    +0.000 A 
ATOM     21  C   UNL     1      -5.415  12.521  19.772  0.00  0.00    +0.000 A 
ATOM     22  C   UNL     1      -6.143  12.144  18.654  0.00  0.00    +0.000 A 
ATOM     23  C   UNL     1      -5.480  11.590  17.559  0.00  0.00    +0.000 A 
ATOM     24  C   UNL     1      -4.080  11.410  17.558  0.00  0.00    +0.000 A 
BRANCH  24  25
ATOM     25  C   UNL     1      -3.545  10.820  16.296  0.00  0.00    +0.000 C 
ATOM     26  O   UNL     1      -3.332   9.621  16.189  0.00  0.00    +0.000 OA
BRANCH  25  27
ATOM     27  O   UNL     1      -3.155  11.698  15.349  0.00  0.00    +0.000 OA
ATOM     28  H   UNL     1      -2.194  11.743  15.203  0.00  0.00    +0.000 HD
ENDBRANCH  25  27
ENDBRANCH  24  25
ENDBRANCH  17  19
ENDBRANCH   2  14
BRANCH   1  29
ATOM     29  C   UNL     1       0.931   8.986  20.586  0.00  0.00    +0.000 C 
ATOM     30  N   UNL     1       0.483   9.109  21.759  0.00  0.00    +0.000 NA
ENDBRANCH   1  29
TORSDOF 6
ENDMDL
MODEL 8
REMARK VINA RESULT:      -7.5      4.312     10.617
REMARK  Name = 
REMARK  7 active torsions:
REMARK  status: ('A' for Active; 'I' for Inactive)
REMARK    1  A    between atoms: C_1  and  C_2
REMARK    2  A    between atoms: C_7  and  C_8
REMARK    3  A    between atoms: C_8  and  C_9
REMARK    4  A    between atoms: C_11  and  C_12
REMARK    5  A    between atoms: C_15  and  C_16
REMARK    6  A    between atoms: C_21  and  C_22
REMARK    7  A    between atoms: C_22  and  O_24
REMARK                            x       y       z     vdW  Elec       q    Type
REMARK                         _______ _______ _______ _____ _____    ______ ____
ROOT
ATOM      1  C   UNL     1       9.021  10.110  18.795  0.00  0.00    +0.000 C 
ATOM      2  C   UNL     1       9.521  10.931  17.846  0.00  0.00    +0.000 C 
ENDROOT
BRANCH   1   9
ATOM      3  C   UNL     1       5.502   4.355  15.873  0.00  0.00    +0.000 C 
ATOM      4  C   UNL     1       6.357   5.180  16.788  0.00  0.00    +0.000 A 
ATOM      5  C   UNL     1       7.005   4.598  17.889  0.00  0.00    +0.000 A 
ATOM      6  C   UNL     1       7.814   5.349  18.754  0.00  0.00    +0.000 A 
ATOM      7  C   UNL     1       7.943   6.710  18.471  0.00  0.00    +0.000 A 
ATOM      8  N   UNL     1       8.641   7.723  19.080  0.00  0.00    +0.000 N 
ATOM      9  C   UNL     1       8.415   8.891  18.382  0.00  0.00    +0.000 A 
ATOM     10  N   UNL     1       7.609   8.660  17.363  0.00  0.00    +0.000 NA
ATOM     11  C   UNL     1       7.315   7.321  17.397  0.00  0.00    +0.000 A 
ATOM     12  C   UNL     1       6.511   6.555  16.536  0.00  0.00    +0.000 A 
ATOM     13  H   UNL     1       9.219   7.611  19.902  0.00  0.00    +0.000 HD
ENDBRANCH   1   9
BRANCH   2  14
ATOM     14  C   UNL     1      10.152  12.167  18.166  0.00  0.00    +0.000 A 
ATOM     15  C   UNL     1      11.505  12.478  18.233  0.00  0.00    +0.000 A 
ATOM     16  C   UNL     1      11.617  13.839  18.609  0.00  0.00    +0.000 A 
ATOM     17  C   UNL     1      10.330  14.326  18.705  0.00  0.00    +0.000 A 
ATOM     18  O   UNL     1       9.452  13.315  18.460  0.00  0.00    +0.000 OA
BRANCH  17  19
ATOM     19  C   UNL     1       9.764  15.651  18.956  0.00  0.00    +0.000 A 
ATOM     20  C   UNL     1       8.854  15.760  20.034  0.00  0.00    +0.000 A 
ATOM     21  C   UNL     1       8.310  16.986  20.423  0.00  0.00    +0.000 A 
ATOM     22  C   UNL     1       8.652  18.140  19.735  0.00  0.00    +0.000 A 
ATOM     23  C   UNL     1       9.531  18.059  18.655  0.00  0.00    +0.000 A 
ATOM     24  C   UNL     1      10.092  16.828  18.251  0.00  0.00    +0.000 A 
BRANCH  24  25
ATOM     25  C   UNL     1      11.024  16.938  17.090  0.00  0.00    +0.000 C 
ATOM     26  O   UNL     1      11.951  17.734  17.086  0.00  0.00    +0.000 OA
BRANCH  25  27
ATOM     27  O   UNL     1      10.686  16.235  15.990  0.00  0.00    +0.000 OA
ATOM     28  H   UNL     1      11.060  15.338  15.945  0.00  0.00    +0.000 HD
ENDBRANCH  25  27
ENDBRANCH  24  25
ENDBRANCH  17  19
ENDBRANCH   2  14
BRANCH   1  29
ATOM     29  C   UNL     1       9.116  10.560  20.244  0.00  0.00    +0.000 C 
ATOM     30  N   UNL     1       9.195  10.933  21.446  0.00  0.00    +0.000 NA
ENDBRANCH   1  29
TORSDOF 6
ENDMDL
MODEL 9
REMARK VINA RESULT:      -7.5      5.610      7.358
REMARK  Name = 
REMARK  7 active torsions:
REMARK  status: ('A' for Active; 'I' for Inactive)
REMARK    1  A    between atoms: C_1  and  C_2
REMARK    2  A    between atoms: C_7  and  C_8
REMARK    3  A    between atoms: C_8  and  C_9
REMARK    4  A    between atoms: C_11  and  C_12
REMARK    5  A    between atoms: C_15  and  C_16
REMARK    6  A    between atoms: C_21  and  C_22
REMARK    7  A    between atoms: C_22  and  O_24
REMARK                            x       y       z     vdW  Elec       q    Type
REMARK                         _______ _______ _______ _____ _____    ______ ____
ROOT
ATOM      1  C   UNL     1       1.805   7.929  19.777  0.00  0.00    +0.000 C 
ATOM      2  C   UNL     1       2.017   6.783  20.460  0.00  0.00    +0.000 C 
ENDROOT
BRANCH   1   9
ATOM      3  C   UNL     1      -1.976  13.776  22.134  0.00  0.00    +0.000 C 
ATOM      4  C   UNL     1      -1.340  12.419  22.097  0.00  0.00    +0.000 A 
ATOM      5  C   UNL     1      -1.467  11.533  23.178  0.00  0.00    +0.000 A 
ATOM      6  C   UNL     1      -0.886  10.256  23.162  0.00  0.00    +0.000 A 
ATOM      7  C   UNL     1      -0.169   9.906  22.017  0.00  0.00    +0.000 A 
ATOM      8  N   UNL     1       0.509   8.768  21.658  0.00  0.00    +0.000 N 
ATOM      9  C   UNL     1       1.046   8.957  20.402  0.00  0.00    +0.000 A 
ATOM     10  N   UNL     1       0.738  10.159  19.954  0.00  0.00    +0.000 NA
ATOM     11  C   UNL     1      -0.017  10.755  20.932  0.00  0.00    +0.000 A 
ATOM     12  C   UNL     1      -0.608  12.029  20.960  0.00  0.00    +0.000 A 
ATOM     13  H   UNL     1       0.589   7.939  22.232  0.00  0.00    +0.000 HD
ENDBRANCH   1   9
BRANCH   2  14
ATOM     14  C   UNL     1       2.772   5.703  19.919  0.00  0.00    +0.000 A 
ATOM     15  C   UNL     1       2.704   4.345  20.205  0.00  0.00    +0.000 A 
ATOM     16  C   UNL     1       3.676   3.688  19.412  0.00  0.00    +0.000 A 
ATOM     17  C   UNL     1       4.266   4.659  18.630  0.00  0.00    +0.000 A 
ATOM     18  O   UNL     1       3.737   5.872  18.952  0.00  0.00    +0.000 OA
BRANCH  17  19
ATOM     19  C   UNL     1       5.255   4.630  17.553  0.00  0.00    +0.000 A 
ATOM     20  C   UNL     1       4.816   4.144  16.299  0.00  0.00    +0.000 A 
ATOM     21  C   UNL     1       5.644   4.144  15.174  0.00  0.00    +0.000 A 
ATOM     22  C   UNL     1       6.942   4.618  15.275  0.00  0.00    +0.000 A 
ATOM     23  C   UNL     1       7.408   5.085  16.504  0.00  0.00    +0.000 A 
ATOM     24  C   UNL     1       6.584   5.095  17.650  0.00  0.00    +0.000 A 
BRANCH  24  25
ATOM     25  C   UNL     1       7.246   5.645  18.869  0.00  0.00    +0.000 C 
ATOM     26  O   UNL     1       6.994   5.214  19.985  0.00  0.00    +0.000 OA
BRANCH  25  27
ATOM     27  O   UNL     1       8.001   6.747  18.687  0.00  0.00    +0.000 OA
ATOM     28  H   UNL     1       7.971   7.121  17.789  0.00  0.00    +0.000 HD
ENDBRANCH  25  27
ENDBRANCH  24  25
ENDBRANCH  17  19
ENDBRANCH   2  14
BRANCH   1  29
ATOM     29  C   UNL     1       2.373   8.031  18.371  0.00  0.00    +0.000 C 
ATOM     30  N   UNL     1       2.844   8.115  17.204  0.00  0.00    +0.000 NA
ENDBRANCH   1  29
TORSDOF 6
ENDMDL
