MODEL 1
REMARK VINA RESULT:      -8.3      0.000      0.000
REMARK  Name = 
REMARK  4 active torsions:
REMARK  status: ('A' for Active; 'I' for Inactive)
REMARK    1  A    between atoms: C_1  and  C_2
REMARK    2  A    between atoms: N_4  and  C_5
REMARK    3  A    between atoms: C_13  and  N_14
REMARK    4  A    between atoms: C_17  and  N_18
REMARK                            x       y       z     vdW  Elec       q    Type
REMARK                         _______ _______ _______ _____ _____    ______ ____
ROOT
ATOM      1  C   UNL     1       2.358   2.140  20.986  0.00  0.00    +0.000 C 
ATOM      2  C   UNL     1       2.846   3.253  20.136  0.00  0.00    +0.000 A 
ATOM      3  N   UNL     1       3.699   3.022  19.132  0.00  0.00    +0.000 NA
ATOM      4  N   UNL     1       3.991   4.259  18.639  0.00  0.00    +0.000 N 
ATOM      5  C   UNL     1       3.181   5.241  19.200  0.00  0.00    +0.000 A 
ATOM      6  C   UNL     1       2.959   6.598  18.889  0.00  0.00    +0.000 A 
ATOM      7  C   UNL     1       2.034   7.364  19.626  0.00  0.00    +0.000 A 
ATOM      8  C   UNL     1       1.396   6.728  20.698  0.00  0.00    +0.000 A 
ATOM      9  C   UNL     1       1.586   5.368  20.998  0.00  0.00    +0.000 A 
ATOM     10  C   UNL     1       2.467   4.612  20.211  0.00  0.00    +0.000 A 
ENDROOT
BRANCH   4  11
ATOM     11  C   UNL     1       5.010   4.404  17.657  0.00  0.00    +0.000 A 
ATOM     12  C   UNL     1       6.328   4.650  18.070  0.00  0.00    +0.000 A 
ATOM     13  C   UNL     1       7.347   4.773  17.122  0.00  0.00    +0.000 A 
ATOM     14  C   UNL     1       7.052   4.693  15.761  0.00  0.00    +0.000 A 
ATOM     15  C   UNL     1       5.737   4.485  15.345  0.00  0.00    +0.000 A 
ATOM     16  C   UNL     1       4.717   4.333  16.288  0.00  0.00    +0.000 A 
ENDBRANCH   4  11
BRANCH   7  17
ATOM     17  N   UNL     1       1.817   8.695  19.316  0.00  0.00    +0.000 N 
ATOM     18  C   UNL     1       1.721   9.149  17.935  0.00  0.00    +0.000 C 
ATOM     19  C   UNL     1       1.765  10.655  18.104  0.00  0.00    +0.000 C 
ATOM     20  C   UNL     1       0.859  10.936  19.318  0.00  0.00    +0.000 C 
ATOM     21  C   UNL     1       1.027   9.610  20.155  0.00  0.00    +0.000 C 
BRANCH  20  22
ATOM     22  N   UNL     1      -0.555  11.242  18.978  0.00  0.00    +0.000 NA
ATOM     23  C   UNL     1      -1.347  11.645  20.169  0.00  0.00    +0.000 C 
ATOM     24  C   UNL     1      -1.066  13.074  20.700  0.00  0.00    +0.000 C 
ATOM     25  N   UNL     1      -1.167  14.115  19.672  0.00  0.00    +0.000 NA
ATOM     26  C   UNL     1      -0.401  13.745  18.477  0.00  0.00    +0.000 C 
ATOM     27  C   UNL     1      -0.725  12.321  17.972  0.00  0.00    +0.000 C 
ATOM     28  H   UNL     1      -0.823  15.000  20.041  0.00  0.00    +0.000 HD
ENDBRANCH  20  22
ENDBRANCH   7  17
TORSDOF 3
ENDMDL
MODEL 2
REMARK VINA RESULT:      -7.7      1.972      4.194
REMARK  Name = 
REMARK  4 active torsions:
REMARK  status: ('A' for Active; 'I' for Inactive)
REMARK    1  A    between atoms: C_1  and  C_2
REMARK    2  A    between atoms: N_4  and  C_5
REMARK    3  A    between atoms: C_13  and  N_14
REMARK    4  A    between atoms: C_17  and  N_18
REMARK                            x       y       z     vdW  Elec       q    Type
REMARK                         _______ _______ _______ _____ _____    ______ ____
ROOT
ATOM      1  C   UNL     1       4.744   6.858  16.146  0.00  0.00    +0.000 C 
ATOM      2  C   UNL     1       3.959   6.626  17.383  0.00  0.00    +0.000 A 
ATOM      3  N   UNL     1       4.106   5.496  18.083  0.00  0.00    +0.000 NA
ATOM      4  N   UNL     1       3.184   5.590  19.082  0.00  0.00    +0.000 N 
ATOM      5  C   UNL     1       2.598   6.850  19.126  0.00  0.00    +0.000 A 
ATOM      6  C   UNL     1       1.765   7.493  20.064  0.00  0.00    +0.000 A 
ATOM      7  C   UNL     1       1.338   8.820  19.860  0.00  0.00    +0.000 A 
ATOM      8  C   UNL     1       1.737   9.438  18.668  0.00  0.00    +0.000 A 
ATOM      9  C   UNL     1       2.594   8.819  17.741  0.00  0.00    +0.000 A 
ATOM     10  C   UNL     1       3.054   7.519  17.998  0.00  0.00    +0.000 A 
ENDROOT
BRANCH   4  11
ATOM     11  C   UNL     1       2.946   4.471  19.929  0.00  0.00    +0.000 A 
ATOM     12  C   UNL     1       3.840   3.390  19.902  0.00  0.00    +0.000 A 
ATOM     13  C   UNL     1       3.637   2.292  20.742  0.00  0.00    +0.000 A 
ATOM     14  C   UNL     1       2.524   2.249  21.581  0.00  0.00    +0.000 A 
ATOM     15  C   UNL     1       1.612   3.304  21.583  0.00  0.00    +0.000 A 
ATOM     16  C   UNL     1       1.824   4.419  20.767  0.00  0.00    +0.000 A 
ENDBRANCH   4  11
BRANCH   7  17
ATOM     17  N   UNL     1       0.522   9.447  20.785  0.00  0.00    +0.000 N 
ATOM     18  C   UNL     1       0.824   9.419  22.210  0.00  0.00    +0.000 C 
ATOM     19  C   UNL     1      -0.456   9.973  22.805  0.00  0.00    +0.000 C 
ATOM     20  C   UNL     1      -0.836  11.147  21.883  0.00  0.00    +0.000 C 
ATOM     21  C   UNL     1      -0.239  10.674  20.502  0.00  0.00    +0.000 C 
BRANCH  20  22
ATOM     22  N   UNL     1      -0.324  12.471  22.323  0.00  0.00    +0.000 NA
ATOM     23  C   UNL     1       0.008  13.357  21.177  0.00  0.00    +0.000 C 
ATOM     24  C   UNL     1      -1.210  13.968  20.437  0.00  0.00    +0.000 C 
ATOM     25  N   UNL     1      -2.156  14.651  21.324  0.00  0.00    +0.000 NA
ATOM     26  C   UNL     1      -2.500  13.806  22.473  0.00  0.00    +0.000 C 
ATOM     27  C   UNL     1      -1.257  13.233  23.190  0.00  0.00    +0.000 C 
ATOM     28  H   UNL     1      -3.002  14.892  20.809  0.00  0.00    +0.000 HD
ENDBRANCH  20  22
ENDBRANCH   7  17
TORSDOF 3
ENDMDL
MODEL 3
REMARK VINA RESULT:      -7.6      1.767      4.291
REMARK  Name = 
REMARK  4 active torsions:
REMARK  status: ('A' for Active; 'I' for Inactive)
REMARK    1  A    between atoms: C_1  and  C_2
REMARK    2  A    between atoms: N_4  and  C_5
REMARK    3  A    between atoms: C_13  and  N_14
REMARK    4  A    between atoms: C_17  and  N_18
REMARK                            x       y       z     vdW  Elec       q    Type
REMARK                         _______ _______ _______ _____ _____    ______ ____
ROOT
ATOM      1  C   UNL     1       5.183   6.445  16.255  0.00  0.00    +0.000 C 
ATOM      2  C   UNL     1       4.155   6.407  17.323  0.00  0.00    +0.000 A 
ATOM      3  N   UNL     1       3.988   5.313  18.073  0.00  0.00    +0.000 NA
ATOM      4  N   UNL     1       2.923   5.602  18.871  0.00  0.00    +0.000 N 
ATOM      5  C   UNL     1       2.544   6.936  18.762  0.00  0.00    +0.000 A 
ATOM      6  C   UNL     1       1.662   7.750  19.500  0.00  0.00    +0.000 A 
ATOM      7  C   UNL     1       1.494   9.111  19.175  0.00  0.00    +0.000 A 
ATOM      8  C   UNL     1       2.201   9.589  18.065  0.00  0.00    +0.000 A 
ATOM      9  C   UNL     1       3.107   8.796  17.341  0.00  0.00    +0.000 A 
ATOM     10  C   UNL     1       3.301   7.460  17.723  0.00  0.00    +0.000 A 
ENDROOT
BRANCH   4  11
ATOM     11  C   UNL     1       2.359   4.585  19.691  0.00  0.00    +0.000 A 
ATOM     12  C   UNL     1       1.397   3.721  19.145  0.00  0.00    +0.000 A 
ATOM     13  C   UNL     1       0.847   2.702  19.927  0.00  0.00    +0.000 A 
ATOM     14  C   UNL     1       1.222   2.565  21.263  0.00  0.00    +0.000 A 
ATOM     15  C   UNL     1       2.149   3.444  21.820  0.00  0.00    +0.000 A 
ATOM     16  C   UNL     1       2.725   4.449  21.037  0.00  0.00    +0.000 A 
ENDBRANCH   4  11
BRANCH   7  17
ATOM     17  N   UNL     1       0.628   9.907  19.904  0.00  0.00    +0.000 N 
ATOM     18  C   UNL     1       1.103  11.065  20.649  0.00  0.00    +0.000 C 
ATOM     19  C   UNL     1      -0.119  11.422  21.473  0.00  0.00    +0.000 C 
ATOM     20  C   UNL     1      -1.301  11.272  20.497  0.00  0.00    +0.000 C 
ATOM     21  C   UNL     1      -0.773  10.150  19.525  0.00  0.00    +0.000 C 
BRANCH  20  22
ATOM     22  N   UNL     1      -1.688  12.525  19.796  0.00  0.00    +0.000 NA
ATOM     23  C   UNL     1      -2.215  12.267  18.430  0.00  0.00    +0.000 C 
ATOM     24  C   UNL     1      -3.648  11.680  18.372  0.00  0.00    +0.000 C 
ATOM     25  N   UNL     1      -4.632  12.453  19.137  0.00  0.00    +0.000 NA
ATOM     26  C   UNL     1      -4.140  12.733  20.490  0.00  0.00    +0.000 C 
ATOM     27  C   UNL     1      -2.716  13.331  20.500  0.00  0.00    +0.000 C 
ATOM     28  H   UNL     1      -5.511  11.939  19.189  0.00  0.00    +0.000 HD
ENDBRANCH  20  22
ENDBRANCH   7  17
TORSDOF 3
ENDMDL
MODEL 4
REMARK VINA RESULT:      -7.5      1.926      4.382
REMARK  Name = 
REMARK  4 active torsions:
REMARK  status: ('A' for Active; 'I' for Inactive)
REMARK    1  A    between atoms: C_1  and  C_2
REMARK    2  A    between atoms: N_4  and  C_5
REMARK    3  A    between atoms: C_13  and  N_14
REMARK    4  A    between atoms: C_17  and  N_18
REMARK                            x       y       z     vdW  Elec       q    Type
REMARK                         _______ _______ _______ _____ _____    ______ ____
ROOT
ATOM      1  C   UNL     1       4.867   6.744  16.162  0.00  0.00    +0.000 C 
ATOM      2  C   UNL     1       3.916   6.631  17.293  0.00  0.00    +0.000 A 
ATOM      3  N   UNL     1       3.817   5.495  17.991  0.00  0.00    +0.000 NA
ATOM      4  N   UNL     1       2.806   5.722  18.875  0.00  0.00    +0.000 N 
ATOM      5  C   UNL     1       2.403   7.053  18.866  0.00  0.00    +0.000 A 
ATOM      6  C   UNL     1       1.563   7.811  19.708  0.00  0.00    +0.000 A 
ATOM      7  C   UNL     1       1.355   9.184  19.471  0.00  0.00    +0.000 A 
ATOM      8  C   UNL     1       1.977   9.734  18.344  0.00  0.00    +0.000 A 
ATOM      9  C   UNL     1       2.841   8.997  17.516  0.00  0.00    +0.000 A 
ATOM     10  C   UNL     1       3.079   7.646  17.809  0.00  0.00    +0.000 A 
ENDROOT
BRANCH   4  11
ATOM     11  C   UNL     1       2.313   4.652  19.674  0.00  0.00    +0.000 A 
ATOM     12  C   UNL     1       1.381   3.760  19.123  0.00  0.00    +0.000 A 
ATOM     13  C   UNL     1       0.902   2.690  19.884  0.00  0.00    +0.000 A 
ATOM     14  C   UNL     1       1.318   2.528  21.205  0.00  0.00    +0.000 A 
ATOM     15  C   UNL     1       2.216   3.434  21.769  0.00  0.00    +0.000 A 
ATOM     16  C   UNL     1       2.721   4.490  21.005  0.00  0.00    +0.000 A 
ENDBRANCH   4  11
BRANCH   7  17
ATOM     17  N   UNL     1       0.532   9.924  20.301  0.00  0.00    +0.000 N 
ATOM     18  C   UNL     1       0.559   9.756  21.748  0.00  0.00    +0.000 C 
ATOM     19  C   UNL     1      -0.666  10.543  22.172  0.00  0.00    +0.000 C 
ATOM     20  C   UNL     1      -0.624  11.818  21.309  0.00  0.00    +0.000 C 
ATOM     21  C   UNL     1       0.102  11.301  20.009  0.00  0.00    +0.000 C 
BRANCH  20  22
ATOM     22  N   UNL     1       0.060  12.974  21.945  0.00  0.00    +0.000 NA
ATOM     23  C   UNL     1       0.534  13.969  20.947  0.00  0.00    +0.000 C 
ATOM     24  C   UNL     1      -0.573  14.851  20.314  0.00  0.00    +0.000 C 
ATOM     25  N   UNL     1      -1.430  15.518  21.299  0.00  0.00    +0.000 NA
ATOM     26  C   UNL     1      -1.909  14.565  22.306  0.00  0.00    +0.000 C 
ATOM     27  C   UNL     1      -0.772  13.719  22.922  0.00  0.00    +0.000 C 
ATOM     28  H   UNL     1      -2.224  15.952  20.830  0.00  0.00    +0.000 HD
ENDBRANCH  20  22
ENDBRANCH   7  17
TORSDOF 3
ENDMDL
MODEL 5
REMARK VINA RESULT:      -7.5      0.951      1.394
REMARK  Name = 
REMARK  4 active torsions:
REMARK  status: ('A' for Active; 'I' for Inactive)
REMARK    1  A    between atoms: C_1  and  C_2
REMARK    2  A    between atoms: N_4  and  C_5
REMARK    3  A    between atoms: C_13  and  N_14
REMARK    4  A    between atoms: C_17  and  N_18
REMARK                            x       y       z     vdW  Elec       q    Type
REMARK                         _______ _______ _______ _____ _____    ______ ____
ROOT
ATOM      1  C   UNL     1       3.171   1.549  19.655  0.00  0.00    +0.000 C 
ATOM      2  C   UNL     1       3.500   2.804  18.939  0.00  0.00    +0.000 A 
ATOM      3  N   UNL     1       4.255   2.784  17.836  0.00  0.00    +0.000 NA
ATOM      4  N   UNL     1       4.419   4.096  17.508  0.00  0.00    +0.000 N 
ATOM      5  C   UNL     1       3.616   4.925  18.282  0.00  0.00    +0.000 A 
ATOM      6  C   UNL     1       3.281   6.292  18.200  0.00  0.00    +0.000 A 
ATOM      7  C   UNL     1       2.394   6.874  19.127  0.00  0.00    +0.000 A 
ATOM      8  C   UNL     1       1.912   6.046  20.148  0.00  0.00    +0.000 A 
ATOM      9  C   UNL     1       2.212   4.675  20.222  0.00  0.00    +0.000 A 
ATOM     10  C   UNL     1       3.050   4.107  19.251  0.00  0.00    +0.000 A 
ENDROOT
BRANCH   4  11
ATOM     11  C   UNL     1       5.320   4.455  16.466  0.00  0.00    +0.000 A 
ATOM     12  C   UNL     1       5.080   3.990  15.163  0.00  0.00    +0.000 A 
ATOM     13  C   UNL     1       5.940   4.349  14.122  0.00  0.00    +0.000 A 
ATOM     14  C   UNL     1       7.062   5.136  14.381  0.00  0.00    +0.000 A 
ATOM     15  C   UNL     1       7.325   5.569  15.680  0.00  0.00    +0.000 A 
ATOM     16  C   UNL     1       6.454   5.238  16.722  0.00  0.00    +0.000 A 
ENDBRANCH   4  11
BRANCH   7  17
ATOM     17  N   UNL     1       2.067   8.216  19.041  0.00  0.00    +0.000 N 
ATOM     18  C   UNL     1       1.754   8.843  17.764  0.00  0.00    +0.000 C 
ATOM     19  C   UNL     1       1.743  10.312  18.139  0.00  0.00    +0.000 C 
ATOM     20  C   UNL     1       1.004  10.363  19.489  0.00  0.00    +0.000 C 
ATOM     21  C   UNL     1       1.358   8.952  20.099  0.00  0.00    +0.000 C 
BRANCH  20  22
ATOM     22  N   UNL     1      -0.458  10.611  19.386  0.00  0.00    +0.000 NA
ATOM     23  C   UNL     1      -1.015  11.217  20.624  0.00  0.00    +0.000 C 
ATOM     24  C   UNL     1      -0.680  12.715  20.837  0.00  0.00    +0.000 C 
ATOM     25  N   UNL     1      -1.010  13.562  19.687  0.00  0.00    +0.000 NA
ATOM     26  C   UNL     1      -0.481  12.988  18.445  0.00  0.00    +0.000 C 
ATOM     27  C   UNL     1      -0.852  11.500  18.265  0.00  0.00    +0.000 C 
ATOM     28  H   UNL     1      -0.628  14.497  19.825  0.00  0.00    +0.000 HD
ENDBRANCH  20  22
ENDBRANCH   7  17
TORSDOF 3
ENDMDL
MODEL 6
REMARK VINA RESULT:      -7.5      1.987      4.307
REMARK  Name = 
REMARK  4 active torsions:
REMARK  status: ('A' for Active; 'I' for Inactive)
REMARK    1  A    between atoms: C_1  and  C_2
REMARK    2  A    between atoms: N_4  and  C_5
REMARK    3  A    between atoms: C_13  and  N_14
REMARK    4  A    between atoms: C_17  and  N_18
REMARK                            x       y       z     vdW  Elec       q    Type
REMARK                         _______ _______ _______ _____ _____    ______ ____
ROOT
ATOM      1  C   UNL     1       4.741   6.775  16.201  0.00  0.00    +0.000 C 
ATOM      2  C   UNL     1       3.910   6.570  17.412  0.00  0.00    +0.000 A 
ATOM      3  N   UNL     1       3.998   5.438  18.118  0.00  0.00    +0.000 NA
ATOM      4  N   UNL     1       3.048   5.563  19.087  0.00  0.00    +0.000 N 
ATOM      5  C   UNL     1       2.502   6.842  19.111  0.00  0.00    +0.000 A 
ATOM      6  C   UNL     1       1.660   7.512  20.021  0.00  0.00    +0.000 A 
ATOM      7  C   UNL     1       1.281   8.851  19.801  0.00  0.00    +0.000 A 
ATOM      8  C   UNL     1       1.738   9.454  18.622  0.00  0.00    +0.000 A 
ATOM      9  C   UNL     1       2.604   8.807  17.724  0.00  0.00    +0.000 A 
ATOM     10  C   UNL     1       3.014   7.493  17.997  0.00  0.00    +0.000 A 
ENDROOT
BRANCH   4  11
ATOM     11  C   UNL     1       2.749   4.455  19.927  0.00  0.00    +0.000 A 
ATOM     12  C   UNL     1       1.481   4.371  20.524  0.00  0.00    +0.000 A 
ATOM     13  C   UNL     1       1.160   3.279  21.334  0.00  0.00    +0.000 A 
ATOM     14  C   UNL     1       2.110   2.291  21.587  0.00  0.00    +0.000 A 
ATOM     15  C   UNL     1       3.384   2.389  21.028  0.00  0.00    +0.000 A 
ATOM     16  C   UNL     1       3.703   3.464  20.192  0.00  0.00    +0.000 A 
ENDBRANCH   4  11
BRANCH   7  17
ATOM     17  N   UNL     1       0.456   9.506  20.698  0.00  0.00    +0.000 N 
ATOM     18  C   UNL     1       0.805   9.622  22.108  0.00  0.00    +0.000 C 
ATOM     19  C   UNL     1      -0.488  10.147  22.701  0.00  0.00    +0.000 C 
ATOM     20  C   UNL     1      -0.973  11.209  21.697  0.00  0.00    +0.000 C 
ATOM     21  C   UNL     1      -0.391  10.654  20.341  0.00  0.00    +0.000 C 
BRANCH  20  22
ATOM     22  N   UNL     1      -0.534  12.596  22.003  0.00  0.00    +0.000 NA
ATOM     23  C   UNL     1      -0.790  13.530  20.875  0.00  0.00    +0.000 C 
ATOM     24  C   UNL     1      -2.271  13.941  20.678  0.00  0.00    +0.000 C 
ATOM     25  N   UNL     1      -2.906  14.459  21.894  0.00  0.00    +0.000 NA
ATOM     26  C   UNL     1      -2.666  13.563  23.031  0.00  0.00    +0.000 C 
ATOM     27  C   UNL     1      -1.175  13.193  23.200  0.00  0.00    +0.000 C 
ATOM     28  H   UNL     1      -3.908  14.563  21.744  0.00  0.00    +0.000 HD
ENDBRANCH  20  22
ENDBRANCH   7  17
TORSDOF 3
ENDMDL
MODEL 7
REMARK VINA RESULT:      -7.4      1.641      2.248
REMARK  Name = 
REMARK  4 active torsions:
REMARK  status: ('A' for Active; 'I' for Inactive)
REMARK    1  A    between atoms: C_1  and  C_2
REMARK    2  A    between atoms: N_4  and  C_5
REMARK    3  A    between atoms: C_13  and  N_14
REMARK    4  A    between atoms: C_17  and  N_18
REMARK                            x       y       z     vdW  Elec       q    Type
REMARK                         _______ _______ _______ _____ _____    ______ ____
ROOT
ATOM      1  C   UNL     1       2.794   1.733  18.569  0.00  0.00    +0.000 C 
ATOM      2  C   UNL     1       3.191   3.148  18.765  0.00  0.00    +0.000 A 
ATOM      3  N   UNL     1       4.315   3.624  18.220  0.00  0.00    +0.000 NA
ATOM      4  N   UNL     1       4.400   4.906  18.674  0.00  0.00    +0.000 N 
ATOM      5  C   UNL     1       3.243   5.295  19.340  0.00  0.00    +0.000 A 
ATOM      6  C   UNL     1       2.771   6.539  19.803  0.00  0.00    +0.000 A 
ATOM      7  C   UNL     1       1.515   6.645  20.432  0.00  0.00    +0.000 A 
ATOM      8  C   UNL     1       0.795   5.458  20.614  0.00  0.00    +0.000 A 
ATOM      9  C   UNL     1       1.240   4.217  20.128  0.00  0.00    +0.000 A 
ATOM     10  C   UNL     1       2.468   4.149  19.453  0.00  0.00    +0.000 A 
ENDROOT
BRANCH   4  11
ATOM     11  C   UNL     1       5.576   5.667  18.421  0.00  0.00    +0.000 A 
ATOM     12  C   UNL     1       6.700   5.484  19.241  0.00  0.00    +0.000 A 
ATOM     13  C   UNL     1       7.871   6.205  18.996  0.00  0.00    +0.000 A 
ATOM     14  C   UNL     1       7.915   7.138  17.960  0.00  0.00    +0.000 A 
ATOM     15  C   UNL     1       6.788   7.351  17.166  0.00  0.00    +0.000 A 
ATOM     16  C   UNL     1       5.622   6.613  17.388  0.00  0.00    +0.000 A 
ENDBRANCH   4  11
BRANCH   7  17
ATOM     17  N   UNL     1       1.054   7.870  20.883  0.00  0.00    +0.000 N 
ATOM     18  C   UNL     1       1.741   8.599  21.941  0.00  0.00    +0.000 C 
ATOM     19  C   UNL     1       0.739   9.691  22.262  0.00  0.00    +0.000 C 
ATOM     20  C   UNL     1       0.227  10.162  20.888  0.00  0.00    +0.000 C 
ATOM     21  C   UNL     1       0.364   8.848  20.028  0.00  0.00    +0.000 C 
BRANCH  20  22
ATOM     22  N   UNL     1       0.964  11.320  20.316  0.00  0.00    +0.000 NA
ATOM     23  C   UNL     1       0.710  11.488  18.861  0.00  0.00    +0.000 C 
ATOM     24  C   UNL     1      -0.679  12.069  18.494  0.00  0.00    +0.000 C 
ATOM     25  N   UNL     1      -0.998  13.318  19.192  0.00  0.00    +0.000 NA
ATOM     26  C   UNL     1      -0.751  13.190  20.632  0.00  0.00    +0.000 C 
ATOM     27  C   UNL     1       0.650  12.623  20.953  0.00  0.00    +0.000 C 
ATOM     28  H   UNL     1      -1.974  13.566  19.031  0.00  0.00    +0.000 HD
ENDBRANCH  20  22
ENDBRANCH   7  17
TORSDOF 3
ENDMDL
MODEL 8
REMARK VINA RESULT:      -7.3      1.396      1.627
REMARK  Name = 
REMARK  4 active torsions:
REMARK  status: ('A' for Active; 'I' for Inactive)
REMARK    1  A    between atoms: C_1  and  C_2
REMARK    2  A    between atoms: N_4  and  C_5
REMARK    3  A    between atoms: C_13  and  N_14
REMARK    4  A    between atoms: C_17  and  N_18
REMARK                            x       y       z     vdW  Elec       q    Type
REMARK                         _______ _______ _______ _____ _____    ______ ____
ROOT
ATOM      1  C   UNL     1       2.454   1.454  19.260  0.00  0.00    +0.000 C 
ATOM      2  C   UNL     1       2.964   2.720  18.681  0.00  0.00    +0.000 A 
ATOM      3  N   UNL     1       3.830   2.706  17.663  0.00  0.00    +0.000 NA
ATOM      4  N   UNL     1       4.139   4.017  17.457  0.00  0.00    +0.000 N 
ATOM      5  C   UNL     1       3.329   4.862  18.208  0.00  0.00    +0.000 A 
ATOM      6  C   UNL     1       3.122   6.256  18.200  0.00  0.00    +0.000 A 
ATOM      7  C   UNL     1       2.192   6.852  19.074  0.00  0.00    +0.000 A 
ATOM      8  C   UNL     1       1.533   6.004  19.973  0.00  0.00    +0.000 A 
ATOM      9  C   UNL     1       1.707   4.609  19.969  0.00  0.00    +0.000 A 
ATOM     10  C   UNL     1       2.595   4.034  19.047  0.00  0.00    +0.000 A 
ENDROOT
BRANCH   4  11
ATOM     11  C   UNL     1       5.175   4.362  16.544  0.00  0.00    +0.000 A 
ATOM     12  C   UNL     1       6.327   5.002  17.025  0.00  0.00    +0.000 A 
ATOM     13  C   UNL     1       7.364   5.330  16.149  0.00  0.00    +0.000 A 
ATOM     14  C   UNL     1       7.242   5.059  14.786  0.00  0.00    +0.000 A 
ATOM     15  C   UNL     1       6.083   4.458  14.297  0.00  0.00    +0.000 A 
ATOM     16  C   UNL     1       5.052   4.101  15.172  0.00  0.00    +0.000 A 
ENDBRANCH   4  11
BRANCH   7  17
ATOM     17  N   UNL     1       1.991   8.221  19.061  0.00  0.00    +0.000 N 
ATOM     18  C   UNL     1       1.481   8.904  17.880  0.00  0.00    +0.000 C 
ATOM     19  C   UNL     1       1.697  10.359  18.250  0.00  0.00    +0.000 C 
ATOM     20  C   UNL     1       1.267  10.451  19.726  0.00  0.00    +0.000 C 
ATOM     21  C   UNL     1       1.597   8.999  20.246  0.00  0.00    +0.000 C 
BRANCH  20  22
ATOM     22  N   UNL     1      -0.151  10.843  19.935  0.00  0.00    +0.000 NA
ATOM     23  C   UNL     1      -0.788  10.089  21.046  0.00  0.00    +0.000 C 
ATOM     24  C   UNL     1      -0.360  10.520  22.472  0.00  0.00    +0.000 C 
ATOM     25  N   UNL     1      -0.498  11.960  22.717  0.00  0.00    +0.000 NA
ATOM     26  C   UNL     1       0.114  12.736  21.633  0.00  0.00    +0.000 C 
ATOM     27  C   UNL     1      -0.353  12.283  20.232  0.00  0.00    +0.000 C 
ATOM     28  H   UNL     1      -0.060  12.203  23.605  0.00  0.00    +0.000 HD
ENDBRANCH  20  22
ENDBRANCH   7  17
TORSDOF 3
ENDMDL
MODEL 9
REMARK VINA RESULT:      -7.0      1.898      2.405
REMARK  Name = 
REMARK  4 active torsions:
REMARK  status: ('A' for Active; 'I' for Inactive)
REMARK    1  A    between atoms: C_1  and  C_2
REMARK    2  A    between atoms: N_4  and  C_5
REMARK    3  A    between atoms: C_13  and  N_14
REMARK    4  A    between atoms: C_17  and  N_18
REMARK                            x       y       z     vdW  Elec       q    Type
REMARK                         _______ _______ _______ _____ _____    ______ ____
ROOT
ATOM      1  C   UNL     1       2.197   3.709  21.566  0.00  0.00    +0.000 C 
ATOM      2  C   UNL     1       2.450   4.694  20.488  0.00  0.00    +0.000 A 
ATOM      3  N   UNL     1       3.096   4.336  19.374  0.00  0.00    +0.000 NA
ATOM      4  N   UNL     1       3.222   5.492  18.663  0.00  0.00    +0.000 N 
ATOM      5  C   UNL     1       2.493   6.529  19.234  0.00  0.00    +0.000 A 
ATOM      6  C   UNL     1       2.145   7.821  18.788  0.00  0.00    +0.000 A 
ATOM      7  C   UNL     1       1.349   8.668  19.584  0.00  0.00    +0.000 A 
ATOM      8  C   UNL     1       0.970   8.184  20.842  0.00  0.00    +0.000 A 
ATOM      9  C   UNL     1       1.282   6.887  21.284  0.00  0.00    +0.000 A 
ATOM     10  C   UNL     1       2.026   6.042  20.447  0.00  0.00    +0.000 A 
ENDROOT
BRANCH   4  11
ATOM     11  C   UNL     1       4.017   5.512  17.483  0.00  0.00    +0.000 A 
ATOM     12  C   UNL     1       4.360   4.297  16.869  0.00  0.00    +0.000 A 
ATOM     13  C   UNL     1       5.121   4.296  15.697  0.00  0.00    +0.000 A 
ATOM     14  C   UNL     1       5.578   5.498  15.157  0.00  0.00    +0.000 A 
ATOM     15  C   UNL     1       5.272   6.704  15.785  0.00  0.00    +0.000 A 
ATOM     16  C   UNL     1       4.487   6.716  16.942  0.00  0.00    +0.000 A 
ENDBRANCH   4  11
BRANCH   7  17
ATOM     17  N   UNL     1       1.009   9.934  19.141  0.00  0.00    +0.000 N 
ATOM     18  C   UNL     1      -0.353  10.440  19.254  0.00  0.00    +0.000 C 
ATOM     19  C   UNL     1      -0.283  11.699  18.411  0.00  0.00    +0.000 C 
ATOM     20  C   UNL     1       1.063  12.345  18.791  0.00  0.00    +0.000 C 
ATOM     21  C   UNL     1       1.927  11.083  19.171  0.00  0.00    +0.000 C 
BRANCH  20  22
ATOM     22  N   UNL     1       0.979  13.352  19.882  0.00  0.00    +0.000 NA
ATOM     23  C   UNL     1       2.269  13.509  20.604  0.00  0.00    +0.000 C 
ATOM     24  C   UNL     1       3.367  14.291  19.838  0.00  0.00    +0.000 C 
ATOM     25  N   UNL     1       2.922  15.597  19.342  0.00  0.00    +0.000 NA
ATOM     26  C   UNL     1       1.645  15.480  18.630  0.00  0.00    +0.000 C 
ATOM     27  C   UNL     1       0.576  14.709  19.436  0.00  0.00    +0.000 C 
ATOM     28  H   UNL     1       3.628  15.991  18.721  0.00  0.00    +0.000 HD
ENDBRANCH  20  22
ENDBRANCH   7  17
TORSDOF 3
ENDMDL
