MODEL 1
REMARK VINA RESULT:      -8.2      0.000      0.000
REMARK  Name = 
REMARK  8 active torsions:
REMARK  status: ('A' for Active; 'I' for Inactive)
REMARK    1  A    between atoms: C_1  and  C_2
REMARK    2  A    between atoms: C_2  and  C_3
REMARK    3  A    between atoms: C_10  and  C_11
REMARK    4  A    between atoms: C_12  and  C_13
REMARK    5  A    between atoms: C_13  and  C_14
REMARK    6  A    between atoms: C_13  and  C_15
REMARK    7  A    between atoms: C_17  and  O_18
REMARK    8  A    between atoms: C_20  and  C_21
REMARK                            x       y       z     vdW  Elec       q    Type
REMARK                         _______ _______ _______ _____ _____    ______ ____
ROOT
ATOM      1  C   UNL     1       1.897   7.111  20.274  0.00  0.00    +0.000 C 
ATOM      2  C   UNL     1       1.236   7.931  20.855  0.00  0.00    +0.000 C 
ENDROOT
BRANCH   1  10
ATOM      3  C   UNL     1       2.845   4.874  19.915  0.00  0.00    +0.000 A 
ATOM      4  N   UNL     1       3.615   4.005  19.222  0.00  0.00    +0.000 NA
ATOM      5  C   UNL     1       4.219   4.467  18.125  0.00  0.00    +0.000 A 
ATOM      6  N   UNL     1       5.017   3.586  17.424  0.00  0.00    +0.000 N 
ATOM      7  N   UNL     1       4.098   5.707  17.644  0.00  0.00    +0.000 NA
ATOM      8  C   UNL     1       3.331   6.558  18.343  0.00  0.00    +0.000 A 
ATOM      9  N   UNL     1       3.196   7.838  17.795  0.00  0.00    +0.000 N 
ATOM     10  C   UNL     1       2.664   6.185  19.503  0.00  0.00    +0.000 A 
ATOM     11  H   UNL     1       4.714   2.638  17.598  0.00  0.00    +0.000 HD
ATOM     12  H   UNL     1       5.097   3.881  16.462  0.00  0.00    +0.000 HD
ATOM     13  H   UNL     1       3.864   7.935  17.036  0.00  0.00    +0.000 HD
ATOM     14  H   UNL     1       3.267   8.575  18.488  0.00  0.00    +0.000 HD
BRANCH   3  16
ATOM     15  C   UNL     1       1.250   3.233  20.945  0.00  0.00    +0.000 C 
ATOM     16  C   UNL     1       2.250   4.352  21.202  0.00  0.00    +0.000 C 
ENDBRANCH   3  16
ENDBRANCH   1  10
BRANCH   2  17
ATOM     17  C   UNL     1       0.391   8.928  21.527  0.00  0.00    +0.000 C 
ATOM     18  C   UNL     1       1.004   9.302  22.881  0.00  0.00    +0.000 C 
BRANCH  17  19
ATOM     19  C   UNL     1       0.167  10.105  20.596  0.00  0.00    +0.000 A 
ATOM     20  C   UNL     1       0.976  11.247  20.607  0.00  0.00    +0.000 A 
ATOM     21  C   UNL     1       0.748  12.262  19.686  0.00  0.00    +0.000 A 
ATOM     22  C   UNL     1      -0.266  12.160  18.740  0.00  0.00    +0.000 A 
ATOM     23  C   UNL     1      -1.082  11.021  18.674  0.00  0.00    +0.000 A 
ATOM     24  C   UNL     1      -0.841  10.003  19.617  0.00  0.00    +0.000 A 
BRANCH  23  25
ATOM     25  C   UNL     1      -2.136  10.879  17.646  0.00  0.00    +0.000 A 
ATOM     26  C   UNL     1      -1.981  10.014  16.555  0.00  0.00    +0.000 A 
ATOM     27  C   UNL     1      -3.001   9.905  15.621  0.00  0.00    +0.000 A 
ATOM     28  N   UNL     1      -4.163  10.583  15.694  0.00  0.00    +0.000 NA
ATOM     29  C   UNL     1      -4.308  11.409  16.749  0.00  0.00    +0.000 A 
ATOM     30  C   UNL     1      -3.341  11.592  17.725  0.00  0.00    +0.000 A 
ENDBRANCH  23  25
BRANCH  21  31
ATOM     31  O   UNL     1       1.517  13.389  19.670  0.00  0.00    +0.000 OA
ATOM     32  H   UNL     1       2.368  13.194  20.096  0.00  0.00    +0.000 HD
ENDBRANCH  21  31
ENDBRANCH  17  19
ENDBRANCH   2  17
TORSDOF 6
ENDMDL
MODEL 2
REMARK VINA RESULT:      -8.0      3.871      7.021
REMARK  Name = 
REMARK  8 active torsions:
REMARK  status: ('A' for Active; 'I' for Inactive)
REMARK    1  A    between atoms: C_1  and  C_2
REMARK    2  A    between atoms: C_2  and  C_3
REMARK    3  A    between atoms: C_10  and  C_11
REMARK    4  A    between atoms: C_12  and  C_13
REMARK    5  A    between atoms: C_13  and  C_14
REMARK    6  A    between atoms: C_13  and  C_15
REMARK    7  A    between atoms: C_17  and  O_18
REMARK    8  A    between atoms: C_20  and  C_21
REMARK                            x       y       z     vdW  Elec       q    Type
REMARK                         _______ _______ _______ _____ _____    ______ ____
ROOT
ATOM      1  C   UNL     1       4.868   3.848  16.203  0.00  0.00    +0.000 C 
ATOM      2  C   UNL     1       4.042   3.291  16.875  0.00  0.00    +0.000 C 
ENDROOT
BRANCH   1  10
ATOM      3  C   UNL     1       5.913   4.145  14.000  0.00  0.00    +0.000 A 
ATOM      4  N   UNL     1       6.881   4.646  13.200  0.00  0.00    +0.000 NA
ATOM      5  C   UNL     1       7.808   5.417  13.774  0.00  0.00    +0.000 A 
ATOM      6  N   UNL     1       8.805   5.917  12.962  0.00  0.00    +0.000 N 
ATOM      7  N   UNL     1       7.835   5.756  15.065  0.00  0.00    +0.000 NA
ATOM      8  C   UNL     1       6.868   5.250  15.847  0.00  0.00    +0.000 A 
ATOM      9  N   UNL     1       6.903   5.652  17.186  0.00  0.00    +0.000 N 
ATOM     10  C   UNL     1       5.860   4.430  15.355  0.00  0.00    +0.000 A 
ATOM     11  H   UNL     1       8.475   5.970  12.008  0.00  0.00    +0.000 HD
ATOM     12  H   UNL     1       9.195   6.755  13.368  0.00  0.00    +0.000 HD
ATOM     13  H   UNL     1       7.783   6.130  17.356  0.00  0.00    +0.000 HD
ATOM     14  H   UNL     1       6.731   4.890  17.832  0.00  0.00    +0.000 HD
BRANCH   3  16
ATOM     15  C   UNL     1       4.927   3.360  11.830  0.00  0.00    +0.000 C 
ATOM     16  C   UNL     1       4.933   3.200  13.344  0.00  0.00    +0.000 C 
ENDBRANCH   3  16
ENDBRANCH   1  10
BRANCH   2  17
ATOM     17  C   UNL     1       3.064   2.566  17.700  0.00  0.00    +0.000 C 
ATOM     18  C   UNL     1       3.632   1.200  18.099  0.00  0.00    +0.000 C 
BRANCH  17  19
ATOM     19  C   UNL     1       2.653   3.438  18.872  0.00  0.00    +0.000 A 
ATOM     20  C   UNL     1       2.554   2.954  20.181  0.00  0.00    +0.000 A 
ATOM     21  C   UNL     1       2.227   3.823  21.215  0.00  0.00    +0.000 A 
ATOM     22  C   UNL     1       2.007   5.175  20.975  0.00  0.00    +0.000 A 
ATOM     23  C   UNL     1       2.125   5.709  19.682  0.00  0.00    +0.000 A 
ATOM     24  C   UNL     1       2.452   4.814  18.646  0.00  0.00    +0.000 A 
BRANCH  23  25
ATOM     25  C   UNL     1       1.937   7.152  19.417  0.00  0.00    +0.000 A 
ATOM     26  C   UNL     1       2.266   7.717  18.178  0.00  0.00    +0.000 A 
ATOM     27  C   UNL     1       2.063   9.073  17.972  0.00  0.00    +0.000 A 
ATOM     28  N   UNL     1       1.552   9.906  18.898  0.00  0.00    +0.000 NA
ATOM     29  C   UNL     1       1.234   9.356  20.087  0.00  0.00    +0.000 A 
ATOM     30  C   UNL     1       1.411   8.016  20.389  0.00  0.00    +0.000 A 
ENDBRANCH  23  25
BRANCH  21  31
ATOM     31  O   UNL     1       2.121   3.385  22.502  0.00  0.00    +0.000 OA
ATOM     32  H   UNL     1       1.188   3.415  22.768  0.00  0.00    +0.000 HD
ENDBRANCH  21  31
ENDBRANCH  17  19
ENDBRANCH   2  17
TORSDOF 6
ENDMDL
MODEL 3
REMARK VINA RESULT:      -8.0      0.447      1.005
REMARK  Name = 
REMARK  8 active torsions:
REMARK  status: ('A' for Active; 'I' for Inactive)
REMARK    1  A    between atoms: C_1  and  C_2
REMARK    2  A    between atoms: C_2  and  C_3
REMARK    3  A    between atoms: C_10  and  C_11
REMARK    4  A    between atoms: C_12  and  C_13
REMARK    5  A    between atoms: C_13  and  C_14
REMARK    6  A    between atoms: C_13  and  C_15
REMARK    7  A    between atoms: C_17  and  O_18
REMARK    8  A    between atoms: C_20  and  C_21
REMARK                            x       y       z     vdW  Elec       q    Type
REMARK                         _______ _______ _______ _____ _____    ______ ____
ROOT
ATOM      1  C   UNL     1       1.892   7.036  19.969  0.00  0.00    +0.000 C 
ATOM      2  C   UNL     1       1.320   7.871  20.618  0.00  0.00    +0.000 C 
ENDROOT
BRANCH   1  10
ATOM      3  C   UNL     1       2.399   4.655  19.646  0.00  0.00    +0.000 A 
ATOM      4  N   UNL     1       3.054   3.652  19.017  0.00  0.00    +0.000 NA
ATOM      5  C   UNL     1       3.867   3.991  18.013  0.00  0.00    +0.000 A 
ATOM      6  N   UNL     1       4.546   2.971  17.379  0.00  0.00    +0.000 N 
ATOM      7  N   UNL     1       4.059   5.233  17.563  0.00  0.00    +0.000 NA
ATOM      8  C   UNL     1       3.404   6.218  18.199  0.00  0.00    +0.000 A 
ATOM      9  N   UNL     1       3.599   7.503  17.682  0.00  0.00    +0.000 N 
ATOM     10  C   UNL     1       2.540   5.979  19.261  0.00  0.00    +0.000 A 
ATOM     11  H   UNL     1       4.037   2.103  17.484  0.00  0.00    +0.000 HD
ATOM     12  H   UNL     1       4.799   3.252  16.443  0.00  0.00    +0.000 HD
ATOM     13  H   UNL     1       4.358   7.467  17.009  0.00  0.00    +0.000 HD
ATOM     14  H   UNL     1       3.735   8.203  18.403  0.00  0.00    +0.000 HD
BRANCH   3  16
ATOM     15  C   UNL     1       2.209   3.125  21.626  0.00  0.00    +0.000 C 
ATOM     16  C   UNL     1       1.561   4.255  20.837  0.00  0.00    +0.000 C 
ENDBRANCH   3  16
ENDBRANCH   1  10
BRANCH   2  17
ATOM     17  C   UNL     1       0.641   8.871  21.457  0.00  0.00    +0.000 C 
ATOM     18  C   UNL     1       1.494   9.178  22.692  0.00  0.00    +0.000 C 
BRANCH  17  19
ATOM     19  C   UNL     1       0.301  10.085  20.613  0.00  0.00    +0.000 A 
ATOM     20  C   UNL     1       1.007  11.291  20.698  0.00  0.00    +0.000 A 
ATOM     21  C   UNL     1       0.677  12.343  19.853  0.00  0.00    +0.000 A 
ATOM     22  C   UNL     1      -0.338  12.219  18.912  0.00  0.00    +0.000 A 
ATOM     23  C   UNL     1      -1.052  11.019  18.773  0.00  0.00    +0.000 A 
ATOM     24  C   UNL     1      -0.709   9.963  19.639  0.00  0.00    +0.000 A 
BRANCH  23  25
ATOM     25  C   UNL     1      -2.105  10.856  17.747  0.00  0.00    +0.000 A 
ATOM     26  C   UNL     1      -3.309  11.570  17.814  0.00  0.00    +0.000 A 
ATOM     27  C   UNL     1      -4.264  11.392  16.824  0.00  0.00    +0.000 A 
ATOM     28  N   UNL     1      -4.110  10.567  15.771  0.00  0.00    +0.000 NA
ATOM     29  C   UNL     1      -2.948   9.887  15.709  0.00  0.00    +0.000 A 
ATOM     30  C   UNL     1      -1.942   9.990  16.656  0.00  0.00    +0.000 A 
ENDBRANCH  23  25
BRANCH  21  31
ATOM     31  O   UNL     1       1.344  13.532  19.910  0.00  0.00    +0.000 OA
ATOM     32  H   UNL     1       1.978  13.570  19.175  0.00  0.00    +0.000 HD
ENDBRANCH  21  31
ENDBRANCH  17  19
ENDBRANCH   2  17
TORSDOF 6
ENDMDL
MODEL 4
REMARK VINA RESULT:      -8.0      3.950      6.739
REMARK  Name = 
REMARK  8 active torsions:
REMARK  status: ('A' for Active; 'I' for Inactive)
REMARK    1  A    between atoms: C_1  and  C_2
REMARK    2  A    between atoms: C_2  and  C_3
REMARK    3  A    between atoms: C_10  and  C_11
REMARK    4  A    between atoms: C_12  and  C_13
REMARK    5  A    between atoms: C_13  and  C_14
REMARK    6  A    between atoms: C_13  and  C_15
REMARK    7  A    between atoms: C_17  and  O_18
REMARK    8  A    between atoms: C_20  and  C_21
REMARK                            x       y       z     vdW  Elec       q    Type
REMARK                         _______ _______ _______ _____ _____    ______ ____
ROOT
ATOM      1  C   UNL     1       4.734   3.927  16.088  0.00  0.00    +0.000 C 
ATOM      2  C   UNL     1       3.852   3.439  16.742  0.00  0.00    +0.000 C 
ENDROOT
BRANCH   1  10
ATOM      3  C   UNL     1       6.795   5.250  15.892  0.00  0.00    +0.000 A 
ATOM      4  N   UNL     1       7.807   5.774  15.165  0.00  0.00    +0.000 NA
ATOM      5  C   UNL     1       7.835   5.486  13.861  0.00  0.00    +0.000 A 
ATOM      6  N   UNL     1       8.859   6.032  13.115  0.00  0.00    +0.000 N 
ATOM      7  N   UNL     1       6.962   4.697  13.229  0.00  0.00    +0.000 NA
ATOM      8  C   UNL     1       5.962   4.185  13.963  0.00  0.00    +0.000 A 
ATOM      9  N   UNL     1       5.086   3.336  13.279  0.00  0.00    +0.000 N 
ATOM     10  C   UNL     1       5.833   4.428  15.325  0.00  0.00    +0.000 A 
ATOM     11  H   UNL     1       9.651   6.227  13.712  0.00  0.00    +0.000 HD
ATOM     12  H   UNL     1       9.023   5.473  12.290  0.00  0.00    +0.000 HD
ATOM     13  H   UNL     1       5.280   3.407  12.285  0.00  0.00    +0.000 HD
ATOM     14  H   UNL     1       4.113   3.503  13.511  0.00  0.00    +0.000 HD
BRANCH   3  16
ATOM     15  C   UNL     1       7.476   6.975  17.581  0.00  0.00    +0.000 C 
ATOM     16  C   UNL     1       6.733   5.668  17.342  0.00  0.00    +0.000 C 
ENDBRANCH   3  16
ENDBRANCH   1  10
BRANCH   2  17
ATOM     17  C   UNL     1       2.808   2.825  17.577  0.00  0.00    +0.000 C 
ATOM     18  C   UNL     1       3.223   1.401  17.962  0.00  0.00    +0.000 C 
BRANCH  17  19
ATOM     19  C   UNL     1       2.514   3.732  18.758  0.00  0.00    +0.000 A 
ATOM     20  C   UNL     1       2.523   3.280  20.083  0.00  0.00    +0.000 A 
ATOM     21  C   UNL     1       2.301   4.179  21.118  0.00  0.00    +0.000 A 
ATOM     22  C   UNL     1       2.080   5.529  20.864  0.00  0.00    +0.000 A 
ATOM     23  C   UNL     1       2.091   6.029  19.554  0.00  0.00    +0.000 A 
ATOM     24  C   UNL     1       2.313   5.105  18.515  0.00  0.00    +0.000 A 
BRANCH  23  25
ATOM     25  C   UNL     1       1.901   7.468  19.270  0.00  0.00    +0.000 A 
ATOM     26  C   UNL     1       2.242   8.020  18.028  0.00  0.00    +0.000 A 
ATOM     27  C   UNL     1       2.036   9.373  17.803  0.00  0.00    +0.000 A 
ATOM     28  N   UNL     1       1.512  10.215  18.714  0.00  0.00    +0.000 NA
ATOM     29  C   UNL     1       1.182   9.678  19.906  0.00  0.00    +0.000 A 
ATOM     30  C   UNL     1       1.360   8.341  20.225  0.00  0.00    +0.000 A 
ENDBRANCH  23  25
BRANCH  21  31
ATOM     31  O   UNL     1       2.303   3.774  22.420  0.00  0.00    +0.000 OA
ATOM     32  H   UNL     1       2.838   4.394  22.941  0.00  0.00    +0.000 HD
ENDBRANCH  21  31
ENDBRANCH  17  19
ENDBRANCH   2  17
TORSDOF 6
ENDMDL
MODEL 5
REMARK VINA RESULT:      -7.8      0.757      2.202
REMARK  Name = 
REMARK  8 active torsions:
REMARK  status: ('A' for Active; 'I' for Inactive)
REMARK    1  A    between atoms: C_1  and  C_2
REMARK    2  A    between atoms: C_2  and  C_3
REMARK    3  A    between atoms: C_10  and  C_11
REMARK    4  A    between atoms: C_12  and  C_13
REMARK    5  A    between atoms: C_13  and  C_14
REMARK    6  A    between atoms: C_13  and  C_15
REMARK    7  A    between atoms: C_17  and  O_18
REMARK    8  A    between atoms: C_20  and  C_21
REMARK                            x       y       z     vdW  Elec       q    Type
REMARK                         _______ _______ _______ _____ _____    ______ ____
ROOT
ATOM      1  C   UNL     1       1.804   7.077  20.482  0.00  0.00    +0.000 C 
ATOM      2  C   UNL     1       1.151   7.921  21.037  0.00  0.00    +0.000 C 
ENDROOT
BRANCH   1  10
ATOM      3  C   UNL     1       3.232   6.486  18.573  0.00  0.00    +0.000 A 
ATOM      4  N   UNL     1       3.929   5.587  17.842  0.00  0.00    +0.000 NA
ATOM      5  C   UNL     1       3.957   4.328  18.289  0.00  0.00    +0.000 A 
ATOM      6  N   UNL     1       4.656   3.407  17.537  0.00  0.00    +0.000 N 
ATOM      7  N   UNL     1       3.378   3.898  19.412  0.00  0.00    +0.000 NA
ATOM      8  C   UNL     1       2.689   4.801  20.126  0.00  0.00    +0.000 A 
ATOM      9  N   UNL     1       2.125   4.327  21.315  0.00  0.00    +0.000 N 
ATOM     10  C   UNL     1       2.588   6.134  19.749  0.00  0.00    +0.000 A 
ATOM     11  H   UNL     1       5.370   3.877  16.996  0.00  0.00    +0.000 HD
ATOM     12  H   UNL     1       4.945   2.633  18.118  0.00  0.00    +0.000 HD
ATOM     13  H   UNL     1       2.202   3.314  21.326  0.00  0.00    +0.000 HD
ATOM     14  H   UNL     1       1.178   4.658  21.463  0.00  0.00    +0.000 HD
BRANCH   3  16
ATOM     15  C   UNL     1       1.712   8.222  17.588  0.00  0.00    +0.000 C 
ATOM     16  C   UNL     1       3.138   7.879  17.997  0.00  0.00    +0.000 C 
ENDBRANCH   3  16
ENDBRANCH   1  10
BRANCH   2  17
ATOM     17  C   UNL     1       0.324   8.960  21.669  0.00  0.00    +0.000 C 
ATOM     18  C   UNL     1       0.934   9.359  23.017  0.00  0.00    +0.000 C 
BRANCH  17  19
ATOM     19  C   UNL     1       0.139  10.112  20.700  0.00  0.00    +0.000 A 
ATOM     20  C   UNL     1       0.974  11.236  20.688  0.00  0.00    +0.000 A 
ATOM     21  C   UNL     1       0.781  12.227  19.734  0.00  0.00    +0.000 A 
ATOM     22  C   UNL     1      -0.224  12.120  18.778  0.00  0.00    +0.000 A 
ATOM     23  C   UNL     1      -1.065  10.998  18.737  0.00  0.00    +0.000 A 
ATOM     24  C   UNL     1      -0.859  10.004  19.713  0.00  0.00    +0.000 A 
BRANCH  23  25
ATOM     25  C   UNL     1      -2.110  10.849  17.701  0.00  0.00    +0.000 A 
ATOM     26  C   UNL     1      -3.305  11.579  17.755  0.00  0.00    +0.000 A 
ATOM     27  C   UNL     1      -4.252  11.414  16.756  0.00  0.00    +0.000 A 
ATOM     28  N   UNL     1      -4.098  10.586  15.704  0.00  0.00    +0.000 NA
ATOM     29  C   UNL     1      -2.946   9.889  15.655  0.00  0.00    +0.000 A 
ATOM     30  C   UNL     1      -1.947   9.980  16.611  0.00  0.00    +0.000 A 
ENDBRANCH  23  25
BRANCH  21  31
ATOM     31  O   UNL     1       1.576  13.335  19.693  0.00  0.00    +0.000 OA
ATOM     32  H   UNL     1       1.848  13.559  20.598  0.00  0.00    +0.000 HD
ENDBRANCH  21  31
ENDBRANCH  17  19
ENDBRANCH   2  17
TORSDOF 6
ENDMDL
MODEL 6
REMARK VINA RESULT:      -7.8      3.802      8.527
REMARK  Name = 
REMARK  8 active torsions:
REMARK  status: ('A' for Active; 'I' for Inactive)
REMARK    1  A    between atoms: C_1  and  C_2
REMARK    2  A    between atoms: C_2  and  C_3
REMARK    3  A    between atoms: C_10  and  C_11
REMARK    4  A    between atoms: C_12  and  C_13
REMARK    5  A    between atoms: C_13  and  C_14
REMARK    6  A    between atoms: C_13  and  C_15
REMARK    7  A    between atoms: C_17  and  O_18
REMARK    8  A    between atoms: C_20  and  C_21
REMARK                            x       y       z     vdW  Elec       q    Type
REMARK                         _______ _______ _______ _____ _____    ______ ____
ROOT
ATOM      1  C   UNL     1       0.177  10.120  20.091  0.00  0.00    +0.000 C 
ATOM      2  C   UNL     1       0.837   9.628  19.215  0.00  0.00    +0.000 C 
ENDROOT
BRANCH   1  10
ATOM      3  C   UNL     1      -1.527  11.773  20.720  0.00  0.00    +0.000 A 
ATOM      4  N   UNL     1      -2.268  12.427  21.643  0.00  0.00    +0.000 NA
ATOM      5  C   UNL     1      -2.100  12.073  22.920  0.00  0.00    +0.000 A 
ATOM      6  N   UNL     1      -2.844  12.748  23.866  0.00  0.00    +0.000 N 
ATOM      7  N   UNL     1      -1.285  11.107  23.351  0.00  0.00    +0.000 NA
ATOM      8  C   UNL     1      -0.555  10.468  22.422  0.00  0.00    +0.000 A 
ATOM      9  N   UNL     1       0.262   9.439  22.901  0.00  0.00    +0.000 N 
ATOM     10  C   UNL     1      -0.644  10.763  21.067  0.00  0.00    +0.000 A 
ATOM     11  H   UNL     1      -3.686  13.115  23.441  0.00  0.00    +0.000 HD
ATOM     12  H   UNL     1      -2.950  12.180  24.694  0.00  0.00    +0.000 HD
ATOM     13  H   UNL     1       0.277   9.485  23.915  0.00  0.00    +0.000 HD
ATOM     14  H   UNL     1       1.187   9.443  22.485  0.00  0.00    +0.000 HD
BRANCH   3  16
ATOM     15  C   UNL     1      -2.754  11.500  18.548  0.00  0.00    +0.000 C 
ATOM     16  C   UNL     1      -1.665  12.257  19.295  0.00  0.00    +0.000 C 
ENDBRANCH   3  16
ENDBRANCH   1  10
BRANCH   2  17
ATOM     17  C   UNL     1       1.655   9.075  18.125  0.00  0.00    +0.000 C 
ATOM     18  C   UNL     1       2.574  10.164  17.562  0.00  0.00    +0.000 C 
BRANCH  17  19
ATOM     19  C   UNL     1       2.381   7.838  18.621  0.00  0.00    +0.000 A 
ATOM     20  C   UNL     1       1.986   7.133  19.763  0.00  0.00    +0.000 A 
ATOM     21  C   UNL     1       2.663   5.975  20.126  0.00  0.00    +0.000 A 
ATOM     22  C   UNL     1       3.724   5.494  19.366  0.00  0.00    +0.000 A 
ATOM     23  C   UNL     1       4.134   6.153  18.197  0.00  0.00    +0.000 A 
ATOM     24  C   UNL     1       3.440   7.327  17.846  0.00  0.00    +0.000 A 
BRANCH  23  25
ATOM     25  C   UNL     1       5.231   5.630  17.354  0.00  0.00    +0.000 A 
ATOM     26  C   UNL     1       5.164   5.676  15.956  0.00  0.00    +0.000 A 
ATOM     27  C   UNL     1       6.222   5.183  15.206  0.00  0.00    +0.000 A 
ATOM     28  N   UNL     1       7.341   4.657  15.740  0.00  0.00    +0.000 NA
ATOM     29  C   UNL     1       7.401   4.619  17.085  0.00  0.00    +0.000 A 
ATOM     30  C   UNL     1       6.391   5.077  17.916  0.00  0.00    +0.000 A 
ENDBRANCH  23  25
BRANCH  21  31
ATOM     31  O   UNL     1       2.306   5.264  21.234  0.00  0.00    +0.000 OA
ATOM     32  H   UNL     1       1.941   4.409  20.953  0.00  0.00    +0.000 HD
ENDBRANCH  21  31
ENDBRANCH  17  19
ENDBRANCH   2  17
TORSDOF 6
ENDMDL
MODEL 7
REMARK VINA RESULT:      -7.7      2.973      4.196
REMARK  Name = 
REMARK  8 active torsions:
REMARK  status: ('A' for Active; 'I' for Inactive)
REMARK    1  A    between atoms: C_1  and  C_2
REMARK    2  A    between atoms: C_2  and  C_3
REMARK    3  A    between atoms: C_10  and  C_11
REMARK    4  A    between atoms: C_12  and  C_13
REMARK    5  A    between atoms: C_13  and  C_14
REMARK    6  A    between atoms: C_13  and  C_15
REMARK    7  A    between atoms: C_17  and  O_18
REMARK    8  A    between atoms: C_20  and  C_21
REMARK                            x       y       z     vdW  Elec       q    Type
REMARK                         _______ _______ _______ _____ _____    ______ ____
ROOT
ATOM      1  C   UNL     1       2.302   7.641  18.917  0.00  0.00    +0.000 C 
ATOM      2  C   UNL     1       1.658   8.656  18.885  0.00  0.00    +0.000 C 
ENDROOT
BRANCH   1  10
ATOM      3  C   UNL     1       4.069   6.108  18.170  0.00  0.00    +0.000 A 
ATOM      4  N   UNL     1       4.741   4.937  18.250  0.00  0.00    +0.000 NA
ATOM      5  C   UNL     1       4.365   4.083  19.206  0.00  0.00    +0.000 A 
ATOM      6  N   UNL     1       5.040   2.882  19.280  0.00  0.00    +0.000 N 
ATOM      7  N   UNL     1       3.402   4.307  20.103  0.00  0.00    +0.000 NA
ATOM      8  C   UNL     1       2.742   5.472  20.009  0.00  0.00    +0.000 A 
ATOM      9  N   UNL     1       1.764   5.692  20.984  0.00  0.00    +0.000 N 
ATOM     10  C   UNL     1       3.046   6.429  19.048  0.00  0.00    +0.000 A 
ATOM     11  H   UNL     1       5.965   2.984  18.885  0.00  0.00    +0.000 HD
ATOM     12  H   UNL     1       4.971   2.503  20.214  0.00  0.00    +0.000 HD
ATOM     13  H   UNL     1       1.615   4.825  21.492  0.00  0.00    +0.000 HD
ATOM     14  H   UNL     1       0.909   6.085  20.605  0.00  0.00    +0.000 HD
BRANCH   3  16
ATOM     15  C   UNL     1       5.187   6.255  15.928  0.00  0.00    +0.000 C 
ATOM     16  C   UNL     1       4.450   7.014  17.023  0.00  0.00    +0.000 C 
ENDBRANCH   3  16
ENDBRANCH   1  10
BRANCH   2  17
ATOM     17  C   UNL     1       0.896   9.914  18.891  0.00  0.00    +0.000 C 
ATOM     18  C   UNL     1      -0.159   9.887  17.780  0.00  0.00    +0.000 C 
BRANCH  17  19
ATOM     19  C   UNL     1       0.335  10.154  20.280  0.00  0.00    +0.000 A 
ATOM     20  C   UNL     1       0.897   9.592  21.433  0.00  0.00    +0.000 A 
ATOM     21  C   UNL     1       0.366   9.902  22.679  0.00  0.00    +0.000 A 
ATOM     22  C   UNL     1      -0.711  10.773  22.806  0.00  0.00    +0.000 A 
ATOM     23  C   UNL     1      -1.286  11.380  21.679  0.00  0.00    +0.000 A 
ATOM     24  C   UNL     1      -0.739  11.053  20.424  0.00  0.00    +0.000 A 
BRANCH  23  25
ATOM     25  C   UNL     1      -2.404  12.342  21.800  0.00  0.00    +0.000 A 
ATOM     26  C   UNL     1      -3.011  12.606  23.035  0.00  0.00    +0.000 A 
ATOM     27  C   UNL     1      -4.049  13.523  23.102  0.00  0.00    +0.000 A 
ATOM     28  N   UNL     1      -4.522  14.203  22.040  0.00  0.00    +0.000 NA
ATOM     29  C   UNL     1      -3.931  13.948  20.856  0.00  0.00    +0.000 A 
ATOM     30  C   UNL     1      -2.896  13.042  20.689  0.00  0.00    +0.000 A 
ENDBRANCH  23  25
BRANCH  21  31
ATOM     31  O   UNL     1       0.888   9.372  23.822  0.00  0.00    +0.000 OA
ATOM     32  H   UNL     1       0.442   8.530  24.009  0.00  0.00    +0.000 HD
ENDBRANCH  21  31
ENDBRANCH  17  19
ENDBRANCH   2  17
TORSDOF 6
ENDMDL
MODEL 8
REMARK VINA RESULT:      -7.6      3.860      8.173
REMARK  Name = 
REMARK  8 active torsions:
REMARK  status: ('A' for Active; 'I' for Inactive)
REMARK    1  A    between atoms: C_1  and  C_2
REMARK    2  A    between atoms: C_2  and  C_3
REMARK    3  A    between atoms: C_10  and  C_11
REMARK    4  A    between atoms: C_12  and  C_13
REMARK    5  A    between atoms: C_13  and  C_14
REMARK    6  A    between atoms: C_13  and  C_15
REMARK    7  A    between atoms: C_17  and  O_18
REMARK    8  A    between atoms: C_20  and  C_21
REMARK                            x       y       z     vdW  Elec       q    Type
REMARK                         _______ _______ _______ _____ _____    ______ ____
ROOT
ATOM      1  C   UNL     1       1.535   7.366  20.434  0.00  0.00    +0.000 C 
ATOM      2  C   UNL     1       1.677   6.183  20.592  0.00  0.00    +0.000 C 
ENDROOT
BRANCH   1  10
ATOM      3  C   UNL     1       0.985   9.653  21.141  0.00  0.00    +0.000 A 
ATOM      4  N   UNL     1       0.757  10.959  20.874  0.00  0.00    +0.000 NA
ATOM      5  C   UNL     1       0.881  11.352  19.604  0.00  0.00    +0.000 A 
ATOM      6  N   UNL     1       0.635  12.681  19.327  0.00  0.00    +0.000 N 
ATOM      7  N   UNL     1       1.243  10.566  18.587  0.00  0.00    +0.000 NA
ATOM      8  C   UNL     1       1.464   9.272  18.867  0.00  0.00    +0.000 A 
ATOM      9  N   UNL     1       1.875   8.483  17.788  0.00  0.00    +0.000 N 
ATOM     10  C   UNL     1       1.355   8.755  20.152  0.00  0.00    +0.000 A 
ATOM     11  H   UNL     1       0.795  13.239  20.156  0.00  0.00    +0.000 HD
ATOM     12  H   UNL     1       1.115  12.954  18.482  0.00  0.00    +0.000 HD
ATOM     13  H   UNL     1       1.758   9.020  16.934  0.00  0.00    +0.000 HD
ATOM     14  H   UNL     1       1.414   7.580  17.760  0.00  0.00    +0.000 HD
BRANCH   3  16
ATOM     15  C   UNL     1      -0.608   9.688  23.079  0.00  0.00    +0.000 C 
ATOM     16  C   UNL     1       0.745   9.216  22.567  0.00  0.00    +0.000 C 
ENDBRANCH   3  16
ENDBRANCH   1  10
BRANCH   2  17
ATOM     17  C   UNL     1       1.882   4.735  20.744  0.00  0.00    +0.000 C 
ATOM     18  C   UNL     1       0.561   3.995  20.508  0.00  0.00    +0.000 C 
BRANCH  17  19
ATOM     19  C   UNL     1       3.017   4.292  19.838  0.00  0.00    +0.000 A 
ATOM     20  C   UNL     1       3.053   3.034  19.226  0.00  0.00    +0.000 A 
ATOM     21  C   UNL     1       4.095   2.718  18.363  0.00  0.00    +0.000 A 
ATOM     22  C   UNL     1       5.102   3.635  18.084  0.00  0.00    +0.000 A 
ATOM     23  C   UNL     1       5.089   4.918  18.653  0.00  0.00    +0.000 A 
ATOM     24  C   UNL     1       4.029   5.221  19.529  0.00  0.00    +0.000 A 
BRANCH  23  25
ATOM     25  C   UNL     1       6.129   5.920  18.333  0.00  0.00    +0.000 A 
ATOM     26  C   UNL     1       5.931   6.887  17.340  0.00  0.00    +0.000 A 
ATOM     27  C   UNL     1       6.931   7.814  17.081  0.00  0.00    +0.000 A 
ATOM     28  N   UNL     1       8.105   7.856  17.739  0.00  0.00    +0.000 NA
ATOM     29  C   UNL     1       8.288   6.926  18.697  0.00  0.00    +0.000 A 
ATOM     30  C   UNL     1       7.353   5.955  19.018  0.00  0.00    +0.000 A 
ENDBRANCH  23  25
BRANCH  21  31
ATOM     31  O   UNL     1       4.161   1.501  17.750  0.00  0.00    +0.000 OA
ATOM     32  H   UNL     1       3.713   1.558  16.890  0.00  0.00    +0.000 HD
ENDBRANCH  21  31
ENDBRANCH  17  19
ENDBRANCH   2  17
TORSDOF 6
ENDMDL
MODEL 9
REMARK VINA RESULT:      -7.6      2.856      3.687
REMARK  Name = 
REMARK  8 active torsions:
REMARK  status: ('A' for Active; 'I' for Inactive)
REMARK    1  A    between atoms: C_1  and  C_2
REMARK    2  A    between atoms: C_2  and  C_3
REMARK    3  A    between atoms: C_10  and  C_11
REMARK    4  A    between atoms: C_12  and  C_13
REMARK    5  A    between atoms: C_13  and  C_14
REMARK    6  A    between atoms: C_13  and  C_15
REMARK    7  A    between atoms: C_17  and  O_18
REMARK    8  A    between atoms: C_20  and  C_21
REMARK                            x       y       z     vdW  Elec       q    Type
REMARK                         _______ _______ _______ _____ _____    ______ ____
ROOT
ATOM      1  C   UNL     1       2.270   7.744  18.530  0.00  0.00    +0.000 C 
ATOM      2  C   UNL     1       1.558   8.713  18.547  0.00  0.00    +0.000 C 
ENDROOT
BRANCH   1  10
ATOM      3  C   UNL     1       2.889   5.591  19.535  0.00  0.00    +0.000 A 
ATOM      4  N   UNL     1       3.713   4.525  19.652  0.00  0.00    +0.000 NA
ATOM      5  C   UNL     1       4.775   4.484  18.842  0.00  0.00    +0.000 A 
ATOM      6  N   UNL     1       5.625   3.405  18.970  0.00  0.00    +0.000 N 
ATOM      7  N   UNL     1       5.067   5.394  17.910  0.00  0.00    +0.000 NA
ATOM      8  C   UNL     1       4.241   6.447  17.807  0.00  0.00    +0.000 A 
ATOM      9  N   UNL     1       4.554   7.363  16.798  0.00  0.00    +0.000 N 
ATOM     10  C   UNL     1       3.113   6.593  18.605  0.00  0.00    +0.000 A 
ATOM     11  H   UNL     1       5.122   2.616  19.354  0.00  0.00    +0.000 HD
ATOM     12  H   UNL     1       6.132   3.259  18.108  0.00  0.00    +0.000 HD
ATOM     13  H   UNL     1       5.476   7.139  16.435  0.00  0.00    +0.000 HD
ATOM     14  H   UNL     1       4.466   8.328  17.098  0.00  0.00    +0.000 HD
BRANCH   3  16
ATOM     15  C   UNL     1       1.015   4.331  20.629  0.00  0.00    +0.000 C 
ATOM     16  C   UNL     1       1.750   5.660  20.525  0.00  0.00    +0.000 C 
ENDBRANCH   3  16
ENDBRANCH   1  10
BRANCH   2  17
ATOM     17  C   UNL     1       0.717   9.918  18.607  0.00  0.00    +0.000 C 
ATOM     18  C   UNL     1      -0.435   9.798  17.605  0.00  0.00    +0.000 C 
BRANCH  17  19
ATOM     19  C   UNL     1       0.278  10.152  20.040  0.00  0.00    +0.000 A 
ATOM     20  C   UNL     1       0.963   9.624  21.141  0.00  0.00    +0.000 A 
ATOM     21  C   UNL     1       0.537   9.927  22.428  0.00  0.00    +0.000 A 
ATOM     22  C   UNL     1      -0.556  10.759  22.647  0.00  0.00    +0.000 A 
ATOM     23  C   UNL     1      -1.255  11.332  21.574  0.00  0.00    +0.000 A 
ATOM     24  C   UNL     1      -0.813  11.012  20.276  0.00  0.00    +0.000 A 
BRANCH  23  25
ATOM     25  C   UNL     1      -2.392  12.253  21.790  0.00  0.00    +0.000 A 
ATOM     26  C   UNL     1      -2.927  12.468  23.067  0.00  0.00    +0.000 A 
ATOM     27  C   UNL     1      -3.987  13.348  23.224  0.00  0.00    +0.000 A 
ATOM     28  N   UNL     1      -4.548  14.036  22.211  0.00  0.00    +0.000 NA
ATOM     29  C   UNL     1      -4.027  13.829  20.985  0.00  0.00    +0.000 A 
ATOM     30  C   UNL     1      -2.977  12.961  20.730  0.00  0.00    +0.000 A 
ENDBRANCH  23  25
BRANCH  21  31
ATOM     31  O   UNL     1       1.181   9.429  23.522  0.00  0.00    +0.000 OA
ATOM     32  H   UNL     1       0.740   9.759  24.322  0.00  0.00    +0.000 HD
ENDBRANCH  21  31
ENDBRANCH  17  19
ENDBRANCH   2  17
TORSDOF 6
ENDMDL
