MODEL 1
REMARK VINA RESULT:      -7.4      0.000      0.000
REMARK  Name = 
REMARK  4 active torsions:
REMARK  status: ('A' for Active; 'I' for Inactive)
REMARK    1  A    between atoms: N_1  and  S_2
REMARK    2  A    between atoms: S_2  and  C_5
REMARK    3  A    between atoms: C_10  and  C_12
REMARK    4  A    between atoms: CA_16  and  C_17
REMARK                            x       y       z     vdW  Elec       q    Type
REMARK                         _______ _______ _______ _____ _____    ______ ____
ROOT
ATOM      1  C   UNL     1       5.231   5.185  17.383  0.00  0.00    +0.000 A 
ATOM      2  N   UNL     1       4.673   4.452  18.320  0.00  0.00    +0.000 NA
ATOM      3  N   UNL     1       3.684   5.171  18.976  0.00  0.00    +0.000 NA
ATOM      4  C   UNL     1       3.509   6.375  18.464  0.00  0.00    +0.000 A 
ATOM      5  N   UNL     1       2.570   7.275  18.898  0.00  0.00    +0.000 N 
ATOM      6  C   UNL     1       2.194   8.435  18.247  0.00  0.00    +0.000 C 
ATOM      7  O   UNL     1       2.621   8.839  17.169  0.00  0.00    +0.000 OA
ATOM      8  S   UNL     1       4.604   6.748  17.199  0.00  0.00    +0.000 S 
ATOM      9  H   UNL     1       2.033   7.040  19.736  0.00  0.00    +0.000 HD
ENDROOT
BRANCH   6  10
ATOM     10  C   UNL     1       1.123   9.199  18.960  0.00  0.00    +0.000 A 
ATOM     11  C   UNL     1       0.184   9.923  18.239  0.00  0.00    +0.000 A 
ATOM     12  C   UNL     1      -0.789  10.613  18.949  0.00  0.00    +0.000 A 
ATOM     13  C   UNL     1      -0.783  10.556  20.341  0.00  0.00    +0.000 A 
ATOM     14  CA  UNL     1       0.192   9.803  21.008  0.00  0.00    +0.000 A 
ATOM     15  N   UNL     1       1.152   9.116  20.310  0.00  0.00    +0.000 NA
BRANCH  14  16
ATOM     16  C   UNL     1       0.174   9.760  22.545  0.00  0.00    +0.000 C 
ATOM     17  O   UNL     1      -0.934  10.005  23.121  0.00  0.00    +0.000 OA
ATOM     18  OXT UNL     1       1.274   9.492  23.134  0.00  0.00    +0.000 OA
ENDBRANCH  14  16
ENDBRANCH   6  10
BRANCH   1  19
ATOM     19  S   UNL     1       6.489   4.651  16.281  0.00  0.00    +0.000 S 
ATOM     20  O   UNL     1       6.866   5.825  15.500  0.00  0.00    +0.000 OA
ATOM     21  O   UNL     1       6.021   3.456  15.623  0.00  0.00    +0.000 OA
BRANCH  19  22
ATOM     22  N   UNL     1       7.872   4.208  17.137  0.00  0.00    +0.000 NA
ATOM     23  H   UNL     1       8.545   4.981  17.127  0.00  0.00    +0.000 HD
ATOM     24  H   UNL     1       8.318   3.376  16.735  0.00  0.00    +0.000 HD
ENDBRANCH  19  22
ENDBRANCH   1  19
TORSDOF 4
ENDMDL
MODEL 2
REMARK VINA RESULT:      -7.1      5.128      9.063
REMARK  Name = 
REMARK  4 active torsions:
REMARK  status: ('A' for Active; 'I' for Inactive)
REMARK    1  A    between atoms: N_1  and  S_2
REMARK    2  A    between atoms: S_2  and  C_5
REMARK    3  A    between atoms: C_10  and  C_12
REMARK    4  A    between atoms: CA_16  and  C_17
REMARK                            x       y       z     vdW  Elec       q    Type
REMARK                         _______ _______ _______ _____ _____    ______ ____
ROOT
ATOM      1  C   UNL     1       2.817   3.333  19.531  0.00  0.00    +0.000 A 
ATOM      2  N   UNL     1       3.154   2.084  19.296  0.00  0.00    +0.000 NA
ATOM      3  N   UNL     1       3.857   1.987  18.103  0.00  0.00    +0.000 NA
ATOM      4  C   UNL     1       4.064   3.162  17.539  0.00  0.00    +0.000 A 
ATOM      5  N   UNL     1       4.765   3.354  16.376  0.00  0.00    +0.000 N 
ATOM      6  C   UNL     1       5.206   4.567  15.883  0.00  0.00    +0.000 C 
ATOM      7  O   UNL     1       5.061   5.666  16.411  0.00  0.00    +0.000 OA
ATOM      8  S   UNL     1       3.334   4.465  18.381  0.00  0.00    +0.000 S 
ATOM      9  H   UNL     1       5.066   2.525  15.857  0.00  0.00    +0.000 HD
ENDROOT
BRANCH   6  10
ATOM     10  C   UNL     1       5.966   4.449  14.600  0.00  0.00    +0.000 A 
ATOM     11  C   UNL     1       7.097   5.225  14.385  0.00  0.00    +0.000 A 
ATOM     12  C   UNL     1       7.768   5.075  13.179  0.00  0.00    +0.000 A 
ATOM     13  C   UNL     1       7.284   4.166  12.241  0.00  0.00    +0.000 A 
ATOM     14  CA  UNL     1       6.138   3.411  12.522  0.00  0.00    +0.000 A 
ATOM     15  N   UNL     1       5.476   3.552  13.714  0.00  0.00    +0.000 NA
BRANCH  14  16
ATOM     16  C   UNL     1       5.627   2.416  11.467  0.00  0.00    +0.000 C 
ATOM     17  O   UNL     1       6.440   1.523  11.066  0.00  0.00    +0.000 OA
ATOM     18  OXT UNL     1       4.426   2.563  11.060  0.00  0.00    +0.000 OA
ENDBRANCH  14  16
ENDBRANCH   6  10
BRANCH   1  19
ATOM     19  S   UNL     1       1.965   3.912  20.953  0.00  0.00    +0.000 S 
ATOM     20  O   UNL     1       2.513   3.167  22.082  0.00  0.00    +0.000 OA
ATOM     21  O   UNL     1       0.552   3.872  20.668  0.00  0.00    +0.000 OA
BRANCH  19  22
ATOM     22  N   UNL     1       2.342   5.529  21.246  0.00  0.00    +0.000 NA
ATOM     23  H   UNL     1       3.357   5.635  21.333  0.00  0.00    +0.000 HD
ATOM     24  H   UNL     1       1.898   5.873  22.105  0.00  0.00    +0.000 HD
ENDBRANCH  19  22
ENDBRANCH   1  19
TORSDOF 4
ENDMDL
MODEL 3
REMARK VINA RESULT:      -7.0      0.911      1.005
REMARK  Name = 
REMARK  4 active torsions:
REMARK  status: ('A' for Active; 'I' for Inactive)
REMARK    1  A    between atoms: N_1  and  S_2
REMARK    2  A    between atoms: S_2  and  C_5
REMARK    3  A    between atoms: C_10  and  C_12
REMARK    4  A    between atoms: CA_16  and  C_17
REMARK                            x       y       z     vdW  Elec       q    Type
REMARK                         _______ _______ _______ _____ _____    ______ ____
ROOT
ATOM      1  C   UNL     1       4.903   5.513  17.645  0.00  0.00    +0.000 A 
ATOM      2  N   UNL     1       4.375   4.811  18.624  0.00  0.00    +0.000 NA
ATOM      3  N   UNL     1       3.399   5.548  19.279  0.00  0.00    +0.000 NA
ATOM      4  C   UNL     1       3.202   6.731  18.728  0.00  0.00    +0.000 A 
ATOM      5  N   UNL     1       2.268   7.641  19.153  0.00  0.00    +0.000 N 
ATOM      6  C   UNL     1       1.867   8.773  18.470  0.00  0.00    +0.000 C 
ATOM      7  O   UNL     1       2.263   9.140  17.367  0.00  0.00    +0.000 OA
ATOM      8  S   UNL     1       4.261   7.064  17.421  0.00  0.00    +0.000 S 
ATOM      9  H   UNL     1       1.756   7.434  20.014  0.00  0.00    +0.000 HD
ENDROOT
BRANCH   6  10
ATOM     10  C   UNL     1       0.811   9.557  19.184  0.00  0.00    +0.000 A 
ATOM     11  C   UNL     1      -0.100  10.319  18.463  0.00  0.00    +0.000 A 
ATOM     12  C   UNL     1      -1.061  11.025  19.173  0.00  0.00    +0.000 A 
ATOM     13  C   UNL     1      -1.072  10.947  20.564  0.00  0.00    +0.000 A 
ATOM     14  CA  UNL     1      -0.126  10.157  21.230  0.00  0.00    +0.000 A 
ATOM     15  N   UNL     1       0.821   9.453  20.532  0.00  0.00    +0.000 NA
BRANCH  14  16
ATOM     16  C   UNL     1      -0.163  10.091  22.766  0.00  0.00    +0.000 C 
ATOM     17  O   UNL     1      -1.235  10.468  23.339  0.00  0.00    +0.000 OA
ATOM     18  OXT UNL     1       0.888   9.673  23.358  0.00  0.00    +0.000 OA
ENDBRANCH  14  16
ENDBRANCH   6  10
BRANCH   1  19
ATOM     19  S   UNL     1       6.135   4.946  16.530  0.00  0.00    +0.000 S 
ATOM     20  O   UNL     1       7.370   4.860  17.303  0.00  0.00    +0.000 OA
ATOM     21  O   UNL     1       6.070   5.766  15.345  0.00  0.00    +0.000 OA
BRANCH  19  22
ATOM     22  N   UNL     1       5.796   3.371  16.032  0.00  0.00    +0.000 NA
ATOM     23  H   UNL     1       5.834   2.740  16.838  0.00  0.00    +0.000 HD
ATOM     24  H   UNL     1       6.464   3.044  15.324  0.00  0.00    +0.000 HD
ENDBRANCH  19  22
ENDBRANCH   1  19
TORSDOF 4
ENDMDL
MODEL 4
REMARK VINA RESULT:      -7.0      3.013      8.041
REMARK  Name = 
REMARK  4 active torsions:
REMARK  status: ('A' for Active; 'I' for Inactive)
REMARK    1  A    between atoms: N_1  and  S_2
REMARK    2  A    between atoms: S_2  and  C_5
REMARK    3  A    between atoms: C_10  and  C_12
REMARK    4  A    between atoms: CA_16  and  C_17
REMARK                            x       y       z     vdW  Elec       q    Type
REMARK                         _______ _______ _______ _____ _____    ______ ____
ROOT
ATOM      1  C   UNL     1       0.497  10.294  21.443  0.00  0.00    +0.000 A 
ATOM      2  N   UNL     1       0.900   9.547  22.448  0.00  0.00    +0.000 NA
ATOM      3  N   UNL     1       1.529   8.402  21.981  0.00  0.00    +0.000 NA
ATOM      4  C   UNL     1       1.622   8.375  20.665  0.00  0.00    +0.000 A 
ATOM      5  N   UNL     1       2.233   7.378  19.948  0.00  0.00    +0.000 N 
ATOM      6  C   UNL     1       2.560   7.425  18.607  0.00  0.00    +0.000 C 
ATOM      7  O   UNL     1       2.378   8.368  17.842  0.00  0.00    +0.000 OA
ATOM      8  S   UNL     1       0.864   9.707  19.897  0.00  0.00    +0.000 S 
ATOM      9  H   UNL     1       2.554   6.551  20.458  0.00  0.00    +0.000 HD
ENDROOT
BRANCH   6  10
ATOM     10  C   UNL     1       3.243   6.187  18.116  0.00  0.00    +0.000 A 
ATOM     11  C   UNL     1       2.507   5.037  17.863  0.00  0.00    +0.000 A 
ATOM     12  C   UNL     1       3.188   3.917  17.407  0.00  0.00    +0.000 A 
ATOM     13  C   UNL     1       4.568   3.988  17.227  0.00  0.00    +0.000 A 
ATOM     14  CA  UNL     1       5.250   5.181  17.497  0.00  0.00    +0.000 A 
ATOM     15  N   UNL     1       4.580   6.291  17.942  0.00  0.00    +0.000 NA
BRANCH  14  16
ATOM     16  C   UNL     1       6.773   5.229  17.289  0.00  0.00    +0.000 C 
ATOM     17  O   UNL     1       7.214   6.014  16.390  0.00  0.00    +0.000 OA
ATOM     18  OXT UNL     1       7.488   4.470  18.026  0.00  0.00    +0.000 OA
ENDBRANCH  14  16
ENDBRANCH   6  10
BRANCH   1  19
ATOM     19  S   UNL     1      -0.297  11.853  21.583  0.00  0.00    +0.000 S 
ATOM     20  O   UNL     1      -1.363  11.853  20.585  0.00  0.00    +0.000 OA
ATOM     21  O   UNL     1       0.723  12.872  21.561  0.00  0.00    +0.000 OA
BRANCH  19  22
ATOM     22  N   UNL     1      -1.069  11.988  23.076  0.00  0.00    +0.000 NA
ATOM     23  H   UNL     1      -1.617  12.853  23.102  0.00  0.00    +0.000 HD
ATOM     24  H   UNL     1      -0.397  11.998  23.852  0.00  0.00    +0.000 HD
ENDBRANCH  19  22
ENDBRANCH   1  19
TORSDOF 4
ENDMDL
MODEL 5
REMARK VINA RESULT:      -7.0      5.408      9.086
REMARK  Name = 
REMARK  4 active torsions:
REMARK  status: ('A' for Active; 'I' for Inactive)
REMARK    1  A    between atoms: N_1  and  S_2
REMARK    2  A    between atoms: S_2  and  C_5
REMARK    3  A    between atoms: C_10  and  C_12
REMARK    4  A    between atoms: CA_16  and  C_17
REMARK                            x       y       z     vdW  Elec       q    Type
REMARK                         _______ _______ _______ _____ _____    ______ ____
ROOT
ATOM      1  C   UNL     1       2.623   3.138  19.526  0.00  0.00    +0.000 A 
ATOM      2  N   UNL     1       1.922   2.422  18.674  0.00  0.00    +0.000 NA
ATOM      3  N   UNL     1       2.450   2.532  17.396  0.00  0.00    +0.000 NA
ATOM      4  C   UNL     1       3.546   3.268  17.361  0.00  0.00    +0.000 A 
ATOM      5  N   UNL     1       4.288   3.505  16.233  0.00  0.00    +0.000 N 
ATOM      6  C   UNL     1       5.553   4.060  16.194  0.00  0.00    +0.000 C 
ATOM      7  O   UNL     1       6.226   4.413  17.159  0.00  0.00    +0.000 OA
ATOM      8  S   UNL     1       3.959   3.954  18.878  0.00  0.00    +0.000 S 
ATOM      9  H   UNL     1       3.919   3.172  15.339  0.00  0.00    +0.000 HD
ENDROOT
BRANCH   6  10
ATOM     10  C   UNL     1       6.114   4.169  14.811  0.00  0.00    +0.000 A 
ATOM     11  C   UNL     1       7.150   5.054  14.546  0.00  0.00    +0.000 A 
ATOM     12  C   UNL     1       7.637   5.115  13.248  0.00  0.00    +0.000 A 
ATOM     13  C   UNL     1       7.070   4.298  12.271  0.00  0.00    +0.000 A 
ATOM     14  CA  UNL     1       6.028   3.424  12.606  0.00  0.00    +0.000 A 
ATOM     15  N   UNL     1       5.549   3.356  13.889  0.00  0.00    +0.000 NA
BRANCH  14  16
ATOM     16  C   UNL     1       5.422   2.535  11.507  0.00  0.00    +0.000 C 
ATOM     17  O   UNL     1       6.120   1.550  11.104  0.00  0.00    +0.000 OA
ATOM     18  OXT UNL     1       4.266   2.854  11.070  0.00  0.00    +0.000 OA
ENDBRANCH  14  16
ENDBRANCH   6  10
BRANCH   1  19
ATOM     19  S   UNL     1       2.335   3.242  21.254  0.00  0.00    +0.000 S 
ATOM     20  O   UNL     1       2.348   4.664  21.581  0.00  0.00    +0.000 OA
ATOM     21  O   UNL     1       3.244   2.334  21.909  0.00  0.00    +0.000 OA
BRANCH  19  22
ATOM     22  N   UNL     1       0.781   2.702  21.624  0.00  0.00    +0.000 NA
ATOM     23  H   UNL     1       0.832   1.764  22.033  0.00  0.00    +0.000 HD
ATOM     24  H   UNL     1       0.182   2.668  20.792  0.00  0.00    +0.000 HD
ENDBRANCH  19  22
ENDBRANCH   1  19
TORSDOF 4
ENDMDL
MODEL 6
REMARK VINA RESULT:      -7.0      1.929      2.484
REMARK  Name = 
REMARK  4 active torsions:
REMARK  status: ('A' for Active; 'I' for Inactive)
REMARK    1  A    between atoms: N_1  and  S_2
REMARK    2  A    between atoms: S_2  and  C_5
REMARK    3  A    between atoms: C_10  and  C_12
REMARK    4  A    between atoms: CA_16  and  C_17
REMARK                            x       y       z     vdW  Elec       q    Type
REMARK                         _______ _______ _______ _____ _____    ______ ____
ROOT
ATOM      1  C   UNL     1       5.434   5.207  17.490  0.00  0.00    +0.000 A 
ATOM      2  N   UNL     1       4.948   4.495  18.482  0.00  0.00    +0.000 NA
ATOM      3  N   UNL     1       3.954   5.201  19.146  0.00  0.00    +0.000 NA
ATOM      4  C   UNL     1       3.704   6.371  18.588  0.00  0.00    +0.000 A 
ATOM      5  N   UNL     1       2.744   7.250  19.019  0.00  0.00    +0.000 N 
ATOM      6  C   UNL     1       2.291   8.360  18.333  0.00  0.00    +0.000 C 
ATOM      7  O   UNL     1       2.656   8.731  17.221  0.00  0.00    +0.000 OA
ATOM      8  S   UNL     1       4.731   6.731  17.262  0.00  0.00    +0.000 S 
ATOM      9  H   UNL     1       2.252   7.031  19.889  0.00  0.00    +0.000 HD
ENDROOT
BRANCH   6  10
ATOM     10  C   UNL     1       1.216   9.110  19.055  0.00  0.00    +0.000 A 
ATOM     11  C   UNL     1       0.994   8.883  20.407  0.00  0.00    +0.000 A 
ATOM     12  C   UNL     1      -0.012   9.607  21.030  0.00  0.00    +0.000 A 
ATOM     13  C   UNL     1      -0.756  10.519  20.283  0.00  0.00    +0.000 A 
ATOM     14  CA  UNL     1      -0.478  10.703  18.922  0.00  0.00    +0.000 A 
ATOM     15  N   UNL     1       0.519   9.994  18.304  0.00  0.00    +0.000 NA
BRANCH  14  16
ATOM     16  C   UNL     1      -1.316  11.715  18.124  0.00  0.00    +0.000 C 
ATOM     17  O   UNL     1      -1.185  12.945  18.424  0.00  0.00    +0.000 OA
ATOM     18  OXT UNL     1      -2.092  11.250  17.223  0.00  0.00    +0.000 OA
ENDBRANCH  14  16
ENDBRANCH   6  10
BRANCH   1  19
ATOM     19  S   UNL     1       6.670   4.677  16.361  0.00  0.00    +0.000 S 
ATOM     20  O   UNL     1       7.137   5.880  15.680  0.00  0.00    +0.000 OA
ATOM     21  O   UNL     1       6.133   3.571  15.606  0.00  0.00    +0.000 OA
BRANCH  19  22
ATOM     22  N   UNL     1       8.007   4.075  17.193  0.00  0.00    +0.000 NA
ATOM     23  H   UNL     1       7.747   3.876  18.164  0.00  0.00    +0.000 HD
ATOM     24  H   UNL     1       8.789   4.740  17.190  0.00  0.00    +0.000 HD
ENDBRANCH  19  22
ENDBRANCH   1  19
TORSDOF 4
ENDMDL
MODEL 7
REMARK VINA RESULT:      -6.9      2.941      8.109
REMARK  Name = 
REMARK  4 active torsions:
REMARK  status: ('A' for Active; 'I' for Inactive)
REMARK    1  A    between atoms: N_1  and  S_2
REMARK    2  A    between atoms: S_2  and  C_5
REMARK    3  A    between atoms: C_10  and  C_12
REMARK    4  A    between atoms: CA_16  and  C_17
REMARK                            x       y       z     vdW  Elec       q    Type
REMARK                         _______ _______ _______ _____ _____    ______ ____
ROOT
ATOM      1  C   UNL     1       0.540  10.671  20.242  0.00  0.00    +0.000 A 
ATOM      2  N   UNL     1       0.574  11.045  18.982  0.00  0.00    +0.000 NA
ATOM      3  N   UNL     1       1.264  10.115  18.218  0.00  0.00    +0.000 NA
ATOM      4  C   UNL     1       1.657   9.071  18.922  0.00  0.00    +0.000 A 
ATOM      5  N   UNL     1       2.323   7.989  18.405  0.00  0.00    +0.000 N 
ATOM      6  C   UNL     1       2.539   6.784  19.046  0.00  0.00    +0.000 C 
ATOM      7  O   UNL     1       2.155   6.476  20.171  0.00  0.00    +0.000 OA
ATOM      8  S   UNL     1       1.289   9.192  20.593  0.00  0.00    +0.000 S 
ATOM      9  H   UNL     1       2.623   8.035  17.428  0.00  0.00    +0.000 HD
ENDROOT
BRANCH   6  10
ATOM     10  C   UNL     1       3.279   5.788  18.210  0.00  0.00    +0.000 A 
ATOM     11  C   UNL     1       2.673   4.592  17.849  0.00  0.00    +0.000 A 
ATOM     12  C   UNL     1       3.401   3.704  17.070  0.00  0.00    +0.000 A 
ATOM     13  C   UNL     1       4.699   4.040  16.690  0.00  0.00    +0.000 A 
ATOM     14  CA  UNL     1       5.251   5.265  17.086  0.00  0.00    +0.000 A 
ATOM     15  N   UNL     1       4.532   6.149  17.850  0.00  0.00    +0.000 NA
BRANCH  14  16
ATOM     16  C   UNL     1       6.686   5.609  16.652  0.00  0.00    +0.000 C 
ATOM     17  O   UNL     1       7.460   4.636  16.381  0.00  0.00    +0.000 OA
ATOM     18  OXT UNL     1       7.001   6.845  16.604  0.00  0.00    +0.000 OA
ENDBRANCH  14  16
ENDBRANCH   6  10
BRANCH   1  19
ATOM     19  S   UNL     1      -0.274  11.527  21.541  0.00  0.00    +0.000 S 
ATOM     20  O   UNL     1      -1.676  11.619  21.147  0.00  0.00    +0.000 OA
ATOM     21  O   UNL     1       0.484  12.720  21.828  0.00  0.00    +0.000 OA
BRANCH  19  22
ATOM     22  N   UNL     1      -0.256  10.606  22.953  0.00  0.00    +0.000 NA
ATOM     23  H   UNL     1      -0.104  11.218  23.761  0.00  0.00    +0.000 HD
ATOM     24  H   UNL     1       0.482   9.894  22.934  0.00  0.00    +0.000 HD
ENDBRANCH  19  22
ENDBRANCH   1  19
TORSDOF 4
ENDMDL
MODEL 8
REMARK VINA RESULT:      -6.9      2.819      8.097
REMARK  Name = 
REMARK  4 active torsions:
REMARK  status: ('A' for Active; 'I' for Inactive)
REMARK    1  A    between atoms: N_1  and  S_2
REMARK    2  A    between atoms: S_2  and  C_5
REMARK    3  A    between atoms: C_10  and  C_12
REMARK    4  A    between atoms: CA_16  and  C_17
REMARK                            x       y       z     vdW  Elec       q    Type
REMARK                         _______ _______ _______ _____ _____    ______ ____
ROOT
ATOM      1  C   UNL     1       0.678  10.457  20.018  0.00  0.00    +0.000 A 
ATOM      2  N   UNL     1       0.705  10.803  18.750  0.00  0.00    +0.000 NA
ATOM      3  N   UNL     1       1.423   9.877  18.008  0.00  0.00    +0.000 NA
ATOM      4  C   UNL     1       1.844   8.860  18.737  0.00  0.00    +0.000 A 
ATOM      5  N   UNL     1       2.542   7.787  18.245  0.00  0.00    +0.000 N 
ATOM      6  C   UNL     1       2.790   6.603  18.913  0.00  0.00    +0.000 C 
ATOM      7  O   UNL     1       2.412   6.309  20.044  0.00  0.00    +0.000 OA
ATOM      8  S   UNL     1       1.468   9.008  20.403  0.00  0.00    +0.000 S 
ATOM      9  H   UNL     1       2.843   7.820  17.268  0.00  0.00    +0.000 HD
ENDROOT
BRANCH   6  10
ATOM     10  C   UNL     1       3.561   5.610  18.101  0.00  0.00    +0.000 A 
ATOM     11  C   UNL     1       2.945   4.451  17.647  0.00  0.00    +0.000 A 
ATOM     12  C   UNL     1       3.704   3.564  16.896  0.00  0.00    +0.000 A 
ATOM     13  C   UNL     1       5.038   3.865  16.634  0.00  0.00    +0.000 A 
ATOM     14  CA  UNL     1       5.598   5.054  17.118  0.00  0.00    +0.000 A 
ATOM     15  N   UNL     1       4.851   5.936  17.856  0.00  0.00    +0.000 NA
BRANCH  14  16
ATOM     16  C   UNL     1       7.074   5.359  16.813  0.00  0.00    +0.000 C 
ATOM     17  O   UNL     1       7.384   6.573  16.591  0.00  0.00    +0.000 OA
ATOM     18  OXT UNL     1       7.883   4.371  16.794  0.00  0.00    +0.000 OA
ENDBRANCH  14  16
ENDBRANCH   6  10
BRANCH   1  19
ATOM     19  S   UNL     1      -0.164  11.318  21.296  0.00  0.00    +0.000 S 
ATOM     20  O   UNL     1       0.063  10.550  22.517  0.00  0.00    +0.000 OA
ATOM     21  O   UNL     1      -1.505  11.584  20.839  0.00  0.00    +0.000 OA
BRANCH  19  22
ATOM     22  N   UNL     1       0.552  12.821  21.562  0.00  0.00    +0.000 NA
ATOM     23  H   UNL     1       1.124  13.077  20.752  0.00  0.00    +0.000 HD
ATOM     24  H   UNL     1       1.146  12.817  22.399  0.00  0.00    +0.000 HD
ENDBRANCH  19  22
ENDBRANCH   1  19
TORSDOF 4
ENDMDL
MODEL 9
REMARK VINA RESULT:      -6.9      0.846      1.016
REMARK  Name = 
REMARK  4 active torsions:
REMARK  status: ('A' for Active; 'I' for Inactive)
REMARK    1  A    between atoms: N_1  and  S_2
REMARK    2  A    between atoms: S_2  and  C_5
REMARK    3  A    between atoms: C_10  and  C_12
REMARK    4  A    between atoms: CA_16  and  C_17
REMARK                            x       y       z     vdW  Elec       q    Type
REMARK                         _______ _______ _______ _____ _____    ______ ____
ROOT
ATOM      1  C   UNL     1       5.148   5.008  17.231  0.00  0.00    +0.000 A 
ATOM      2  N   UNL     1       4.359   4.201  17.904  0.00  0.00    +0.000 NA
ATOM      3  N   UNL     1       3.326   4.913  18.496  0.00  0.00    +0.000 NA
ATOM      4  C   UNL     1       3.354   6.196  18.189  0.00  0.00    +0.000 A 
ATOM      5  N   UNL     1       2.427   7.117  18.608  0.00  0.00    +0.000 N 
ATOM      6  C   UNL     1       2.283   8.403  18.124  0.00  0.00    +0.000 C 
ATOM      7  O   UNL     1       2.944   8.926  17.231  0.00  0.00    +0.000 OA
ATOM      8  S   UNL     1       4.702   6.642  17.228  0.00  0.00    +0.000 S 
ATOM      9  H   UNL     1       1.720   6.811  19.281  0.00  0.00    +0.000 HD
ENDROOT
BRANCH   6  10
ATOM     10  C   UNL     1       1.162   9.159  18.765  0.00  0.00    +0.000 A 
ATOM     11  C   UNL     1       0.170   9.733  17.981  0.00  0.00    +0.000 A 
ATOM     12  C   UNL     1      -0.849  10.421  18.625  0.00  0.00    +0.000 A 
ATOM     13  C   UNL     1      -0.834  10.513  20.015  0.00  0.00    +0.000 A 
ATOM     14  CA  UNL     1       0.196   9.908  20.747  0.00  0.00    +0.000 A 
ATOM     15  N   UNL     1       1.201   9.221  20.115  0.00  0.00    +0.000 NA
BRANCH  14  16
ATOM     16  C   UNL     1       0.186  10.026  22.280  0.00  0.00    +0.000 C 
ATOM     17  O   UNL     1      -0.798  10.633  22.811  0.00  0.00    +0.000 OA
ATOM     18  OXT UNL     1       1.172   9.516  22.912  0.00  0.00    +0.000 OA
ENDBRANCH  14  16
ENDBRANCH   6  10
BRANCH   1  19
ATOM     19  S   UNL     1       6.547   4.519  16.289  0.00  0.00    +0.000 S 
ATOM     20  O   UNL     1       6.102   3.411  15.450  0.00  0.00    +0.000 OA
ATOM     21  O   UNL     1       7.654   4.349  17.198  0.00  0.00    +0.000 OA
BRANCH  19  22
ATOM     22  N   UNL     1       6.997   5.747  15.224  0.00  0.00    +0.000 NA
ATOM     23  H   UNL     1       7.092   5.364  14.279  0.00  0.00    +0.000 HD
ATOM     24  H   UNL     1       7.886   6.181  15.496  0.00  0.00    +0.000 HD
ENDBRANCH  19  22
ENDBRANCH   1  19
TORSDOF 4
ENDMDL
