MODEL 1
REMARK VINA RESULT:      -6.9      0.000      0.000
REMARK  Name = 
REMARK  0 active torsions:
REMARK  status: ('A' for Active; 'I' for Inactive)
REMARK                            x       y       z     vdW  Elec       q    Type
REMARK                         _______ _______ _______ _____ _____    ______ ____
ROOT
ATOM      1  O   UNL     1       3.333   1.383  18.588  0.00  0.00    +0.000 OA
ATOM      2  C   UNL     1       3.542   2.549  18.283  0.00  0.00    +0.000 C 
ATOM      3  N   UNL     1       4.427   2.965  17.292  0.00  0.00    +0.000 N 
ATOM      4  C   UNL     1       4.441   4.346  17.182  0.00  0.00    +0.000 A 
ATOM      5  C   UNL     1       5.213   5.082  16.303  0.00  0.00    +0.000 A 
ATOM      6  C   UNL     1       5.091   6.471  16.347  0.00  0.00    +0.000 A 
ATOM      7  C   UNL     1       4.207   7.077  17.256  0.00  0.00    +0.000 A 
ATOM      8  C   UNL     1       3.432   6.305  18.132  0.00  0.00    +0.000 A 
ATOM      9 CL   UNL     1       2.364   7.108  19.212  0.00  0.00    +0.000 Cl
ATOM     10  C   UNL     1       3.557   4.930  18.095  0.00  0.00    +0.000 A 
ATOM     11  C   UNL     1       2.884   3.850  18.901  0.00  0.00    +0.000 C 
ATOM     12  O   UNL     1       1.468   3.848  18.707  0.00  0.00    +0.000 OA
ATOM     13  C   UNL     1       0.966   3.388  19.959  0.00  0.00    +0.000 C 
ATOM     14  C   UNL     1       1.930   3.977  20.955  0.00  0.00    +0.000 C 
ATOM     15  O   UNL     1       3.194   3.956  20.292  0.00  0.00    +0.000 OA
ATOM     16  H   UNL     1       4.974   2.316  16.746  0.00  0.00    +0.000 HD
ENDROOT
TORSDOF 0
ENDMDL
MODEL 2
REMARK VINA RESULT:      -6.8      1.267      1.267
REMARK  Name = 
REMARK  0 active torsions:
REMARK  status: ('A' for Active; 'I' for Inactive)
REMARK                            x       y       z     vdW  Elec       q    Type
REMARK                         _______ _______ _______ _____ _____    ______ ____
ROOT
ATOM      1  O   UNL     1       4.176   2.082  20.330  0.00  0.00    +0.000 OA
ATOM      2  C   UNL     1       4.352   3.085  19.653  0.00  0.00    +0.000 C 
ATOM      3  N   UNL     1       5.539   3.406  19.000  0.00  0.00    +0.000 N 
ATOM      4  C   UNL     1       5.425   4.604  18.314  0.00  0.00    +0.000 A 
ATOM      5  C   UNL     1       6.418   5.212  17.570  0.00  0.00    +0.000 A 
ATOM      6  C   UNL     1       6.112   6.426  16.955  0.00  0.00    +0.000 A 
ATOM      7  C   UNL     1       4.833   6.990  17.097  0.00  0.00    +0.000 A 
ATOM      8  C   UNL     1       3.842   6.349  17.854  0.00  0.00    +0.000 A 
ATOM      9 CL   UNL     1       2.295   7.087  17.981  0.00  0.00    +0.000 Cl
ATOM     10  C   UNL     1       4.146   5.150  18.470  0.00  0.00    +0.000 A 
ATOM     11  C   UNL     1       3.317   4.243  19.342  0.00  0.00    +0.000 C 
ATOM     12  O   UNL     1       2.177   3.737  18.646  0.00  0.00    +0.000 OA
ATOM     13  C   UNL     1       1.205   3.583  19.677  0.00  0.00    +0.000 C 
ATOM     14  C   UNL     1       1.496   4.736  20.600  0.00  0.00    +0.000 C 
ATOM     15  O   UNL     1       2.914   4.893  20.549  0.00  0.00    +0.000 OA
ATOM     16  H   UNL     1       6.358   2.819  19.043  0.00  0.00    +0.000 HD
ENDROOT
TORSDOF 0
ENDMDL
MODEL 3
REMARK VINA RESULT:      -6.7      2.160      3.306
REMARK  Name = 
REMARK  0 active torsions:
REMARK  status: ('A' for Active; 'I' for Inactive)
REMARK                            x       y       z     vdW  Elec       q    Type
REMARK                         _______ _______ _______ _____ _____    ______ ____
ROOT
ATOM      1  O   UNL     1       2.180   3.263  21.931  0.00  0.00    +0.000 OA
ATOM      2  C   UNL     1       2.408   4.056  21.028  0.00  0.00    +0.000 C 
ATOM      3  N   UNL     1       2.046   5.400  21.039  0.00  0.00    +0.000 N 
ATOM      4  C   UNL     1       2.445   6.035  19.873  0.00  0.00    +0.000 A 
ATOM      5  C   UNL     1       2.236   7.365  19.561  0.00  0.00    +0.000 A 
ATOM      6  C   UNL     1       2.709   7.820  18.330  0.00  0.00    +0.000 A 
ATOM      7  C   UNL     1       3.374   6.942  17.458  0.00  0.00    +0.000 A 
ATOM      8  C   UNL     1       3.576   5.598  17.802  0.00  0.00    +0.000 A 
ATOM      9 CL   UNL     1       4.405   4.579  16.695  0.00  0.00    +0.000 Cl
ATOM     10  C   UNL     1       3.103   5.144  19.018  0.00  0.00    +0.000 A 
ATOM     11  C   UNL     1       3.153   3.781  19.657  0.00  0.00    +0.000 C 
ATOM     12  O   UNL     1       4.496   3.351  19.883  0.00  0.00    +0.000 OA
ATOM     13  C   UNL     1       4.414   1.934  19.753  0.00  0.00    +0.000 C 
ATOM     14  C   UNL     1       3.374   1.747  18.679  0.00  0.00    +0.000 C 
ATOM     15  O   UNL     1       2.443   2.809  18.887  0.00  0.00    +0.000 OA
ATOM     16  H   UNL     1       1.555   5.824  21.812  0.00  0.00    +0.000 HD
ENDROOT
TORSDOF 0
ENDMDL
MODEL 4
REMARK VINA RESULT:      -6.6      2.155      3.117
REMARK  Name = 
REMARK  0 active torsions:
REMARK  status: ('A' for Active; 'I' for Inactive)
REMARK                            x       y       z     vdW  Elec       q    Type
REMARK                         _______ _______ _______ _____ _____    ______ ____
ROOT
ATOM      1  O   UNL     1       1.553   6.534  20.803  0.00  0.00    +0.000 OA
ATOM      2  C   UNL     1       2.224   6.034  19.911  0.00  0.00    +0.000 C 
ATOM      3  N   UNL     1       3.006   6.749  19.008  0.00  0.00    +0.000 N 
ATOM      4  C   UNL     1       3.647   5.900  18.120  0.00  0.00    +0.000 A 
ATOM      5  C   UNL     1       4.491   6.284  17.094  0.00  0.00    +0.000 A 
ATOM      6  C   UNL     1       5.038   5.277  16.299  0.00  0.00    +0.000 A 
ATOM      7  C   UNL     1       4.734   3.929  16.553  0.00  0.00    +0.000 A 
ATOM      8  C   UNL     1       3.879   3.568  17.603  0.00  0.00    +0.000 A 
ATOM      9 CL   UNL     1       3.555   1.901  17.866  0.00  0.00    +0.000 Cl
ATOM     10  C   UNL     1       3.330   4.564  18.388  0.00  0.00    +0.000 A 
ATOM     11  C   UNL     1       2.386   4.498  19.560  0.00  0.00    +0.000 C 
ATOM     12  O   UNL     1       2.953   3.780  20.656  0.00  0.00    +0.000 OA
ATOM     13  C   UNL     1       1.818   3.187  21.282  0.00  0.00    +0.000 C 
ATOM     14  C   UNL     1       0.911   2.870  20.123  0.00  0.00    +0.000 C 
ATOM     15  O   UNL     1       1.126   3.932  19.193  0.00  0.00    +0.000 OA
ATOM     16  H   UNL     1       3.072   7.756  19.024  0.00  0.00    +0.000 HD
ENDROOT
TORSDOF 0
ENDMDL
MODEL 5
REMARK VINA RESULT:      -6.5      1.931      2.709
REMARK  Name = 
REMARK  0 active torsions:
REMARK  status: ('A' for Active; 'I' for Inactive)
REMARK                            x       y       z     vdW  Elec       q    Type
REMARK                         _______ _______ _______ _____ _____    ______ ____
ROOT
ATOM      1  O   UNL     1       5.440   3.445  16.416  0.00  0.00    +0.000 OA
ATOM      2  C   UNL     1       4.764   4.224  17.073  0.00  0.00    +0.000 C 
ATOM      3  N   UNL     1       4.539   5.557  16.742  0.00  0.00    +0.000 N 
ATOM      4  C   UNL     1       3.733   6.178  17.682  0.00  0.00    +0.000 A 
ATOM      5  C   UNL     1       3.324   7.498  17.658  0.00  0.00    +0.000 A 
ATOM      6  C   UNL     1       2.515   7.941  18.704  0.00  0.00    +0.000 A 
ATOM      7  C   UNL     1       2.138   7.060  19.731  0.00  0.00    +0.000 A 
ATOM      8  C   UNL     1       2.563   5.724  19.728  0.00  0.00    +0.000 A 
ATOM      9 CL   UNL     1       2.058   4.696  21.009  0.00  0.00    +0.000 Cl
ATOM     10  C   UNL     1       3.370   5.285  18.697  0.00  0.00    +0.000 A 
ATOM     11  C   UNL     1       3.988   3.938  18.423  0.00  0.00    +0.000 C 
ATOM     12  O   UNL     1       2.995   2.928  18.238  0.00  0.00    +0.000 OA
ATOM     13  C   UNL     1       3.629   1.750  18.729  0.00  0.00    +0.000 C 
ATOM     14  C   UNL     1       4.466   2.260  19.872  0.00  0.00    +0.000 C 
ATOM     15  O   UNL     1       4.899   3.555  19.455  0.00  0.00    +0.000 OA
ATOM     16  H   UNL     1       4.931   5.985  15.916  0.00  0.00    +0.000 HD
ENDROOT
TORSDOF 0
ENDMDL
MODEL 6
REMARK VINA RESULT:      -6.4      2.635      4.698
REMARK  Name = 
REMARK  0 active torsions:
REMARK  status: ('A' for Active; 'I' for Inactive)
REMARK                            x       y       z     vdW  Elec       q    Type
REMARK                         _______ _______ _______ _____ _____    ______ ____
ROOT
ATOM      1  O   UNL     1       3.789   7.130  17.446  0.00  0.00    +0.000 OA
ATOM      2  C   UNL     1       3.463   6.220  18.197  0.00  0.00    +0.000 C 
ATOM      3  N   UNL     1       2.269   6.168  18.911  0.00  0.00    +0.000 N 
ATOM      4  C   UNL     1       2.191   5.012  19.671  0.00  0.00    +0.000 A 
ATOM      5  C   UNL     1       1.144   4.654  20.499  0.00  0.00    +0.000 A 
ATOM      6  C   UNL     1       1.253   3.447  21.190  0.00  0.00    +0.000 A 
ATOM      7  C   UNL     1       2.391   2.639  21.030  0.00  0.00    +0.000 A 
ATOM      8  C   UNL     1       3.436   3.024  20.179  0.00  0.00    +0.000 A 
ATOM      9 CL   UNL     1       4.796   1.986  20.021  0.00  0.00    +0.000 Cl
ATOM     10  C   UNL     1       3.333   4.223  19.499  0.00  0.00    +0.000 A 
ATOM     11  C   UNL     1       4.274   4.905  18.541  0.00  0.00    +0.000 C 
ATOM     12  O   UNL     1       4.496   4.119  17.368  0.00  0.00    +0.000 OA
ATOM     13  C   UNL     1       5.829   4.458  16.993  0.00  0.00    +0.000 C 
ATOM     14  C   UNL     1       6.518   4.661  18.317  0.00  0.00    +0.000 C 
ATOM     15  O   UNL     1       5.519   5.231  19.162  0.00  0.00    +0.000 OA
ATOM     16  H   UNL     1       1.574   6.898  18.861  0.00  0.00    +0.000 HD
ENDROOT
TORSDOF 0
ENDMDL
MODEL 7
REMARK VINA RESULT:      -6.4      2.767      4.295
REMARK  Name = 
REMARK  0 active torsions:
REMARK  status: ('A' for Active; 'I' for Inactive)
REMARK                            x       y       z     vdW  Elec       q    Type
REMARK                         _______ _______ _______ _____ _____    ______ ____
ROOT
ATOM      1  O   UNL     1       7.789   4.210  16.229  0.00  0.00    +0.000 OA
ATOM      2  C   UNL     1       6.626   4.354  16.579  0.00  0.00    +0.000 C 
ATOM      3  N   UNL     1       5.630   3.391  16.444  0.00  0.00    +0.000 N 
ATOM      4  C   UNL     1       4.419   3.852  16.934  0.00  0.00    +0.000 A 
ATOM      5  C   UNL     1       3.228   3.151  16.945  0.00  0.00    +0.000 A 
ATOM      6  C   UNL     1       2.109   3.791  17.479  0.00  0.00    +0.000 A 
ATOM      7  C   UNL     1       2.213   5.098  17.984  0.00  0.00    +0.000 A 
ATOM      8  C   UNL     1       3.435   5.784  17.965  0.00  0.00    +0.000 A 
ATOM      9 CL   UNL     1       3.498   7.376  18.607  0.00  0.00    +0.000 Cl
ATOM     10  C   UNL     1       4.544   5.154  17.430  0.00  0.00    +0.000 A 
ATOM     11  C   UNL     1       5.965   5.622  17.259  0.00  0.00    +0.000 C 
ATOM     12  O   UNL     1       6.583   5.908  18.515  0.00  0.00    +0.000 OA
ATOM     13  C   UNL     1       7.498   6.955  18.199  0.00  0.00    +0.000 C 
ATOM     14  C   UNL     1       6.774   7.737  17.136  0.00  0.00    +0.000 C 
ATOM     15  O   UNL     1       6.049   6.756  16.394  0.00  0.00    +0.000 OA
ATOM     16  H   UNL     1       5.802   2.485  16.034  0.00  0.00    +0.000 HD
ENDROOT
TORSDOF 0
ENDMDL
MODEL 8
REMARK VINA RESULT:      -6.2      1.768      3.922
REMARK  Name = 
REMARK  0 active torsions:
REMARK  status: ('A' for Active; 'I' for Inactive)
REMARK                            x       y       z     vdW  Elec       q    Type
REMARK                         _______ _______ _______ _____ _____    ______ ____
ROOT
ATOM      1  O   UNL     1       5.501   3.430  16.396  0.00  0.00    +0.000 OA
ATOM      2  C   UNL     1       4.604   3.542  17.220  0.00  0.00    +0.000 C 
ATOM      3  N   UNL     1       3.807   2.495  17.674  0.00  0.00    +0.000 N 
ATOM      4  C   UNL     1       2.882   2.939  18.605  0.00  0.00    +0.000 A 
ATOM      5  C   UNL     1       1.937   2.160  19.246  0.00  0.00    +0.000 A 
ATOM      6  C   UNL     1       1.086   2.794  20.151  0.00  0.00    +0.000 A 
ATOM      7  C   UNL     1       1.206   4.173  20.391  0.00  0.00    +0.000 A 
ATOM      8  C   UNL     1       2.177   4.938  19.731  0.00  0.00    +0.000 A 
ATOM      9 CL   UNL     1       2.278   6.618  20.076  0.00  0.00    +0.000 Cl
ATOM     10  C   UNL     1       3.016   4.313  18.828  0.00  0.00    +0.000 A 
ATOM     11  C   UNL     1       4.129   4.854  17.969  0.00  0.00    +0.000 C 
ATOM     12  O   UNL     1       5.187   5.403  18.757  0.00  0.00    +0.000 OA
ATOM     13  C   UNL     1       5.702   6.446  17.933  0.00  0.00    +0.000 C 
ATOM     14  C   UNL     1       4.475   6.971  17.235  0.00  0.00    +0.000 C 
ATOM     15  O   UNL     1       3.653   5.822  17.032  0.00  0.00    +0.000 OA
ATOM     16  H   UNL     1       3.914   1.548  17.344  0.00  0.00    +0.000 HD
ENDROOT
TORSDOF 0
ENDMDL
MODEL 9
REMARK VINA RESULT:      -6.1      2.166      3.111
REMARK  Name = 
REMARK  0 active torsions:
REMARK  status: ('A' for Active; 'I' for Inactive)
REMARK                            x       y       z     vdW  Elec       q    Type
REMARK                         _______ _______ _______ _____ _____    ______ ____
ROOT
ATOM      1  O   UNL     1       2.361   4.443  20.886  0.00  0.00    +0.000 OA
ATOM      2  C   UNL     1       2.936   4.797  19.866  0.00  0.00    +0.000 C 
ATOM      3  N   UNL     1       2.966   6.101  19.382  0.00  0.00    +0.000 N 
ATOM      4  C   UNL     1       3.699   6.183  18.209  0.00  0.00    +0.000 A 
ATOM      5  C   UNL     1       3.920   7.328  17.467  0.00  0.00    +0.000 A 
ATOM      6  C   UNL     1       4.683   7.206  16.305  0.00  0.00    +0.000 A 
ATOM      7  C   UNL     1       5.201   5.956  15.925  0.00  0.00    +0.000 A 
ATOM      8  C   UNL     1       4.966   4.812  16.699  0.00  0.00    +0.000 A 
ATOM      9 CL   UNL     1       5.636   3.316  16.184  0.00  0.00    +0.000 Cl
ATOM     10  C   UNL     1       4.204   4.929  17.847  0.00  0.00    +0.000 A 
ATOM     11  C   UNL     1       3.774   3.903  18.862  0.00  0.00    +0.000 C 
ATOM     12  O   UNL     1       4.893   3.308  19.520  0.00  0.00    +0.000 OA
ATOM     13  C   UNL     1       4.439   1.988  19.811  0.00  0.00    +0.000 C 
ATOM     14  C   UNL     1       3.565   1.657  18.630  0.00  0.00    +0.000 C 
ATOM     15  O   UNL     1       2.947   2.895  18.278  0.00  0.00    +0.000 OA
ATOM     16  H   UNL     1       2.501   6.865  19.849  0.00  0.00    +0.000 HD
ENDROOT
TORSDOF 0
ENDMDL
