MODEL 1
REMARK VINA RESULT:      -7.0      0.000      0.000
REMARK  Name = 
REMARK  9 active torsions:
REMARK  status: ('A' for Active; 'I' for Inactive)
REMARK    1  A    between atoms: C_1  and  O_2
REMARK    2  A    between atoms: O_2  and  C_3
REMARK    3  A    between atoms: C_5  and  C_6
REMARK    4  A    between atoms: C_7  and  C_8
REMARK    5  A    between atoms: C_10  and  N_11
REMARK    6  A    between atoms: C_24  and  O_25
REMARK    7  A    between atoms: O_25  and  C_26
REMARK    8  A    between atoms: C_27  and  O_28
REMARK    9  A    between atoms: O_28  and  C_29
REMARK                            x       y       z     vdW  Elec       q    Type
REMARK                         _______ _______ _______ _____ _____    ______ ____
ROOT
ATOM      1  C   UNL     1       3.123   5.964  18.435  0.00  0.00    +0.000 C 
ATOM      2  C   UNL     1       3.722   5.152  19.581  0.00  0.00    +0.000 C 
ATOM      3  C   UNL     1       4.968   4.684  19.452  0.00  0.00    +0.000 C 
ATOM      4  O   UNL     1       5.910   5.539  18.903  0.00  0.00    +0.000 OA
ATOM      5  C   UNL     1       5.546   6.070  17.665  0.00  0.00    +0.000 A 
ATOM      6  C   UNL     1       6.675   6.117  16.840  0.00  0.00    +0.000 A 
ATOM      7  C   UNL     1       6.491   5.483  15.622  0.00  0.00    +0.000 A 
ATOM      8  N   UNL     1       7.420   5.085  14.701  0.00  0.00    +0.000 N 
ATOM      9  C   UNL     1       6.797   4.293  13.792  0.00  0.00    +0.000 A 
ATOM     10  N   UNL     1       7.559   3.717  12.855  0.00  0.00    +0.000 N 
ATOM     11  N   UNL     1       5.486   4.219  14.045  0.00  0.00    +0.000 NA
ATOM     12  C   UNL     1       5.268   4.977  15.194  0.00  0.00    +0.000 A 
ATOM     13  C   UNL     1       4.090   5.245  16.001  0.00  0.00    +0.000 A 
ATOM     14  C   UNL     1       4.210   5.921  17.261  0.00  0.00    +0.000 A 
ATOM     15  H   UNL     1       8.410   5.257  14.733  0.00  0.00    +0.000 HD
ATOM     16  H   UNL     1       8.527   3.952  12.699  0.00  0.00    +0.000 HD
ATOM     17  H   UNL     1       7.125   3.143  12.120  0.00  0.00    +0.000 HD
ENDROOT
BRANCH   1  20
ATOM     18  C   UNL     1       1.068   8.469  20.654  0.00  0.00    +0.000 A 
ATOM     19  C   UNL     1       1.770   7.315  20.206  0.00  0.00    +0.000 A 
ATOM     20  C   UNL     1       2.523   7.297  19.015  0.00  0.00    +0.000 A 
ATOM     21  C   UNL     1       2.434   8.487  18.245  0.00  0.00    +0.000 A 
ATOM     22  C   UNL     1       1.720   9.664  18.670  0.00  0.00    +0.000 A 
ATOM     23  C   UNL     1       1.095   9.674  19.928  0.00  0.00    +0.000 A 
BRANCH  18  25
ATOM     24  C   UNL     1       0.615   9.182  22.889  0.00  0.00    +0.000 C 
ATOM     25  O   UNL     1       0.224   8.454  21.739  0.00  0.00    +0.000 OA
ENDBRANCH  18  25
BRANCH  22  26
ATOM     26  O   UNL     1       1.717  10.677  17.732  0.00  0.00    +0.000 OA
ATOM     27  C   UNL     1       2.472  11.867  17.975  0.00  0.00    +0.000 C 
ENDBRANCH  22  26
BRANCH  23  28
ATOM     28  O   UNL     1       0.383  10.780  20.330  0.00  0.00    +0.000 OA
ATOM     29  C   UNL     1      -0.931  10.941  19.786  0.00  0.00    +0.000 C 
ENDBRANCH  23  28
ENDBRANCH   1  20
BRANCH   3  30
ATOM     30  N   UNL     1       5.309   3.343  19.571  0.00  0.00    +0.000 N 
ATOM     31  H   UNL     1       4.621   2.815  20.118  0.00  0.00    +0.000 HD
ATOM     32  H   UNL     1       5.319   2.925  18.637  0.00  0.00    +0.000 HD
ENDBRANCH   3  30
BRANCH   2  33
ATOM     33  C   UNL     1       2.848   4.472  20.624  0.00  0.00    +0.000 C 
ATOM     34  N   UNL     1       2.123   3.909  21.489  0.00  0.00    +0.000 NA
ENDBRANCH   2  33
TORSDOF 6
ENDMDL
MODEL 2
REMARK VINA RESULT:      -7.0      5.343      9.327
REMARK  Name = 
REMARK  9 active torsions:
REMARK  status: ('A' for Active; 'I' for Inactive)
REMARK    1  A    between atoms: C_1  and  O_2
REMARK    2  A    between atoms: O_2  and  C_3
REMARK    3  A    between atoms: C_5  and  C_6
REMARK    4  A    between atoms: C_7  and  C_8
REMARK    5  A    between atoms: C_10  and  N_11
REMARK    6  A    between atoms: C_24  and  O_25
REMARK    7  A    between atoms: O_25  and  C_26
REMARK    8  A    between atoms: C_27  and  O_28
REMARK    9  A    between atoms: O_28  and  C_29
REMARK                            x       y       z     vdW  Elec       q    Type
REMARK                         _______ _______ _______ _____ _____    ______ ____
ROOT
ATOM      1  C   UNL     1       0.052  11.069  18.166  0.00  0.00    +0.000 C 
ATOM      2  C   UNL     1       0.545  12.406  18.716  0.00  0.00    +0.000 C 
ATOM      3  C   UNL     1      -0.354  13.268  19.204  0.00  0.00    +0.000 C 
ATOM      4  O   UNL     1      -1.365  12.747  19.995  0.00  0.00    +0.000 OA
ATOM      5  C   UNL     1      -2.081  11.710  19.396  0.00  0.00    +0.000 A 
ATOM      6  C   UNL     1      -3.435  11.844  19.722  0.00  0.00    +0.000 A 
ATOM      7  C   UNL     1      -4.266  11.864  18.614  0.00  0.00    +0.000 A 
ATOM      8  N   UNL     1      -5.573  12.255  18.516  0.00  0.00    +0.000 N 
ATOM      9  C   UNL     1      -5.890  12.335  17.199  0.00  0.00    +0.000 A 
ATOM     10  N   UNL     1      -7.106  12.800  16.886  0.00  0.00    +0.000 N 
ATOM     11  N   UNL     1      -4.862  11.945  16.438  0.00  0.00    +0.000 NA
ATOM     12  C   UNL     1      -3.826  11.629  17.316  0.00  0.00    +0.000 A 
ATOM     13  C   UNL     1      -2.451  11.205  17.120  0.00  0.00    +0.000 A 
ATOM     14  C   UNL     1      -1.545  11.137  18.232  0.00  0.00    +0.000 A 
ATOM     15  H   UNL     1      -6.176  12.532  19.271  0.00  0.00    +0.000 HD
ATOM     16  H   UNL     1      -7.838  12.948  17.563  0.00  0.00    +0.000 HD
ATOM     17  H   UNL     1      -7.404  12.838  15.903  0.00  0.00    +0.000 HD
ENDROOT
BRANCH   1  20
ATOM     18  C   UNL     1       2.211   7.813  18.571  0.00  0.00    +0.000 A 
ATOM     19  C   UNL     1       1.589   8.969  18.020  0.00  0.00    +0.000 A 
ATOM     20  C   UNL     1       0.900   9.911  18.810  0.00  0.00    +0.000 A 
ATOM     21  C   UNL     1       0.780   9.555  20.180  0.00  0.00    +0.000 A 
ATOM     22  C   UNL     1       1.388   8.385  20.759  0.00  0.00    +0.000 A 
ATOM     23  C   UNL     1       2.177   7.547  19.951  0.00  0.00    +0.000 A 
BRANCH  18  25
ATOM     24  C   UNL     1       4.109   6.989  17.378  0.00  0.00    +0.000 C 
ATOM     25  O   UNL     1       2.766   6.824  17.794  0.00  0.00    +0.000 OA
ENDBRANCH  18  25
BRANCH  22  26
ATOM     26  O   UNL     1       1.085   8.208  22.094  0.00  0.00    +0.000 OA
ATOM     27  C   UNL     1       0.458   9.267  22.822  0.00  0.00    +0.000 C 
ENDBRANCH  22  26
BRANCH  23  28
ATOM     28  O   UNL     1       2.736   6.410  20.487  0.00  0.00    +0.000 OA
ATOM     29  C   UNL     1       1.884   5.266  20.616  0.00  0.00    +0.000 C 
ENDBRANCH  23  28
ENDBRANCH   1  20
BRANCH   3  30
ATOM     30  N   UNL     1      -0.497  14.575  18.756  0.00  0.00    +0.000 N 
ATOM     31  H   UNL     1      -0.265  15.261  19.482  0.00  0.00    +0.000 HD
ATOM     32  H   UNL     1       0.162  14.730  17.988  0.00  0.00    +0.000 HD
ENDBRANCH   3  30
BRANCH   2  33
ATOM     33  C   UNL     1       1.896  12.985  18.325  0.00  0.00    +0.000 C 
ATOM     34  N   UNL     1       3.016  13.464  18.001  0.00  0.00    +0.000 NA
ENDBRANCH   2  33
TORSDOF 6
ENDMDL
MODEL 3
REMARK VINA RESULT:      -6.9      4.661      7.680
REMARK  Name = 
REMARK  9 active torsions:
REMARK  status: ('A' for Active; 'I' for Inactive)
REMARK    1  A    between atoms: C_1  and  O_2
REMARK    2  A    between atoms: O_2  and  C_3
REMARK    3  A    between atoms: C_5  and  C_6
REMARK    4  A    between atoms: C_7  and  C_8
REMARK    5  A    between atoms: C_10  and  N_11
REMARK    6  A    between atoms: C_24  and  O_25
REMARK    7  A    between atoms: O_25  and  C_26
REMARK    8  A    between atoms: C_27  and  O_28
REMARK    9  A    between atoms: O_28  and  C_29
REMARK                            x       y       z     vdW  Elec       q    Type
REMARK                         _______ _______ _______ _____ _____    ______ ____
ROOT
ATOM      1  C   UNL     1      -0.686  11.824  21.182  0.00  0.00    +0.000 C 
ATOM      2  C   UNL     1       0.207  13.029  20.893  0.00  0.00    +0.000 C 
ATOM      3  C   UNL     1       1.147  12.917  19.949  0.00  0.00    +0.000 C 
ATOM      4  O   UNL     1       0.793  12.269  18.777  0.00  0.00    +0.000 OA
ATOM      5  C   UNL     1       0.258  10.994  18.970  0.00  0.00    +0.000 A 
ATOM      6  C   UNL     1       0.736  10.144  17.967  0.00  0.00    +0.000 A 
ATOM      7  C   UNL     1       1.334   8.996  18.460  0.00  0.00    +0.000 A 
ATOM      8  N   UNL     1       2.145   8.097  17.824  0.00  0.00    +0.000 N 
ATOM      9  C   UNL     1       2.685   7.280  18.764  0.00  0.00    +0.000 A 
ATOM     10  N   UNL     1       3.592   6.386  18.354  0.00  0.00    +0.000 N 
ATOM     11  N   UNL     1       2.203   7.569  19.978  0.00  0.00    +0.000 NA
ATOM     12  C   UNL     1       1.334   8.645  19.806  0.00  0.00    +0.000 A 
ATOM     13  C   UNL     1       0.551   9.449  20.729  0.00  0.00    +0.000 A 
ATOM     14  C   UNL     1      -0.115  10.636  20.274  0.00  0.00    +0.000 A 
ATOM     15  H   UNL     1       2.385   8.090  16.849  0.00  0.00    +0.000 HD
ATOM     16  H   UNL     1       3.781   6.187  17.384  0.00  0.00    +0.000 HD
ATOM     17  H   UNL     1       3.996   5.719  19.024  0.00  0.00    +0.000 HD
ENDROOT
BRANCH   1  20
ATOM     18  C   UNL     1      -4.334  12.690  22.351  0.00  0.00    +0.000 A 
ATOM     19  C   UNL     1      -2.931  12.449  22.349  0.00  0.00    +0.000 A 
ATOM     20  C   UNL     1      -2.189  12.288  21.162  0.00  0.00    +0.000 A 
ATOM     21  C   UNL     1      -2.971  12.275  19.976  0.00  0.00    +0.000 A 
ATOM     22  C   UNL     1      -4.392  12.505  19.952  0.00  0.00    +0.000 A 
ATOM     23  C   UNL     1      -5.064  12.792  21.153  0.00  0.00    +0.000 A 
BRANCH  18  25
ATOM     24  C   UNL     1      -4.437  12.386  24.718  0.00  0.00    +0.000 C 
ATOM     25  O   UNL     1      -5.084  12.713  23.502  0.00  0.00    +0.000 OA
ENDBRANCH  18  25
BRANCH  22  26
ATOM     26  O   UNL     1      -4.950  12.383  18.696  0.00  0.00    +0.000 OA
ATOM     27  C   UNL     1      -4.348  11.510  17.737  0.00  0.00    +0.000 C 
ENDBRANCH  22  26
BRANCH  23  28
ATOM     28  O   UNL     1      -6.426  12.981  21.146  0.00  0.00    +0.000 OA
ATOM     29  C   UNL     1      -7.245  11.808  21.073  0.00  0.00    +0.000 C 
ENDBRANCH  23  28
ENDBRANCH   1  20
BRANCH   3  30
ATOM     30  N   UNL     1       2.498  13.155  20.168  0.00  0.00    +0.000 N 
ATOM     31  H   UNL     1       2.994  12.316  20.485  0.00  0.00    +0.000 HD
ATOM     32  H   UNL     1       2.928  13.429  19.280  0.00  0.00    +0.000 HD
ENDBRANCH   3  30
BRANCH   2  33
ATOM     33  C   UNL     1       0.392  14.150  21.904  0.00  0.00    +0.000 C 
ATOM     34  N   UNL     1       0.544  15.080  22.741  0.00  0.00    +0.000 NA
ENDBRANCH   2  33
TORSDOF 6
ENDMDL
MODEL 4
REMARK VINA RESULT:      -6.8      3.486      6.098
REMARK  Name = 
REMARK  9 active torsions:
REMARK  status: ('A' for Active; 'I' for Inactive)
REMARK    1  A    between atoms: C_1  and  O_2
REMARK    2  A    between atoms: O_2  and  C_3
REMARK    3  A    between atoms: C_5  and  C_6
REMARK    4  A    between atoms: C_7  and  C_8
REMARK    5  A    between atoms: C_10  and  N_11
REMARK    6  A    between atoms: C_24  and  O_25
REMARK    7  A    between atoms: O_25  and  C_26
REMARK    8  A    between atoms: C_27  and  O_28
REMARK    9  A    between atoms: O_28  and  C_29
REMARK                            x       y       z     vdW  Elec       q    Type
REMARK                         _______ _______ _______ _____ _____    ______ ____
ROOT
ATOM      1  C   UNL     1       4.982   5.798  16.556  0.00  0.00    +0.000 C 
ATOM      2  C   UNL     1       5.866   4.919  15.673  0.00  0.00    +0.000 C 
ATOM      3  C   UNL     1       7.193   5.008  15.808  0.00  0.00    +0.000 C 
ATOM      4  O   UNL     1       7.696   5.082  17.097  0.00  0.00    +0.000 OA
ATOM      5  C   UNL     1       7.141   6.106  17.866  0.00  0.00    +0.000 A 
ATOM      6  C   UNL     1       8.147   6.683  18.649  0.00  0.00    +0.000 A 
ATOM      7  C   UNL     1       8.239   8.057  18.497  0.00  0.00    +0.000 A 
ATOM      8  N   UNL     1       9.248   8.905  18.863  0.00  0.00    +0.000 N 
ATOM      9  C   UNL     1       9.008  10.114  18.293  0.00  0.00    +0.000 A 
ATOM     10  N   UNL     1       9.938  11.063  18.450  0.00  0.00    +0.000 N 
ATOM     11  N   UNL     1       7.846  10.104  17.631  0.00  0.00    +0.000 NA
ATOM     12  C   UNL     1       7.336   8.813  17.759  0.00  0.00    +0.000 A 
ATOM     13  C   UNL     1       6.155   8.153  17.229  0.00  0.00    +0.000 A 
ATOM     14  C   UNL     1       5.986   6.736  17.376  0.00  0.00    +0.000 A 
ATOM     15  H   UNL     1      10.077   8.666  19.378  0.00  0.00    +0.000 HD
ATOM     16  H   UNL     1      10.720  10.979  19.080  0.00  0.00    +0.000 HD
ATOM     17  H   UNL     1       9.779  12.006  18.073  0.00  0.00    +0.000 HD
ENDROOT
BRANCH   1  20
ATOM     18  C   UNL     1       1.994   4.639  18.826  0.00  0.00    +0.000 A 
ATOM     19  C   UNL     1       2.883   5.444  18.060  0.00  0.00    +0.000 A 
ATOM     20  C   UNL     1       3.884   4.898  17.234  0.00  0.00    +0.000 A 
ATOM     21  C   UNL     1       4.006   3.484  17.313  0.00  0.00    +0.000 A 
ATOM     22  C   UNL     1       3.128   2.648  18.089  0.00  0.00    +0.000 A 
ATOM     23  C   UNL     1       2.061   3.234  18.792  0.00  0.00    +0.000 A 
BRANCH  18  25
ATOM     24  C   UNL     1       1.588   6.147  20.633  0.00  0.00    +0.000 C 
ATOM     25  O   UNL     1       1.107   5.165  19.735  0.00  0.00    +0.000 OA
ENDBRANCH  18  25
BRANCH  22  26
ATOM     26  O   UNL     1       3.474   1.312  18.067  0.00  0.00    +0.000 OA
ATOM     27  C   UNL     1       4.372   0.799  19.055  0.00  0.00    +0.000 C 
ENDBRANCH  22  26
BRANCH  23  28
ATOM     28  O   UNL     1       1.236   2.448  19.563  0.00  0.00    +0.000 OA
ATOM     29  C   UNL     1       1.531   2.373  20.962  0.00  0.00    +0.000 C 
ENDBRANCH  23  28
ENDBRANCH   1  20
BRANCH   3  30
ATOM     30  N   UNL     1       8.060   5.301  14.763  0.00  0.00    +0.000 N 
ATOM     31  H   UNL     1       8.801   5.952  15.045  0.00  0.00    +0.000 HD
ATOM     32  H   UNL     1       8.527   4.437  14.475  0.00  0.00    +0.000 HD
ENDBRANCH   3  30
BRANCH   2  33
ATOM     33  C   UNL     1       5.355   4.316  14.375  0.00  0.00    +0.000 C 
ATOM     34  N   UNL     1       4.932   3.816  13.297  0.00  0.00    +0.000 NA
ENDBRANCH   2  33
TORSDOF 6
ENDMDL
MODEL 5
REMARK VINA RESULT:      -6.7      6.629      8.948
REMARK  Name = 
REMARK  9 active torsions:
REMARK  status: ('A' for Active; 'I' for Inactive)
REMARK    1  A    between atoms: C_1  and  O_2
REMARK    2  A    between atoms: O_2  and  C_3
REMARK    3  A    between atoms: C_5  and  C_6
REMARK    4  A    between atoms: C_7  and  C_8
REMARK    5  A    between atoms: C_10  and  N_11
REMARK    6  A    between atoms: C_24  and  O_25
REMARK    7  A    between atoms: O_25  and  C_26
REMARK    8  A    between atoms: C_27  and  O_28
REMARK    9  A    between atoms: O_28  and  C_29
REMARK                            x       y       z     vdW  Elec       q    Type
REMARK                         _______ _______ _______ _____ _____    ______ ____
ROOT
ATOM      1  C   UNL     1      -1.870  12.528  19.034  0.00  0.00    +0.000 C 
ATOM      2  C   UNL     1      -1.566  11.056  18.759  0.00  0.00    +0.000 C 
ATOM      3  C   UNL     1      -0.320  10.612  18.955  0.00  0.00    +0.000 C 
ATOM      4  O   UNL     1       0.336  11.051  20.094  0.00  0.00    +0.000 OA
ATOM      5  C   UNL     1       0.373  12.439  20.231  0.00  0.00    +0.000 A 
ATOM      6  C   UNL     1       1.624  12.813  20.734  0.00  0.00    +0.000 A 
ATOM      7  C   UNL     1       2.265  13.764  19.958  0.00  0.00    +0.000 A 
ATOM      8  N   UNL     1       3.577  14.152  19.967  0.00  0.00    +0.000 N 
ATOM      9  C   UNL     1       3.793  14.927  18.874  0.00  0.00    +0.000 A 
ATOM     10  N   UNL     1       5.048  15.330  18.645  0.00  0.00    +0.000 N 
ATOM     11  N   UNL     1       2.658  15.114  18.192  0.00  0.00    +0.000 NA
ATOM     12  C   UNL     1       1.674  14.397  18.870  0.00  0.00    +0.000 A 
ATOM     13  C   UNL     1       0.265  14.153  18.612  0.00  0.00    +0.000 A 
ATOM     14  C   UNL     1      -0.463  13.198  19.398  0.00  0.00    +0.000 A 
ATOM     15  H   UNL     1       4.289  13.848  20.608  0.00  0.00    +0.000 HD
ATOM     16  H   UNL     1       5.800  15.219  19.307  0.00  0.00    +0.000 HD
ATOM     17  H   UNL     1       5.252  15.953  17.853  0.00  0.00    +0.000 HD
ENDROOT
BRANCH   1  20
ATOM     18  C   UNL     1      -4.177  12.530  22.212  0.00  0.00    +0.000 A 
ATOM     19  C   UNL     1      -3.041  12.629  21.360  0.00  0.00    +0.000 A 
ATOM     20  C   UNL     1      -3.142  12.621  19.954  0.00  0.00    +0.000 A 
ATOM     21  C   UNL     1      -4.454  12.395  19.460  0.00  0.00    +0.000 A 
ATOM     22  C   UNL     1      -5.617  12.280  20.301  0.00  0.00    +0.000 A 
ATOM     23  C   UNL     1      -5.480  12.426  21.692  0.00  0.00    +0.000 A 
BRANCH  18  25
ATOM     24  C   UNL     1      -3.613  13.518  24.312  0.00  0.00    +0.000 C 
ATOM     25  O   UNL     1      -4.076  12.401  23.577  0.00  0.00    +0.000 OA
ENDBRANCH  18  25
BRANCH  22  26
ATOM     26  O   UNL     1      -6.777  11.999  19.605  0.00  0.00    +0.000 OA
ATOM     27  C   UNL     1      -6.811  10.882  18.713  0.00  0.00    +0.000 C 
ENDBRANCH  22  26
BRANCH  23  28
ATOM     28  O   UNL     1      -6.579  12.286  22.507  0.00  0.00    +0.000 OA
ATOM     29  C   UNL     1      -7.335  13.469  22.788  0.00  0.00    +0.000 C 
ENDBRANCH  23  28
ENDBRANCH   1  20
BRANCH   3  30
ATOM     30  N   UNL     1       0.440   9.979  17.980  0.00  0.00    +0.000 N 
ATOM     31  H   UNL     1       0.259  10.354  17.043  0.00  0.00    +0.000 HD
ATOM     32  H   UNL     1       1.430  10.152  18.176  0.00  0.00    +0.000 HD
ENDBRANCH   3  30
BRANCH   2  33
ATOM     33  C   UNL     1      -2.454  10.209  17.861  0.00  0.00    +0.000 C 
ATOM     34  N   UNL     1      -3.189   9.505  17.117  0.00  0.00    +0.000 NA
ENDBRANCH   2  33
TORSDOF 6
ENDMDL
MODEL 6
REMARK VINA RESULT:      -6.7      4.607      7.693
REMARK  Name = 
REMARK  9 active torsions:
REMARK  status: ('A' for Active; 'I' for Inactive)
REMARK    1  A    between atoms: C_1  and  O_2
REMARK    2  A    between atoms: O_2  and  C_3
REMARK    3  A    between atoms: C_5  and  C_6
REMARK    4  A    between atoms: C_7  and  C_8
REMARK    5  A    between atoms: C_10  and  N_11
REMARK    6  A    between atoms: C_24  and  O_25
REMARK    7  A    between atoms: O_25  and  C_26
REMARK    8  A    between atoms: C_27  and  O_28
REMARK    9  A    between atoms: O_28  and  C_29
REMARK                            x       y       z     vdW  Elec       q    Type
REMARK                         _______ _______ _______ _____ _____    ______ ____
ROOT
ATOM      1  C   UNL     1      -1.244  11.513  20.078  0.00  0.00    +0.000 C 
ATOM      2  C   UNL     1      -0.286  12.701  20.026  0.00  0.00    +0.000 C 
ATOM      3  C   UNL     1       0.952  12.505  19.560  0.00  0.00    +0.000 C 
ATOM      4  O   UNL     1       1.086  11.709  18.434  0.00  0.00    +0.000 OA
ATOM      5  C   UNL     1       0.492  10.450  18.552  0.00  0.00    +0.000 A 
ATOM      6  C   UNL     1       1.316   9.500  17.939  0.00  0.00    +0.000 A 
ATOM      7  C   UNL     1       1.642   8.440  18.770  0.00  0.00    +0.000 A 
ATOM      8  N   UNL     1       2.621   7.496  18.629  0.00  0.00    +0.000 N 
ATOM      9  C   UNL     1       2.721   6.817  19.801  0.00  0.00    +0.000 A 
ATOM     10  N   UNL     1       3.698   5.909  19.903  0.00  0.00    +0.000 N 
ATOM     11  N   UNL     1       1.798   7.236  20.672  0.00  0.00    +0.000 NA
ATOM     12  C   UNL     1       1.093   8.255  20.034  0.00  0.00    +0.000 A 
ATOM     13  C   UNL     1       0.022   9.140  20.458  0.00  0.00    +0.000 A 
ATOM     14  C   UNL     1      -0.381  10.242  19.631  0.00  0.00    +0.000 A 
ATOM     15  H   UNL     1       3.234   7.378  17.841  0.00  0.00    +0.000 HD
ATOM     16  H   UNL     1       4.257   5.599  19.123  0.00  0.00    +0.000 HD
ATOM     17  H   UNL     1       3.785   5.341  20.755  0.00  0.00    +0.000 HD
ENDROOT
BRANCH   1  20
ATOM     18  C   UNL     1      -4.957  12.698  19.589  0.00  0.00    +0.000 A 
ATOM     19  C   UNL     1      -3.661  12.486  20.140  0.00  0.00    +0.000 A 
ATOM     20  C   UNL     1      -2.602  11.924  19.399  0.00  0.00    +0.000 A 
ATOM     21  C   UNL     1      -2.963  11.484  18.097  0.00  0.00    +0.000 A 
ATOM     22  C   UNL     1      -4.269  11.675  17.522  0.00  0.00    +0.000 A 
ATOM     23  C   UNL     1      -5.252  12.361  18.255  0.00  0.00    +0.000 A 
BRANCH  18  25
ATOM     24  C   UNL     1      -6.629  12.179  21.213  0.00  0.00    +0.000 C 
ATOM     25  O   UNL     1      -6.027  13.118  20.341  0.00  0.00    +0.000 OA
ENDBRANCH  18  25
BRANCH  22  26
ATOM     26  O   UNL     1      -4.409  11.111  16.269  0.00  0.00    +0.000 OA
ATOM     27  C   UNL     1      -3.250  10.895  15.460  0.00  0.00    +0.000 C 
ENDBRANCH  22  26
BRANCH  23  28
ATOM     28  O   UNL     1      -6.512  12.520  17.728  0.00  0.00    +0.000 OA
ATOM     29  C   UNL     1      -6.754  13.711  16.970  0.00  0.00    +0.000 C 
ENDBRANCH  23  28
ENDBRANCH   1  20
BRANCH   3  30
ATOM     30  N   UNL     1       2.105  12.811  20.271  0.00  0.00    +0.000 N 
ATOM     31  H   UNL     1       1.906  13.048  21.249  0.00  0.00    +0.000 HD
ATOM     32  H   UNL     1       2.705  11.982  20.289  0.00  0.00    +0.000 HD
ENDBRANCH   3  30
BRANCH   2  33
ATOM     33  C   UNL     1      -0.501  13.942  20.878  0.00  0.00    +0.000 C 
ATOM     34  N   UNL     1      -0.680  14.971  21.584  0.00  0.00    +0.000 NA
ENDBRANCH   2  33
TORSDOF 6
ENDMDL
MODEL 7
REMARK VINA RESULT:      -6.6      1.015      2.428
REMARK  Name = 
REMARK  9 active torsions:
REMARK  status: ('A' for Active; 'I' for Inactive)
REMARK    1  A    between atoms: C_1  and  O_2
REMARK    2  A    between atoms: O_2  and  C_3
REMARK    3  A    between atoms: C_5  and  C_6
REMARK    4  A    between atoms: C_7  and  C_8
REMARK    5  A    between atoms: C_10  and  N_11
REMARK    6  A    between atoms: C_24  and  O_25
REMARK    7  A    between atoms: O_25  and  C_26
REMARK    8  A    between atoms: C_27  and  O_28
REMARK    9  A    between atoms: O_28  and  C_29
REMARK                            x       y       z     vdW  Elec       q    Type
REMARK                         _______ _______ _______ _____ _____    ______ ____
ROOT
ATOM      1  C   UNL     1       2.547   6.463  18.409  0.00  0.00    +0.000 C 
ATOM      2  C   UNL     1       2.786   5.403  19.482  0.00  0.00    +0.000 C 
ATOM      3  C   UNL     1       3.999   4.849  19.574  0.00  0.00    +0.000 C 
ATOM      4  O   UNL     1       5.092   5.693  19.458  0.00  0.00    +0.000 OA
ATOM      5  C   UNL     1       5.089   6.472  18.300  0.00  0.00    +0.000 A 
ATOM      6  C   UNL     1       6.396   6.558  17.807  0.00  0.00    +0.000 A 
ATOM      7  C   UNL     1       6.507   6.176  16.480  0.00  0.00    +0.000 A 
ATOM      8  N   UNL     1       7.625   5.863  15.758  0.00  0.00    +0.000 N 
ATOM      9  C   UNL     1       7.226   5.313  14.583  0.00  0.00    +0.000 A 
ATOM     10  N   UNL     1       8.179   4.845  13.768  0.00  0.00    +0.000 N 
ATOM     11  N   UNL     1       5.892   5.321  14.484  0.00  0.00    +0.000 NA
ATOM     12  C   UNL     1       5.417   5.877  15.670  0.00  0.00    +0.000 A 
ATOM     13  C   UNL     1       4.083   6.106  16.197  0.00  0.00    +0.000 A 
ATOM     14  C   UNL     1       3.900   6.528  17.557  0.00  0.00    +0.000 A 
ATOM     15  H   UNL     1       8.579   5.931  16.067  0.00  0.00    +0.000 HD
ATOM     16  H   UNL     1       9.163   5.010  13.907  0.00  0.00    +0.000 HD
ATOM     17  H   UNL     1       7.925   4.459  12.850  0.00  0.00    +0.000 HD
ENDROOT
BRANCH   1  20
ATOM     18  C   UNL     1       1.249  10.124  18.993  0.00  0.00    +0.000 A 
ATOM     19  C   UNL     1       1.681   8.921  18.365  0.00  0.00    +0.000 A 
ATOM     20  C   UNL     1       1.879   7.721  19.077  0.00  0.00    +0.000 A 
ATOM     21  C   UNL     1       1.720   7.838  20.484  0.00  0.00    +0.000 A 
ATOM     22  C   UNL     1       1.296   9.045  21.143  0.00  0.00    +0.000 A 
ATOM     23  C   UNL     1       0.984  10.179  20.373  0.00  0.00    +0.000 A 
BRANCH  18  25
ATOM     24  C   UNL     1       2.389  12.051  18.160  0.00  0.00    +0.000 C 
ATOM     25  O   UNL     1       1.184  11.327  18.332  0.00  0.00    +0.000 OA
ENDBRANCH  18  25
BRANCH  22  26
ATOM     26  O   UNL     1       1.272   8.944  22.520  0.00  0.00    +0.000 OA
ATOM     27  C   UNL     1       0.078   9.280  23.231  0.00  0.00    +0.000 C 
ENDBRANCH  22  26
BRANCH  23  28
ATOM     28  O   UNL     1       0.609  11.347  20.995  0.00  0.00    +0.000 OA
ATOM     29  C   UNL     1      -0.758  11.748  20.855  0.00  0.00    +0.000 C 
ENDBRANCH  23  28
ENDBRANCH   1  20
BRANCH   3  30
ATOM     30  N   UNL     1       4.234   3.481  19.504  0.00  0.00    +0.000 N 
ATOM     31  H   UNL     1       4.980   3.249  18.840  0.00  0.00    +0.000 HD
ATOM     32  H   UNL     1       4.552   3.158  20.422  0.00  0.00    +0.000 HD
ENDBRANCH   3  30
BRANCH   2  33
ATOM     33  C   UNL     1       1.639   4.634  20.118  0.00  0.00    +0.000 C 
ATOM     34  N   UNL     1       0.688   3.996  20.646  0.00  0.00    +0.000 NA
ENDBRANCH   2  33
TORSDOF 6
ENDMDL
MODEL 8
REMARK VINA RESULT:      -6.5      6.672      9.286
REMARK  Name = 
REMARK  9 active torsions:
REMARK  status: ('A' for Active; 'I' for Inactive)
REMARK    1  A    between atoms: C_1  and  O_2
REMARK    2  A    between atoms: O_2  and  C_3
REMARK    3  A    between atoms: C_5  and  C_6
REMARK    4  A    between atoms: C_7  and  C_8
REMARK    5  A    between atoms: C_10  and  N_11
REMARK    6  A    between atoms: C_24  and  O_25
REMARK    7  A    between atoms: O_25  and  C_26
REMARK    8  A    between atoms: C_27  and  O_28
REMARK    9  A    between atoms: O_28  and  C_29
REMARK                            x       y       z     vdW  Elec       q    Type
REMARK                         _______ _______ _______ _____ _____    ______ ____
ROOT
ATOM      1  C   UNL     1      -2.152  12.353  18.960  0.00  0.00    +0.000 C 
ATOM      2  C   UNL     1      -1.815  10.911  18.586  0.00  0.00    +0.000 C 
ATOM      3  C   UNL     1      -0.577  10.463  18.819  0.00  0.00    +0.000 C 
ATOM      4  O   UNL     1       0.006  10.813  20.026  0.00  0.00    +0.000 OA
ATOM      5  C   UNL     1       0.018  12.186  20.277  0.00  0.00    +0.000 A 
ATOM      6  C   UNL     1       1.233  12.527  20.881  0.00  0.00    +0.000 A 
ATOM      7  C   UNL     1       1.906  13.543  20.224  0.00  0.00    +0.000 A 
ATOM      8  N   UNL     1       3.209  13.939  20.342  0.00  0.00    +0.000 N 
ATOM      9  C   UNL     1       3.480  14.802  19.328  0.00  0.00    +0.000 A 
ATOM     10  N   UNL     1       4.741  15.232  19.208  0.00  0.00    +0.000 N 
ATOM     11  N   UNL     1       2.384  15.035  18.599  0.00  0.00    +0.000 NA
ATOM     12  C   UNL     1       1.371  14.258  19.157  0.00  0.00    +0.000 A 
ATOM     13  C   UNL     1      -0.017  14.024  18.797  0.00  0.00    +0.000 A 
ATOM     14  C   UNL     1      -0.778  13.003  19.460  0.00  0.00    +0.000 A 
ATOM     15  H   UNL     1       3.887  13.590  20.996  0.00  0.00    +0.000 HD
ATOM     16  H   UNL     1       5.454  15.074  19.902  0.00  0.00    +0.000 HD
ATOM     17  H   UNL     1       4.982  15.919  18.481  0.00  0.00    +0.000 HD
ENDROOT
BRANCH   1  20
ATOM     18  C   UNL     1      -5.959  12.409  19.924  0.00  0.00    +0.000 A 
ATOM     19  C   UNL     1      -4.744  12.224  19.207  0.00  0.00    +0.000 A 
ATOM     20  C   UNL     1      -3.477  12.362  19.808  0.00  0.00    +0.000 A 
ATOM     21  C   UNL     1      -3.511  12.807  21.157  0.00  0.00    +0.000 A 
ATOM     22  C   UNL     1      -4.727  13.013  21.901  0.00  0.00    +0.000 A 
ATOM     23  C   UNL     1      -5.963  12.734  21.292  0.00  0.00    +0.000 A 
BRANCH  18  25
ATOM     24  C   UNL     1      -7.231  12.561  17.908  0.00  0.00    +0.000 C 
ATOM     25  O   UNL     1      -7.191  12.410  19.315  0.00  0.00    +0.000 OA
ENDBRANCH  18  25
BRANCH  22  26
ATOM     26  O   UNL     1      -4.519  13.508  23.173  0.00  0.00    +0.000 OA
ATOM     27  C   UNL     1      -4.195  12.607  24.236  0.00  0.00    +0.000 C 
ENDBRANCH  22  26
BRANCH  23  28
ATOM     28  O   UNL     1      -7.131  12.958  21.983  0.00  0.00    +0.000 OA
ATOM     29  C   UNL     1      -7.650  11.868  22.753  0.00  0.00    +0.000 C 
ENDBRANCH  23  28
ENDBRANCH   1  20
BRANCH   3  30
ATOM     30  N   UNL     1       0.247   9.917  17.843  0.00  0.00    +0.000 N 
ATOM     31  H   UNL     1      -0.247   9.238  17.254  0.00  0.00    +0.000 HD
ATOM     32  H   UNL     1       0.557  10.669  17.221  0.00  0.00    +0.000 HD
ENDBRANCH   3  30
BRANCH   2  33
ATOM     33  C   UNL     1      -2.638  10.133  17.572  0.00  0.00    +0.000 C 
ATOM     34  N   UNL     1      -3.320   9.487  16.731  0.00  0.00    +0.000 NA
ENDBRANCH   2  33
TORSDOF 6
ENDMDL
MODEL 9
REMARK VINA RESULT:      -6.5      6.557      9.079
REMARK  Name = 
REMARK  9 active torsions:
REMARK  status: ('A' for Active; 'I' for Inactive)
REMARK    1  A    between atoms: C_1  and  O_2
REMARK    2  A    between atoms: O_2  and  C_3
REMARK    3  A    between atoms: C_5  and  C_6
REMARK    4  A    between atoms: C_7  and  C_8
REMARK    5  A    between atoms: C_10  and  N_11
REMARK    6  A    between atoms: C_24  and  O_25
REMARK    7  A    between atoms: O_25  and  C_26
REMARK    8  A    between atoms: C_27  and  O_28
REMARK    9  A    between atoms: O_28  and  C_29
REMARK                            x       y       z     vdW  Elec       q    Type
REMARK                         _______ _______ _______ _____ _____    ______ ____
ROOT
ATOM      1  C   UNL     1      -1.677  12.512  19.244  0.00  0.00    +0.000 C 
ATOM      2  C   UNL     1      -1.293  11.098  18.813  0.00  0.00    +0.000 C 
ATOM      3  C   UNL     1      -0.004  10.745  18.856  0.00  0.00    +0.000 C 
ATOM      4  O   UNL     1       0.725  11.141  19.965  0.00  0.00    +0.000 OA
ATOM      5  C   UNL     1       0.672  12.513  20.222  0.00  0.00    +0.000 A 
ATOM      6  C   UNL     1       1.934  12.946  20.641  0.00  0.00    +0.000 A 
ATOM      7  C   UNL     1       2.424  14.008  19.897  0.00  0.00    +0.000 A 
ATOM      8  N   UNL     1       3.697  14.501  19.823  0.00  0.00    +0.000 N 
ATOM      9  C   UNL     1       3.747  15.377  18.787  0.00  0.00    +0.000 A 
ATOM     10  N   UNL     1       4.941  15.901  18.483  0.00  0.00    +0.000 N 
ATOM     11  N   UNL     1       2.540  15.525  18.231  0.00  0.00    +0.000 NA
ATOM     12  C   UNL     1       1.683  14.676  18.928  0.00  0.00    +0.000 A 
ATOM     13  C   UNL     1       0.278  14.337  18.778  0.00  0.00    +0.000 A 
ATOM     14  C   UNL     1      -0.296  13.265  19.539  0.00  0.00    +0.000 A 
ATOM     15  H   UNL     1       4.489  14.206  20.366  0.00  0.00    +0.000 HD
ATOM     16  H   UNL     1       5.759  15.799  19.062  0.00  0.00    +0.000 HD
ATOM     17  H   UNL     1       5.019  16.601  17.734  0.00  0.00    +0.000 HD
ENDROOT
BRANCH   1  20
ATOM     18  C   UNL     1      -5.282  12.590  20.803  0.00  0.00    +0.000 A 
ATOM     19  C   UNL     1      -4.206  12.485  19.876  0.00  0.00    +0.000 A 
ATOM     20  C   UNL     1      -2.857  12.424  20.281  0.00  0.00    +0.000 A 
ATOM     21  C   UNL     1      -2.654  12.587  21.677  0.00  0.00    +0.000 A 
ATOM     22  C   UNL     1      -3.724  12.707  22.633  0.00  0.00    +0.000 A 
ATOM     23  C   UNL     1      -5.056  12.630  22.190  0.00  0.00    +0.000 A 
BRANCH  18  25
ATOM     24  C   UNL     1      -7.239  11.725  19.740  0.00  0.00    +0.000 C 
ATOM     25  O   UNL     1      -6.585  12.786  20.412  0.00  0.00    +0.000 OA
ENDBRANCH  18  25
BRANCH  22  26
ATOM     26  O   UNL     1      -3.289  12.919  23.926  0.00  0.00    +0.000 OA
ATOM     27  C   UNL     1      -2.834  14.218  24.313  0.00  0.00    +0.000 C 
ENDBRANCH  22  26
BRANCH  23  28
ATOM     28  O   UNL     1      -6.086  12.775  23.091  0.00  0.00    +0.000 OA
ATOM     29  C   UNL     1      -6.447  14.112  23.454  0.00  0.00    +0.000 C 
ENDBRANCH  23  28
ENDBRANCH   1  20
BRANCH   3  30
ATOM     30  N   UNL     1       0.703  10.258  17.763  0.00  0.00    +0.000 N 
ATOM     31  H   UNL     1       1.716  10.375  17.874  0.00  0.00    +0.000 HD
ATOM     32  H   UNL     1       0.533   9.252  17.688  0.00  0.00    +0.000 HD
ENDBRANCH   3  30
BRANCH   2  33
ATOM     33  C   UNL     1      -2.197  10.256  17.927  0.00  0.00    +0.000 C 
ATOM     34  N   UNL     1      -2.947   9.558  17.192  0.00  0.00    +0.000 NA
ENDBRANCH   2  33
TORSDOF 6
ENDMDL
