MODEL 1
REMARK VINA RESULT:      -7.6      0.000      0.000
REMARK  Name = 
REMARK  4 active torsions:
REMARK  status: ('A' for Active; 'I' for Inactive)
REMARK    1  A    between atoms: C_2  and  C_3
REMARK    2  A    between atoms: C_2  and  C_11
REMARK    3  A    between atoms: C_3  and  C_4
REMARK    4  A    between atoms: C_4  and  C_5
REMARK                            x       y       z     vdW  Elec       q    Type
REMARK                         _______ _______ _______ _____ _____    ______ ____
ROOT
ATOM      1  C   UNL     1       4.551   3.338  17.645  0.00  0.00    +0.000 A 
ATOM      2  C   UNL     1       4.468   3.836  16.339  0.00  0.00    +0.000 A 
ATOM      3  C   UNL     1       5.324   4.865  15.938  0.00  0.00    +0.000 A 
ATOM      4  C   UNL     1       6.278   5.371  16.824  0.00  0.00    +0.000 A 
ATOM      5  C   UNL     1       6.476   4.748  18.055  0.00  0.00    +0.000 A 
ATOM      6  C   UNL     1       5.589   3.767  18.482  0.00  0.00    +0.000 A 
ATOM      7  O   UNL     1       7.620   4.884  18.791  0.00  0.00    +0.000 OA
ATOM      8  C   UNL     1       7.821   6.166  19.370  0.00  0.00    +0.000 C 
ATOM      9  C   UNL     1       8.194   7.228  18.350  0.00  0.00    +0.000 C 
ATOM     10  C   UNL     1       7.036   7.481  17.403  0.00  0.00    +0.000 C 
ATOM     11  O   UNL     1       6.984   6.462  16.396  0.00  0.00    +0.000 OA
ENDROOT
BRANCH   1  13
ATOM     12  O   UNL     1       3.921   1.649  19.144  0.00  0.00    +0.000 OA
ATOM     13  C   UNL     1       3.571   2.366  18.208  0.00  0.00    +0.000 C 
BRANCH  13  14
ATOM     14  C   UNL     1       2.174   2.315  17.632  0.00  0.00    +0.000 C 
BRANCH  14  15
ATOM     15  C   UNL     1       1.174   2.929  18.610  0.00  0.00    +0.000 C 
BRANCH  15  16
ATOM     16  C   UNL     1       1.554   4.339  18.976  0.00  0.00    +0.000 A 
ATOM     17  C   UNL     1       1.839   5.274  17.974  0.00  0.00    +0.000 A 
ATOM     18  C   UNL     1       2.210   6.581  18.313  0.00  0.00    +0.000 A 
ATOM     19  C   UNL     1       2.296   6.950  19.653  0.00  0.00    +0.000 A 
ATOM     20  C   UNL     1       2.023   6.023  20.655  0.00  0.00    +0.000 A 
ATOM     21  C   UNL     1       1.655   4.720  20.319  0.00  0.00    +0.000 A 
ENDBRANCH  15  16
ENDBRANCH  14  15
ENDBRANCH  13  14
ENDBRANCH   1  13
TORSDOF 4
ENDMDL
MODEL 2
REMARK VINA RESULT:      -7.6      1.036      1.756
REMARK  Name = 
REMARK  4 active torsions:
REMARK  status: ('A' for Active; 'I' for Inactive)
REMARK    1  A    between atoms: C_2  and  C_3
REMARK    2  A    between atoms: C_2  and  C_11
REMARK    3  A    between atoms: C_3  and  C_4
REMARK    4  A    between atoms: C_4  and  C_5
REMARK                            x       y       z     vdW  Elec       q    Type
REMARK                         _______ _______ _______ _____ _____    ______ ____
ROOT
ATOM      1  C   UNL     1       4.613   3.710  16.961  0.00  0.00    +0.000 A 
ATOM      2  C   UNL     1       4.817   4.309  15.712  0.00  0.00    +0.000 A 
ATOM      3  C   UNL     1       5.820   5.271  15.563  0.00  0.00    +0.000 A 
ATOM      4  C   UNL     1       6.633   5.610  16.646  0.00  0.00    +0.000 A 
ATOM      5  C   UNL     1       6.544   4.881  17.832  0.00  0.00    +0.000 A 
ATOM      6  C   UNL     1       5.511   3.968  18.004  0.00  0.00    +0.000 A 
ATOM      7  O   UNL     1       7.540   4.845  18.768  0.00  0.00    +0.000 OA
ATOM      8  C   UNL     1       7.742   6.054  19.487  0.00  0.00    +0.000 C 
ATOM      9  C   UNL     1       8.389   7.144  18.650  0.00  0.00    +0.000 C 
ATOM     10  C   UNL     1       7.453   7.583  17.540  0.00  0.00    +0.000 C 
ATOM     11  O   UNL     1       7.499   6.651  16.451  0.00  0.00    +0.000 OA
ENDROOT
BRANCH   1  13
ATOM     12  O   UNL     1       3.682   1.737  17.818  0.00  0.00    +0.000 OA
ATOM     13  C   UNL     1       3.464   2.806  17.250  0.00  0.00    +0.000 C 
BRANCH  13  14
ATOM     14  C   UNL     1       2.069   3.244  16.866  0.00  0.00    +0.000 C 
BRANCH  14  15
ATOM     15  C   UNL     1       1.612   4.400  17.754  0.00  0.00    +0.000 C 
BRANCH  15  16
ATOM     16  C   UNL     1       1.714   4.048  19.215  0.00  0.00    +0.000 A 
ATOM     17  C   UNL     1       2.511   4.817  20.070  0.00  0.00    +0.000 A 
ATOM     18  C   UNL     1       2.621   4.481  21.425  0.00  0.00    +0.000 A 
ATOM     19  C   UNL     1       1.934   3.377  21.921  0.00  0.00    +0.000 A 
ATOM     20  C   UNL     1       1.145   2.602  21.075  0.00  0.00    +0.000 A 
ATOM     21  C   UNL     1       1.037   2.934  19.724  0.00  0.00    +0.000 A 
ENDBRANCH  15  16
ENDBRANCH  14  15
ENDBRANCH  13  14
ENDBRANCH   1  13
TORSDOF 4
ENDMDL
MODEL 3
REMARK VINA RESULT:      -7.6      1.044      1.789
REMARK  Name = 
REMARK  4 active torsions:
REMARK  status: ('A' for Active; 'I' for Inactive)
REMARK    1  A    between atoms: C_2  and  C_3
REMARK    2  A    between atoms: C_2  and  C_11
REMARK    3  A    between atoms: C_3  and  C_4
REMARK    4  A    between atoms: C_4  and  C_5
REMARK                            x       y       z     vdW  Elec       q    Type
REMARK                         _______ _______ _______ _____ _____    ______ ____
ROOT
ATOM      1  C   UNL     1       4.624   3.736  16.934  0.00  0.00    +0.000 A 
ATOM      2  C   UNL     1       4.826   4.339  15.687  0.00  0.00    +0.000 A 
ATOM      3  C   UNL     1       5.827   5.304  15.541  0.00  0.00    +0.000 A 
ATOM      4  C   UNL     1       6.640   5.641  16.624  0.00  0.00    +0.000 A 
ATOM      5  C   UNL     1       6.554   4.908  17.808  0.00  0.00    +0.000 A 
ATOM      6  C   UNL     1       5.522   3.992  17.977  0.00  0.00    +0.000 A 
ATOM      7  O   UNL     1       7.550   4.871  18.743  0.00  0.00    +0.000 OA
ATOM      8  C   UNL     1       7.750   6.078  19.467  0.00  0.00    +0.000 C 
ATOM      9  C   UNL     1       8.393   7.172  18.633  0.00  0.00    +0.000 C 
ATOM     10  C   UNL     1       7.456   7.612  17.525  0.00  0.00    +0.000 C 
ATOM     11  O   UNL     1       7.503   6.684  16.433  0.00  0.00    +0.000 OA
ENDROOT
BRANCH   1  13
ATOM     12  O   UNL     1       3.699   1.755  17.781  0.00  0.00    +0.000 OA
ATOM     13  C   UNL     1       3.478   2.827  17.221  0.00  0.00    +0.000 C 
BRANCH  13  14
ATOM     14  C   UNL     1       2.081   3.266  16.844  0.00  0.00    +0.000 C 
BRANCH  14  15
ATOM     15  C   UNL     1       1.620   4.407  17.749  0.00  0.00    +0.000 C 
BRANCH  15  16
ATOM     16  C   UNL     1       1.739   4.039  19.205  0.00  0.00    +0.000 A 
ATOM     17  C   UNL     1       1.047   2.932  19.710  0.00  0.00    +0.000 A 
ATOM     18  C   UNL     1       1.143   2.599  21.066  0.00  0.00    +0.000 A 
ATOM     19  C   UNL     1       1.927   3.374  21.915  0.00  0.00    +0.000 A 
ATOM     20  C   UNL     1       2.611   4.483  21.422  0.00  0.00    +0.000 A 
ATOM     21  C   UNL     1       2.516   4.817  20.071  0.00  0.00    +0.000 A 
ENDBRANCH  15  16
ENDBRANCH  14  15
ENDBRANCH  13  14
ENDBRANCH   1  13
TORSDOF 4
ENDMDL
MODEL 4
REMARK VINA RESULT:      -7.4      1.888      3.944
REMARK  Name = 
REMARK  4 active torsions:
REMARK  status: ('A' for Active; 'I' for Inactive)
REMARK    1  A    between atoms: C_2  and  C_3
REMARK    2  A    between atoms: C_2  and  C_11
REMARK    3  A    between atoms: C_3  and  C_4
REMARK    4  A    between atoms: C_4  and  C_5
REMARK                            x       y       z     vdW  Elec       q    Type
REMARK                         _______ _______ _______ _____ _____    ______ ____
ROOT
ATOM      1  C   UNL     1       3.867   6.140  18.861  0.00  0.00    +0.000 A 
ATOM      2  C   UNL     1       4.891   5.486  19.556  0.00  0.00    +0.000 A 
ATOM      3  C   UNL     1       5.989   4.980  18.854  0.00  0.00    +0.000 A 
ATOM      4  C   UNL     1       6.079   5.155  17.472  0.00  0.00    +0.000 A 
ATOM      5  C   UNL     1       5.151   5.963  16.816  0.00  0.00    +0.000 A 
ATOM      6  C   UNL     1       4.027   6.415  17.497  0.00  0.00    +0.000 A 
ATOM      7  O   UNL     1       5.378   6.526  15.591  0.00  0.00    +0.000 OA
ATOM      8  C   UNL     1       5.408   5.617  14.500  0.00  0.00    +0.000 C 
ATOM      9  C   UNL     1       6.656   4.751  14.480  0.00  0.00    +0.000 C 
ATOM     10  C   UNL     1       6.672   3.819  15.676  0.00  0.00    +0.000 C 
ATOM     11  O   UNL     1       7.115   4.517  16.847  0.00  0.00    +0.000 OA
ENDROOT
BRANCH   1  13
ATOM     12  O   UNL     1       1.999   7.542  19.057  0.00  0.00    +0.000 OA
ATOM     13  C   UNL     1       2.588   6.558  19.501  0.00  0.00    +0.000 C 
BRANCH  13  14
ATOM     14  C   UNL     1       2.042   5.744  20.652  0.00  0.00    +0.000 C 
BRANCH  14  15
ATOM     15  C   UNL     1       1.151   4.618  20.130  0.00  0.00    +0.000 C 
BRANCH  15  16
ATOM     16  C   UNL     1       1.956   3.560  19.422  0.00  0.00    +0.000 A 
ATOM     17  C   UNL     1       2.881   2.787  20.132  0.00  0.00    +0.000 A 
ATOM     18  C   UNL     1       3.643   1.814  19.473  0.00  0.00    +0.000 A 
ATOM     19  C   UNL     1       3.478   1.618  18.105  0.00  0.00    +0.000 A 
ATOM     20  C   UNL     1       2.566   2.390  17.389  0.00  0.00    +0.000 A 
ATOM     21  C   UNL     1       1.808   3.360  18.045  0.00  0.00    +0.000 A 
ENDBRANCH  15  16
ENDBRANCH  14  15
ENDBRANCH  13  14
ENDBRANCH   1  13
TORSDOF 4
ENDMDL
MODEL 5
REMARK VINA RESULT:      -7.4      2.711      6.972
REMARK  Name = 
REMARK  4 active torsions:
REMARK  status: ('A' for Active; 'I' for Inactive)
REMARK    1  A    between atoms: C_2  and  C_3
REMARK    2  A    between atoms: C_2  and  C_11
REMARK    3  A    between atoms: C_3  and  C_4
REMARK    4  A    between atoms: C_4  and  C_5
REMARK                            x       y       z     vdW  Elec       q    Type
REMARK                         _______ _______ _______ _____ _____    ______ ____
ROOT
ATOM      1  C   UNL     1       5.923   6.405  17.685  0.00  0.00    +0.000 A 
ATOM      2  C   UNL     1       4.794   7.219  17.532  0.00  0.00    +0.000 A 
ATOM      3  C   UNL     1       3.524   6.691  17.776  0.00  0.00    +0.000 A 
ATOM      4  C   UNL     1       3.383   5.368  18.201  0.00  0.00    +0.000 A 
ATOM      5  C   UNL     1       4.516   4.623  18.526  0.00  0.00    +0.000 A 
ATOM      6  C   UNL     1       5.779   5.122  18.228  0.00  0.00    +0.000 A 
ATOM      7  O   UNL     1       4.482   3.513  19.323  0.00  0.00    +0.000 OA
ATOM      8  C   UNL     1       3.856   2.373  18.752  0.00  0.00    +0.000 C 
ATOM      9  C   UNL     1       2.346   2.510  18.653  0.00  0.00    +0.000 C 
ATOM     10  C   UNL     1       1.978   3.606  17.671  0.00  0.00    +0.000 C 
ATOM     11  O   UNL     1       2.104   4.893  18.290  0.00  0.00    +0.000 OA
ENDROOT
BRANCH   1  13
ATOM     12  O   UNL     1       7.737   6.456  16.202  0.00  0.00    +0.000 OA
ATOM     13  C   UNL     1       7.294   6.832  17.286  0.00  0.00    +0.000 C 
BRANCH  13  14
ATOM     14  C   UNL     1       8.080   7.737  18.208  0.00  0.00    +0.000 C 
BRANCH  14  15
ATOM     15  C   UNL     1       7.984   9.187  17.737  0.00  0.00    +0.000 C 
BRANCH  15  16
ATOM     16  C   UNL     1       8.967  10.068  18.460  0.00  0.00    +0.000 A 
ATOM     17  C   UNL     1       8.985  10.103  19.859  0.00  0.00    +0.000 A 
ATOM     18  C   UNL     1       9.888  10.936  20.532  0.00  0.00    +0.000 A 
ATOM     19  C   UNL     1      10.768  11.732  19.806  0.00  0.00    +0.000 A 
ATOM     20  C   UNL     1      10.750  11.710  18.414  0.00  0.00    +0.000 A 
ATOM     21  C   UNL     1       9.851  10.882  17.742  0.00  0.00    +0.000 A 
ENDBRANCH  15  16
ENDBRANCH  14  15
ENDBRANCH  13  14
ENDBRANCH   1  13
TORSDOF 4
ENDMDL
MODEL 6
REMARK VINA RESULT:      -7.3      2.516      6.388
REMARK  Name = 
REMARK  4 active torsions:
REMARK  status: ('A' for Active; 'I' for Inactive)
REMARK    1  A    between atoms: C_2  and  C_3
REMARK    2  A    between atoms: C_2  and  C_11
REMARK    3  A    between atoms: C_3  and  C_4
REMARK    4  A    between atoms: C_4  and  C_5
REMARK                            x       y       z     vdW  Elec       q    Type
REMARK                         _______ _______ _______ _____ _____    ______ ____
ROOT
ATOM      1  C   UNL     1       4.407   6.275  17.559  0.00  0.00    +0.000 A 
ATOM      2  C   UNL     1       3.442   7.218  17.934  0.00  0.00    +0.000 A 
ATOM      3  C   UNL     1       2.496   6.888  18.908  0.00  0.00    +0.000 A 
ATOM      4  C   UNL     1       2.533   5.636  19.526  0.00  0.00    +0.000 A 
ATOM      5  C   UNL     1       3.603   4.775  19.280  0.00  0.00    +0.000 A 
ATOM      6  C   UNL     1       4.509   5.073  18.270  0.00  0.00    +0.000 A 
ATOM      7  O   UNL     1       3.949   3.751  20.116  0.00  0.00    +0.000 OA
ATOM      8  C   UNL     1       3.038   2.661  20.153  0.00  0.00    +0.000 C 
ATOM      9  C   UNL     1       1.745   2.992  20.880  0.00  0.00    +0.000 C 
ATOM     10  C   UNL     1       0.962   4.041  20.115  0.00  0.00    +0.000 C 
ATOM     11  O   UNL     1       1.496   5.347  20.369  0.00  0.00    +0.000 OA
ENDROOT
BRANCH   1  13
ATOM     12  O   UNL     1       4.903   6.959  15.372  0.00  0.00    +0.000 OA
ATOM     13  C   UNL     1       5.342   6.480  16.416  0.00  0.00    +0.000 C 
BRANCH  13  14
ATOM     14  C   UNL     1       6.801   6.121  16.587  0.00  0.00    +0.000 C 
BRANCH  14  15
ATOM     15  C   UNL     1       7.048   4.679  16.148  0.00  0.00    +0.000 C 
BRANCH  15  16
ATOM     16  C   UNL     1       6.968   4.536  14.652  0.00  0.00    +0.000 A 
ATOM     17  C   UNL     1       6.080   3.617  14.080  0.00  0.00    +0.000 A 
ATOM     18  C   UNL     1       6.016   3.469  12.689  0.00  0.00    +0.000 A 
ATOM     19  C   UNL     1       6.840   4.240  11.873  0.00  0.00    +0.000 A 
ATOM     20  C   UNL     1       7.732   5.150  12.435  0.00  0.00    +0.000 A 
ATOM     21  C   UNL     1       7.798   5.296  13.821  0.00  0.00    +0.000 A 
ENDBRANCH  15  16
ENDBRANCH  14  15
ENDBRANCH  13  14
ENDBRANCH   1  13
TORSDOF 4
ENDMDL
MODEL 7
REMARK VINA RESULT:      -7.3      1.888      3.829
REMARK  Name = 
REMARK  4 active torsions:
REMARK  status: ('A' for Active; 'I' for Inactive)
REMARK    1  A    between atoms: C_2  and  C_3
REMARK    2  A    between atoms: C_2  and  C_11
REMARK    3  A    between atoms: C_3  and  C_4
REMARK    4  A    between atoms: C_4  and  C_5
REMARK                            x       y       z     vdW  Elec       q    Type
REMARK                         _______ _______ _______ _____ _____    ______ ____
ROOT
ATOM      1  C   UNL     1       3.863   6.148  18.874  0.00  0.00    +0.000 A 
ATOM      2  C   UNL     1       4.874   5.467  19.562  0.00  0.00    +0.000 A 
ATOM      3  C   UNL     1       5.962   4.947  18.855  0.00  0.00    +0.000 A 
ATOM      4  C   UNL     1       6.055   5.133  17.474  0.00  0.00    +0.000 A 
ATOM      5  C   UNL     1       5.142   5.966  16.827  0.00  0.00    +0.000 A 
ATOM      6  C   UNL     1       4.028   6.434  17.513  0.00  0.00    +0.000 A 
ATOM      7  O   UNL     1       5.381   6.537  15.608  0.00  0.00    +0.000 OA
ATOM      8  C   UNL     1       5.392   5.639  14.507  0.00  0.00    +0.000 C 
ATOM      9  C   UNL     1       6.624   4.750  14.478  0.00  0.00    +0.000 C 
ATOM     10  C   UNL     1       6.622   3.805  15.664  0.00  0.00    +0.000 C 
ATOM     11  O   UNL     1       7.078   4.482  16.843  0.00  0.00    +0.000 OA
ENDROOT
BRANCH   1  13
ATOM     12  O   UNL     1       2.037   7.599  19.103  0.00  0.00    +0.000 OA
ATOM     13  C   UNL     1       2.593   6.584  19.519  0.00  0.00    +0.000 C 
BRANCH  13  14
ATOM     14  C   UNL     1       2.014   5.751  20.641  0.00  0.00    +0.000 C 
BRANCH  14  15
ATOM     15  C   UNL     1       1.147   4.628  20.074  0.00  0.00    +0.000 C 
BRANCH  15  16
ATOM     16  C   UNL     1       1.981   3.580  19.385  0.00  0.00    +0.000 A 
ATOM     17  C   UNL     1       1.842   3.364  18.009  0.00  0.00    +0.000 A 
ATOM     18  C   UNL     1       2.603   2.379  17.369  0.00  0.00    +0.000 A 
ATOM     19  C   UNL     1       3.500   1.611  18.106  0.00  0.00    +0.000 A 
ATOM     20  C   UNL     1       3.637   1.814  19.477  0.00  0.00    +0.000 A 
ATOM     21  C   UNL     1       2.878   2.794  20.116  0.00  0.00    +0.000 A 
ENDBRANCH  15  16
ENDBRANCH  14  15
ENDBRANCH  13  14
ENDBRANCH   1  13
TORSDOF 4
ENDMDL
MODEL 8
REMARK VINA RESULT:      -7.2      4.717      7.537
REMARK  Name = 
REMARK  4 active torsions:
REMARK  status: ('A' for Active; 'I' for Inactive)
REMARK    1  A    between atoms: C_2  and  C_3
REMARK    2  A    between atoms: C_2  and  C_11
REMARK    3  A    between atoms: C_3  and  C_4
REMARK    4  A    between atoms: C_4  and  C_5
REMARK                            x       y       z     vdW  Elec       q    Type
REMARK                         _______ _______ _______ _____ _____    ______ ____
ROOT
ATOM      1  C   UNL     1       1.319   8.751  19.490  0.00  0.00    +0.000 A 
ATOM      2  C   UNL     1       1.372   8.262  20.800  0.00  0.00    +0.000 A 
ATOM      3  C   UNL     1       0.611   8.876  21.798  0.00  0.00    +0.000 A 
ATOM      4  C   UNL     1      -0.221   9.952  21.484  0.00  0.00    +0.000 A 
ATOM      5  C   UNL     1      -0.407  10.315  20.150  0.00  0.00    +0.000 A 
ATOM      6  C   UNL     1       0.392   9.748  19.164  0.00  0.00    +0.000 A 
ATOM      7  O   UNL     1      -1.479  11.041  19.712  0.00  0.00    +0.000 OA
ATOM      8  C   UNL     1      -1.499  12.402  20.119  0.00  0.00    +0.000 C 
ATOM      9  C   UNL     1      -1.817  12.577  21.594  0.00  0.00    +0.000 C 
ATOM     10  C   UNL     1      -0.703  12.003  22.447  0.00  0.00    +0.000 C 
ATOM     11  O   UNL     1      -0.828  10.577  22.538  0.00  0.00    +0.000 OA
ENDROOT
BRANCH   1  13
ATOM     12  O   UNL     1       2.241   8.881  17.339  0.00  0.00    +0.000 OA
ATOM     13  C   UNL     1       2.220   8.268  18.405  0.00  0.00    +0.000 C 
BRANCH  13  14
ATOM     14  C   UNL     1       3.097   7.064  18.660  0.00  0.00    +0.000 C 
BRANCH  14  15
ATOM     15  C   UNL     1       2.503   5.824  17.995  0.00  0.00    +0.000 C 
BRANCH  15  16
ATOM     16  C   UNL     1       2.059   4.809  19.015  0.00  0.00    +0.000 A 
ATOM     17  C   UNL     1       2.469   4.925  20.348  0.00  0.00    +0.000 A 
ATOM     18  C   UNL     1       2.071   3.973  21.294  0.00  0.00    +0.000 A 
ATOM     19  C   UNL     1       1.267   2.906  20.905  0.00  0.00    +0.000 A 
ATOM     20  C   UNL     1       0.862   2.778  19.579  0.00  0.00    +0.000 A 
ATOM     21  C   UNL     1       1.259   3.725  18.635  0.00  0.00    +0.000 A 
ENDBRANCH  15  16
ENDBRANCH  14  15
ENDBRANCH  13  14
ENDBRANCH   1  13
TORSDOF 4
ENDMDL
MODEL 9
REMARK VINA RESULT:      -7.2      0.858      1.325
REMARK  Name = 
REMARK  4 active torsions:
REMARK  status: ('A' for Active; 'I' for Inactive)
REMARK    1  A    between atoms: C_2  and  C_3
REMARK    2  A    between atoms: C_2  and  C_11
REMARK    3  A    between atoms: C_3  and  C_4
REMARK    4  A    between atoms: C_4  and  C_5
REMARK                            x       y       z     vdW  Elec       q    Type
REMARK                         _______ _______ _______ _____ _____    ______ ____
ROOT
ATOM      1  C   UNL     1       3.978   3.565  17.973  0.00  0.00    +0.000 A 
ATOM      2  C   UNL     1       3.989   3.940  16.624  0.00  0.00    +0.000 A 
ATOM      3  C   UNL     1       5.007   4.769  16.146  0.00  0.00    +0.000 A 
ATOM      4  C   UNL     1       6.025   5.196  17.002  0.00  0.00    +0.000 A 
ATOM      5  C   UNL     1       6.107   4.672  18.292  0.00  0.00    +0.000 A 
ATOM      6  C   UNL     1       5.066   3.897  18.789  0.00  0.00    +0.000 A 
ATOM      7  O   UNL     1       7.253   4.690  19.038  0.00  0.00    +0.000 OA
ATOM      8  C   UNL     1       7.660   5.972  19.497  0.00  0.00    +0.000 C 
ATOM      9  C   UNL     1       8.211   6.852  18.389  0.00  0.00    +0.000 C 
ATOM     10  C   UNL     1       7.119   7.198  17.395  0.00  0.00    +0.000 C 
ATOM     11  O   UNL     1       6.905   6.108  16.489  0.00  0.00    +0.000 OA
ENDROOT
BRANCH   1  13
ATOM     12  O   UNL     1       2.892   1.600  18.646  0.00  0.00    +0.000 OA
ATOM     13  C   UNL     1       2.846   2.828  18.603  0.00  0.00    +0.000 C 
BRANCH  13  14
ATOM     14  C   UNL     1       1.697   3.612  19.194  0.00  0.00    +0.000 C 
BRANCH  14  15
ATOM     15  C   UNL     1       2.203   4.552  20.287  0.00  0.00    +0.000 C 
BRANCH  15  16
ATOM     16  C   UNL     1       2.034   5.996  19.895  0.00  0.00    +0.000 A 
ATOM     17  C   UNL     1       2.419   6.429  18.620  0.00  0.00    +0.000 A 
ATOM     18  C   UNL     1       2.279   7.775  18.260  0.00  0.00    +0.000 A 
ATOM     19  C   UNL     1       1.757   8.685  19.174  0.00  0.00    +0.000 A 
ATOM     20  C   UNL     1       1.381   8.264  20.447  0.00  0.00    +0.000 A 
ATOM     21  C   UNL     1       1.521   6.924  20.808  0.00  0.00    +0.000 A 
ENDBRANCH  15  16
ENDBRANCH  14  15
ENDBRANCH  13  14
ENDBRANCH   1  13
TORSDOF 4
ENDMDL
