MODEL 1
REMARK VINA RESULT:      -6.4      0.000      0.000
REMARK  Name = 
REMARK  6 active torsions:
REMARK  status: ('A' for Active; 'I' for Inactive)
REMARK    1  A    between atoms: C_1  and  C_2
REMARK    2  A    between atoms: C_2  and  C_3
REMARK    3  A    between atoms: C_2  and  N_4
REMARK    4  A    between atoms: N_6  and  C_7
REMARK    5  A    between atoms: C_7  and  C_8
REMARK    6  A    between atoms: C_8  and  O_9
REMARK                            x       y       z     vdW  Elec       q    Type
REMARK                         _______ _______ _______ _____ _____    ______ ____
ROOT
ATOM      1  N   UNL     1       6.397   5.434  17.212  0.00  0.00    +0.000 N 
ATOM      2  C   UNL     1       6.280   4.892  15.943  0.00  0.00    +0.000 A 
ATOM      3  N   UNL     1       7.279   4.991  15.021  0.00  0.00    +0.000 N 
ATOM      4  N   UNL     1       5.122   4.297  15.791  0.00  0.00    +0.000 NA
ATOM      5  C   UNL     1       4.469   4.424  16.984  0.00  0.00    +0.000 A 
ATOM      6  C   UNL     1       3.216   3.927  17.378  0.00  0.00    +0.000 A 
ATOM      7  C   UNL     1       2.741   4.222  18.661  0.00  0.00    +0.000 A 
ATOM      8  C   UNL     1       3.494   5.012  19.530  0.00  0.00    +0.000 A 
ATOM      9  C   UNL     1       4.754   5.509  19.160  0.00  0.00    +0.000 A 
ATOM     10  C   UNL     1       5.219   5.170  17.885  0.00  0.00    +0.000 A 
ATOM     11  H   UNL     1       8.099   4.450  15.283  0.00  0.00    +0.000 HD
ENDROOT
BRANCH   1  13
ATOM     12  C   UNL     1       7.411   7.681  17.600  0.00  0.00    +0.000 C 
ATOM     13  C   UNL     1       7.523   6.162  17.779  0.00  0.00    +0.000 C 
ATOM     14  C   UNL     1       7.853   5.733  19.209  0.00  0.00    +0.000 C 
ENDBRANCH   1  13
BRANCH   3  15
ATOM     15  C   UNL     1       6.943   4.667  13.621  0.00  0.00    +0.000 C 
BRANCH  15  16
ATOM     16  C   UNL     1       7.952   5.306  12.659  0.00  0.00    +0.000 C 
BRANCH  16  17
ATOM     17  O   UNL     1       8.936   6.028  13.405  0.00  0.00    +0.000 OA
ATOM     18  H   UNL     1       9.523   5.327  13.756  0.00  0.00    +0.000 HD
ENDBRANCH  16  17
ENDBRANCH  15  16
ENDBRANCH   3  15
TORSDOF 4
ENDMDL
MODEL 2
REMARK VINA RESULT:      -6.4      2.199      3.750
REMARK  Name = 
REMARK  6 active torsions:
REMARK  status: ('A' for Active; 'I' for Inactive)
REMARK    1  A    between atoms: C_1  and  C_2
REMARK    2  A    between atoms: C_2  and  C_3
REMARK    3  A    between atoms: C_2  and  N_4
REMARK    4  A    between atoms: N_6  and  C_7
REMARK    5  A    between atoms: C_7  and  C_8
REMARK    6  A    between atoms: C_8  and  O_9
REMARK                            x       y       z     vdW  Elec       q    Type
REMARK                         _______ _______ _______ _____ _____    ______ ____
ROOT
ATOM      1  N   UNL     1       3.749   3.826  18.372  0.00  0.00    +0.000 N 
ATOM      2  C   UNL     1       4.449   4.271  17.263  0.00  0.00    +0.000 A 
ATOM      3  N   UNL     1       5.168   3.423  16.475  0.00  0.00    +0.000 N 
ATOM      4  N   UNL     1       4.305   5.564  17.104  0.00  0.00    +0.000 NA
ATOM      5  C   UNL     1       3.478   5.981  18.108  0.00  0.00    +0.000 A 
ATOM      6  C   UNL     1       2.963   7.261  18.372  0.00  0.00    +0.000 A 
ATOM      7  C   UNL     1       2.150   7.447  19.497  0.00  0.00    +0.000 A 
ATOM      8  C   UNL     1       1.869   6.381  20.351  0.00  0.00    +0.000 A 
ATOM      9  C   UNL     1       2.365   5.092  20.098  0.00  0.00    +0.000 A 
ATOM     10  C   UNL     1       3.145   4.926  18.950  0.00  0.00    +0.000 A 
ATOM     11  H   UNL     1       4.572   2.777  15.962  0.00  0.00    +0.000 HD
ENDROOT
BRANCH   1  13
ATOM     12  C   UNL     1       4.396   2.259  20.204  0.00  0.00    +0.000 C 
ATOM     13  C   UNL     1       3.644   2.466  18.884  0.00  0.00    +0.000 C 
ATOM     14  C   UNL     1       2.206   1.946  18.904  0.00  0.00    +0.000 C 
ENDBRANCH   1  13
BRANCH   3  15
ATOM     15  C   UNL     1       6.119   4.026  15.521  0.00  0.00    +0.000 C 
BRANCH  15  16
ATOM     16  C   UNL     1       7.335   4.601  16.257  0.00  0.00    +0.000 C 
BRANCH  16  17
ATOM     17  O   UNL     1       7.361   6.024  16.103  0.00  0.00    +0.000 OA
ATOM     18  H   UNL     1       6.853   6.350  16.874  0.00  0.00    +0.000 HD
ENDBRANCH  16  17
ENDBRANCH  15  16
ENDBRANCH   3  15
TORSDOF 4
ENDMDL
MODEL 3
REMARK VINA RESULT:      -6.2      2.392      3.736
REMARK  Name = 
REMARK  6 active torsions:
REMARK  status: ('A' for Active; 'I' for Inactive)
REMARK    1  A    between atoms: C_1  and  C_2
REMARK    2  A    between atoms: C_2  and  C_3
REMARK    3  A    between atoms: C_2  and  N_4
REMARK    4  A    between atoms: N_6  and  C_7
REMARK    5  A    between atoms: C_7  and  C_8
REMARK    6  A    between atoms: C_8  and  O_9
REMARK                            x       y       z     vdW  Elec       q    Type
REMARK                         _______ _______ _______ _____ _____    ______ ____
ROOT
ATOM      1  N   UNL     1       3.805   3.838  18.391  0.00  0.00    +0.000 N 
ATOM      2  C   UNL     1       4.547   4.312  17.321  0.00  0.00    +0.000 A 
ATOM      3  N   UNL     1       5.300   3.483  16.544  0.00  0.00    +0.000 N 
ATOM      4  N   UNL     1       4.404   5.607  17.186  0.00  0.00    +0.000 NA
ATOM      5  C   UNL     1       3.536   5.999  18.165  0.00  0.00    +0.000 A 
ATOM      6  C   UNL     1       3.006   7.271  18.438  0.00  0.00    +0.000 A 
ATOM      7  C   UNL     1       2.148   7.429  19.533  0.00  0.00    +0.000 A 
ATOM      8  C   UNL     1       1.837   6.342  20.351  0.00  0.00    +0.000 A 
ATOM      9  C   UNL     1       2.347   5.060  20.088  0.00  0.00    +0.000 A 
ATOM     10  C   UNL     1       3.173   4.924  18.969  0.00  0.00    +0.000 A 
ATOM     11  H   UNL     1       4.729   2.848  15.993  0.00  0.00    +0.000 HD
ENDROOT
BRANCH   1  13
ATOM     12  C   UNL     1       4.395   2.228  20.204  0.00  0.00    +0.000 C 
ATOM     13  C   UNL     1       3.684   2.467  18.867  0.00  0.00    +0.000 C 
ATOM     14  C   UNL     1       2.246   1.948  18.831  0.00  0.00    +0.000 C 
ENDBRANCH   1  13
BRANCH   3  15
ATOM     15  C   UNL     1       6.286   4.111  15.644  0.00  0.00    +0.000 C 
BRANCH  15  16
ATOM     16  C   UNL     1       5.738   4.200  14.214  0.00  0.00    +0.000 C 
BRANCH  16  17
ATOM     17  O   UNL     1       6.386   3.226  13.390  0.00  0.00    +0.000 OA
ATOM     18  H   UNL     1       6.243   3.560  12.480  0.00  0.00    +0.000 HD
ENDBRANCH  16  17
ENDBRANCH  15  16
ENDBRANCH   3  15
TORSDOF 4
ENDMDL
MODEL 4
REMARK VINA RESULT:      -6.2      4.404      6.857
REMARK  Name = 
REMARK  6 active torsions:
REMARK  status: ('A' for Active; 'I' for Inactive)
REMARK    1  A    between atoms: C_1  and  C_2
REMARK    2  A    between atoms: C_2  and  C_3
REMARK    3  A    between atoms: C_2  and  N_4
REMARK    4  A    between atoms: N_6  and  C_7
REMARK    5  A    between atoms: C_7  and  C_8
REMARK    6  A    between atoms: C_8  and  O_9
REMARK                            x       y       z     vdW  Elec       q    Type
REMARK                         _______ _______ _______ _____ _____    ______ ____
ROOT
ATOM      1  N   UNL     1       2.233   5.029  19.775  0.00  0.00    +0.000 N 
ATOM      2  C   UNL     1       2.224   6.405  19.935  0.00  0.00    +0.000 A 
ATOM      3  N   UNL     1       1.514   7.011  20.928  0.00  0.00    +0.000 N 
ATOM      4  N   UNL     1       2.974   6.988  19.032  0.00  0.00    +0.000 NA
ATOM      5  C   UNL     1       3.509   5.984  18.276  0.00  0.00    +0.000 A 
ATOM      6  C   UNL     1       4.418   6.053  17.207  0.00  0.00    +0.000 A 
ATOM      7  C   UNL     1       4.798   4.871  16.560  0.00  0.00    +0.000 A 
ATOM      8  C   UNL     1       4.268   3.644  16.961  0.00  0.00    +0.000 A 
ATOM      9  C   UNL     1       3.367   3.552  18.034  0.00  0.00    +0.000 A 
ATOM     10  C   UNL     1       3.031   4.744  18.684  0.00  0.00    +0.000 A 
ATOM     11  H   UNL     1       1.892   6.808  21.850  0.00  0.00    +0.000 HD
ENDROOT
BRANCH   1  13
ATOM     12  C   UNL     1       0.688   3.069  19.732  0.00  0.00    +0.000 C 
ATOM     13  C   UNL     1       1.542   4.025  20.573  0.00  0.00    +0.000 C 
ATOM     14  C   UNL     1       2.462   3.317  21.569  0.00  0.00    +0.000 C 
ENDBRANCH   1  13
BRANCH   3  15
ATOM     15  C   UNL     1       1.315   8.469  20.824  0.00  0.00    +0.000 C 
BRANCH  15  16
ATOM     16  C   UNL     1       1.003   9.074  22.199  0.00  0.00    +0.000 C 
BRANCH  16  17
ATOM     17  O   UNL     1       2.224   9.333  22.898  0.00  0.00    +0.000 OA
ATOM     18  H   UNL     1       2.770   9.812  22.242  0.00  0.00    +0.000 HD
ENDBRANCH  16  17
ENDBRANCH  15  16
ENDBRANCH   3  15
TORSDOF 4
ENDMDL
MODEL 5
REMARK VINA RESULT:      -6.2      2.715      4.079
REMARK  Name = 
REMARK  6 active torsions:
REMARK  status: ('A' for Active; 'I' for Inactive)
REMARK    1  A    between atoms: C_1  and  C_2
REMARK    2  A    between atoms: C_2  and  C_3
REMARK    3  A    between atoms: C_2  and  N_4
REMARK    4  A    between atoms: N_6  and  C_7
REMARK    5  A    between atoms: C_7  and  C_8
REMARK    6  A    between atoms: C_8  and  O_9
REMARK                            x       y       z     vdW  Elec       q    Type
REMARK                         _______ _______ _______ _____ _____    ______ ____
ROOT
ATOM      1  N   UNL     1       3.585   5.320  19.171  0.00  0.00    +0.000 N 
ATOM      2  C   UNL     1       4.924   4.962  19.176  0.00  0.00    +0.000 A 
ATOM      3  N   UNL     1       5.914   5.879  19.363  0.00  0.00    +0.000 N 
ATOM      4  N   UNL     1       5.066   3.672  18.992  0.00  0.00    +0.000 NA
ATOM      5  C   UNL     1       3.804   3.161  18.886  0.00  0.00    +0.000 A 
ATOM      6  C   UNL     1       3.386   1.829  18.730  0.00  0.00    +0.000 A 
ATOM      7  C   UNL     1       2.018   1.556  18.611  0.00  0.00    +0.000 A 
ATOM      8  C   UNL     1       1.085   2.593  18.630  0.00  0.00    +0.000 A 
ATOM      9  C   UNL     1       1.481   3.929  18.797  0.00  0.00    +0.000 A 
ATOM     10  C   UNL     1       2.850   4.171  18.948  0.00  0.00    +0.000 A 
ATOM     11  H   UNL     1       5.911   6.262  20.305  0.00  0.00    +0.000 HD
ENDROOT
BRANCH   1  13
ATOM     12  C   UNL     1       2.566   7.294  18.033  0.00  0.00    +0.000 C 
ATOM     13  C   UNL     1       3.007   6.644  19.350  0.00  0.00    +0.000 C 
ATOM     14  C   UNL     1       1.941   6.686  20.446  0.00  0.00    +0.000 C 
ENDBRANCH   1  13
BRANCH   3  15
ATOM     15  C   UNL     1       7.292   5.461  19.042  0.00  0.00    +0.000 C 
BRANCH  15  16
ATOM     16  C   UNL     1       7.507   5.418  17.524  0.00  0.00    +0.000 C 
BRANCH  16  17
ATOM     17  O   UNL     1       7.925   4.106  17.135  0.00  0.00    +0.000 OA
ATOM     18  H   UNL     1       8.426   4.257  16.307  0.00  0.00    +0.000 HD
ENDBRANCH  16  17
ENDBRANCH  15  16
ENDBRANCH   3  15
TORSDOF 4
ENDMDL
MODEL 6
REMARK VINA RESULT:      -6.2      2.639      4.052
REMARK  Name = 
REMARK  6 active torsions:
REMARK  status: ('A' for Active; 'I' for Inactive)
REMARK    1  A    between atoms: C_1  and  C_2
REMARK    2  A    between atoms: C_2  and  C_3
REMARK    3  A    between atoms: C_2  and  N_4
REMARK    4  A    between atoms: N_6  and  C_7
REMARK    5  A    between atoms: C_7  and  C_8
REMARK    6  A    between atoms: C_8  and  O_9
REMARK                            x       y       z     vdW  Elec       q    Type
REMARK                         _______ _______ _______ _____ _____    ______ ____
ROOT
ATOM      1  N   UNL     1       4.891   4.350  17.112  0.00  0.00    +0.000 N 
ATOM      2  C   UNL     1       5.906   4.447  18.051  0.00  0.00    +0.000 A 
ATOM      3  N   UNL     1       7.092   5.055  17.769  0.00  0.00    +0.000 N 
ATOM      4  N   UNL     1       5.550   3.898  19.186  0.00  0.00    +0.000 NA
ATOM      5  C   UNL     1       4.272   3.450  19.009  0.00  0.00    +0.000 A 
ATOM      6  C   UNL     1       3.404   2.829  19.922  0.00  0.00    +0.000 A 
ATOM      7  C   UNL     1       2.135   2.426  19.488  0.00  0.00    +0.000 A 
ATOM      8  C   UNL     1       1.745   2.624  18.163  0.00  0.00    +0.000 A 
ATOM      9  C   UNL     1       2.593   3.253  17.238  0.00  0.00    +0.000 A 
ATOM     10  C   UNL     1       3.841   3.676  17.706  0.00  0.00    +0.000 A 
ATOM     11  H   UNL     1       6.988   6.058  17.634  0.00  0.00    +0.000 HD
ENDROOT
BRANCH   1  13
ATOM     12  C   UNL     1       5.095   6.356  15.642  0.00  0.00    +0.000 C 
ATOM     13  C   UNL     1       4.883   4.841  15.741  0.00  0.00    +0.000 C 
ATOM     14  C   UNL     1       5.786   4.029  14.812  0.00  0.00    +0.000 C 
ENDBRANCH   1  13
BRANCH   3  15
ATOM     15  C   UNL     1       8.207   4.833  18.710  0.00  0.00    +0.000 C 
BRANCH  15  16
ATOM     16  C   UNL     1       8.200   5.890  19.821  0.00  0.00    +0.000 C 
BRANCH  16  17
ATOM     17  O   UNL     1       8.299   5.248  21.095  0.00  0.00    +0.000 OA
ATOM     18  H   UNL     1       8.910   5.824  21.599  0.00  0.00    +0.000 HD
ENDBRANCH  16  17
ENDBRANCH  15  16
ENDBRANCH   3  15
TORSDOF 4
ENDMDL
MODEL 7
REMARK VINA RESULT:      -6.2      0.993      1.429
REMARK  Name = 
REMARK  6 active torsions:
REMARK  status: ('A' for Active; 'I' for Inactive)
REMARK    1  A    between atoms: C_1  and  C_2
REMARK    2  A    between atoms: C_2  and  C_3
REMARK    3  A    between atoms: C_2  and  N_4
REMARK    4  A    between atoms: N_6  and  C_7
REMARK    5  A    between atoms: C_7  and  C_8
REMARK    6  A    between atoms: C_8  and  O_9
REMARK                            x       y       z     vdW  Elec       q    Type
REMARK                         _______ _______ _______ _____ _____    ______ ____
ROOT
ATOM      1  N   UNL     1       5.467   5.291  17.758  0.00  0.00    +0.000 N 
ATOM      2  C   UNL     1       5.438   4.537  16.596  0.00  0.00    +0.000 A 
ATOM      3  N   UNL     1       6.506   4.471  15.752  0.00  0.00    +0.000 N 
ATOM      4  N   UNL     1       4.285   3.929  16.459  0.00  0.00    +0.000 NA
ATOM      5  C   UNL     1       3.545   4.265  17.557  0.00  0.00    +0.000 A 
ATOM      6  C   UNL     1       2.256   3.849  17.931  0.00  0.00    +0.000 A 
ATOM      7  C   UNL     1       1.690   4.365  19.103  0.00  0.00    +0.000 A 
ATOM      8  C   UNL     1       2.388   5.291  19.878  0.00  0.00    +0.000 A 
ATOM      9  C   UNL     1       3.681   5.710  19.527  0.00  0.00    +0.000 A 
ATOM     10  C   UNL     1       4.237   5.153  18.371  0.00  0.00    +0.000 A 
ATOM     11  H   UNL     1       7.294   3.980  16.168  0.00  0.00    +0.000 HD
ENDROOT
BRANCH   1  13
ATOM     12  C   UNL     1       7.764   5.271  18.733  0.00  0.00    +0.000 C 
ATOM     13  C   UNL     1       6.559   6.103  18.277  0.00  0.00    +0.000 C 
ATOM     14  C   UNL     1       6.926   7.268  17.357  0.00  0.00    +0.000 C 
ENDBRANCH   1  13
BRANCH   3  15
ATOM     15  C   UNL     1       6.273   3.909  14.408  0.00  0.00    +0.000 C 
BRANCH  15  16
ATOM     16  C   UNL     1       7.155   4.609  13.366  0.00  0.00    +0.000 C 
BRANCH  16  17
ATOM     17  O   UNL     1       7.941   5.620  14.005  0.00  0.00    +0.000 OA
ATOM     18  H   UNL     1       8.846   5.461  13.665  0.00  0.00    +0.000 HD
ENDBRANCH  16  17
ENDBRANCH  15  16
ENDBRANCH   3  15
TORSDOF 4
ENDMDL
MODEL 8
REMARK VINA RESULT:      -6.2      3.138      4.398
REMARK  Name = 
REMARK  6 active torsions:
REMARK  status: ('A' for Active; 'I' for Inactive)
REMARK    1  A    between atoms: C_1  and  C_2
REMARK    2  A    between atoms: C_2  and  C_3
REMARK    3  A    between atoms: C_2  and  N_4
REMARK    4  A    between atoms: N_6  and  C_7
REMARK    5  A    between atoms: C_7  and  C_8
REMARK    6  A    between atoms: C_8  and  O_9
REMARK                            x       y       z     vdW  Elec       q    Type
REMARK                         _______ _______ _______ _____ _____    ______ ____
ROOT
ATOM      1  N   UNL     1       3.415   5.372  19.017  0.00  0.00    +0.000 N 
ATOM      2  C   UNL     1       4.735   5.013  18.797  0.00  0.00    +0.000 A 
ATOM      3  N   UNL     1       5.740   5.934  18.791  0.00  0.00    +0.000 N 
ATOM      4  N   UNL     1       4.848   3.721  18.616  0.00  0.00    +0.000 NA
ATOM      5  C   UNL     1       3.588   3.207  18.741  0.00  0.00    +0.000 A 
ATOM      6  C   UNL     1       3.153   1.873  18.686  0.00  0.00    +0.000 A 
ATOM      7  C   UNL     1       1.786   1.598  18.812  0.00  0.00    +0.000 A 
ATOM      8  C   UNL     1       0.867   2.635  18.973  0.00  0.00    +0.000 A 
ATOM      9  C   UNL     1       1.283   3.975  19.042  0.00  0.00    +0.000 A 
ATOM     10  C   UNL     1       2.656   4.219  18.949  0.00  0.00    +0.000 A 
ATOM     11  H   UNL     1       5.900   6.335  19.712  0.00  0.00    +0.000 HD
ENDROOT
BRANCH   1  13
ATOM     12  C   UNL     1       2.328   7.378  18.007  0.00  0.00    +0.000 C 
ATOM     13  C   UNL     1       2.873   6.699  19.269  0.00  0.00    +0.000 C 
ATOM     14  C   UNL     1       1.906   6.734  20.454  0.00  0.00    +0.000 C 
ENDBRANCH   1  13
BRANCH   3  15
ATOM     15  C   UNL     1       7.043   5.509  18.243  0.00  0.00    +0.000 C 
BRANCH  15  16
ATOM     16  C   UNL     1       8.179   5.851  19.215  0.00  0.00    +0.000 C 
BRANCH  16  17
ATOM     17  O   UNL     1       7.829   5.417  20.533  0.00  0.00    +0.000 OA
ATOM     18  H   UNL     1       7.153   6.065  20.820  0.00  0.00    +0.000 HD
ENDBRANCH  16  17
ENDBRANCH  15  16
ENDBRANCH   3  15
TORSDOF 4
ENDMDL
MODEL 9
REMARK VINA RESULT:      -6.2      3.416      4.735
REMARK  Name = 
REMARK  6 active torsions:
REMARK  status: ('A' for Active; 'I' for Inactive)
REMARK    1  A    between atoms: C_1  and  C_2
REMARK    2  A    between atoms: C_2  and  C_3
REMARK    3  A    between atoms: C_2  and  N_4
REMARK    4  A    between atoms: N_6  and  C_7
REMARK    5  A    between atoms: C_7  and  C_8
REMARK    6  A    between atoms: C_8  and  O_9
REMARK                            x       y       z     vdW  Elec       q    Type
REMARK                         _______ _______ _______ _____ _____    ______ ____
ROOT
ATOM      1  N   UNL     1       4.836   5.313  17.940  0.00  0.00    +0.000 N 
ATOM      2  C   UNL     1       4.472   4.334  18.852  0.00  0.00    +0.000 A 
ATOM      3  N   UNL     1       5.154   3.160  18.959  0.00  0.00    +0.000 N 
ATOM      4  N   UNL     1       3.432   4.710  19.554  0.00  0.00    +0.000 NA
ATOM      5  C   UNL     1       3.114   5.966  19.121  0.00  0.00    +0.000 A 
ATOM      6  C   UNL     1       2.114   6.844  19.572  0.00  0.00    +0.000 A 
ATOM      7  C   UNL     1       1.961   8.083  18.939  0.00  0.00    +0.000 A 
ATOM      8  C   UNL     1       2.779   8.434  17.864  0.00  0.00    +0.000 A 
ATOM      9  C   UNL     1       3.791   7.575  17.406  0.00  0.00    +0.000 A 
ATOM     10  C   UNL     1       3.945   6.359  18.079  0.00  0.00    +0.000 A 
ATOM     11  H   UNL     1       6.093   3.292  19.328  0.00  0.00    +0.000 HD
ENDROOT
BRANCH   1  13
ATOM     12  C   UNL     1       5.470   5.333  15.527  0.00  0.00    +0.000 C 
ATOM     13  C   UNL     1       5.937   5.290  16.987  0.00  0.00    +0.000 C 
ATOM     14  C   UNL     1       7.032   6.305  17.315  0.00  0.00    +0.000 C 
ENDBRANCH   1  13
BRANCH   3  15
ATOM     15  C   UNL     1       4.512   2.071  19.721  0.00  0.00    +0.000 C 
BRANCH  15  16
ATOM     16  C   UNL     1       3.648   1.201  18.800  0.00  0.00    +0.000 C 
BRANCH  16  17
ATOM     17  O   UNL     1       2.292   1.655  18.844  0.00  0.00    +0.000 OA
ATOM     18  H   UNL     1       2.364   2.619  18.691  0.00  0.00    +0.000 HD
ENDBRANCH  16  17
ENDBRANCH  15  16
ENDBRANCH   3  15
TORSDOF 4
ENDMDL
