MODEL 1
REMARK VINA RESULT:      -6.6      0.000      0.000
REMARK  Name = 
REMARK  3 active torsions:
REMARK  status: ('A' for Active; 'I' for Inactive)
REMARK    1  A    between atoms: C_1  and  O_2
REMARK    2  A    between atoms: O_2  and  C_3
REMARK    3  A    between atoms: C_7  and  C_8
REMARK                            x       y       z     vdW  Elec       q    Type
REMARK                         _______ _______ _______ _____ _____    ______ ____
ROOT
ATOM      1  C   UNL     1      -0.375  10.372  22.443  0.00  0.00    +0.000 A 
ATOM      2  N   UNL     1       0.243   9.241  22.629  0.00  0.00    +0.000 NA
ATOM      3  N   UNL     1       0.810   8.947  21.442  0.00  0.00    +0.000 N 
ATOM      4  C   UNL     1       1.543   7.884  21.032  0.00  0.00    +0.000 A 
ATOM      5  C   UNL     1       1.798   8.146  19.692  0.00  0.00    +0.000 A 
ATOM      6  N   UNL     1       1.253   9.363  19.295  0.00  0.00    +0.000 NA
ATOM      7  C   UNL     1       0.666   9.780  20.382  0.00  0.00    +0.000 A 
ATOM      8  S   UNL     1      -0.290  11.124  20.830  0.00  0.00    +0.000 S 
ENDROOT
BRANCH   5   9
ATOM      9  C   UNL     1       2.537   7.201  18.795  0.00  0.00    +0.000 A 
ATOM     10  N   UNL     1       3.351   7.642  17.858  0.00  0.00    +0.000 NA
ATOM     11  C   UNL     1       3.964   6.572  17.230  0.00  0.00    +0.000 A 
ATOM     12  C   UNL     1       4.935   6.660  16.213  0.00  0.00    +0.000 A 
ATOM     13  C   UNL     1       5.483   5.492  15.672  0.00  0.00    +0.000 A 
ATOM     14  C   UNL     1       5.064   4.244  16.122  0.00  0.00    +0.000 A 
ATOM     15  C   UNL     1       4.098   4.131  17.129  0.00  0.00    +0.000 A 
ATOM     16  C   UNL     1       3.569   5.310  17.677  0.00  0.00    +0.000 A 
ATOM     17  S   UNL     1       2.411   5.499  18.935  0.00  0.00    +0.000 S 
ENDBRANCH   5   9
BRANCH   1  19
ATOM     18  C   UNL     1      -2.142  11.845  22.944  0.00  0.00    +0.000 C 
ATOM     19  O   UNL     1      -1.083  11.005  23.411  0.00  0.00    +0.000 OA
ENDBRANCH   1  19
TORSDOF 2
ENDMDL
MODEL 2
REMARK VINA RESULT:      -6.5      3.366      7.914
REMARK  Name = 
REMARK  3 active torsions:
REMARK  status: ('A' for Active; 'I' for Inactive)
REMARK    1  A    between atoms: C_1  and  O_2
REMARK    2  A    between atoms: O_2  and  C_3
REMARK    3  A    between atoms: C_7  and  C_8
REMARK                            x       y       z     vdW  Elec       q    Type
REMARK                         _______ _______ _______ _____ _____    ______ ____
ROOT
ATOM      1  C   UNL     1       5.074   4.434  16.365  0.00  0.00    +0.000 A 
ATOM      2  N   UNL     1       5.107   5.735  16.419  0.00  0.00    +0.000 NA
ATOM      3  N   UNL     1       4.159   6.077  17.315  0.00  0.00    +0.000 N 
ATOM      4  C   UNL     1       3.723   7.283  17.751  0.00  0.00    +0.000 A 
ATOM      5  C   UNL     1       2.702   6.974  18.639  0.00  0.00    +0.000 A 
ATOM      6  N   UNL     1       2.534   5.599  18.768  0.00  0.00    +0.000 NA
ATOM      7  C   UNL     1       3.424   5.125  17.940  0.00  0.00    +0.000 A 
ATOM      8  S   UNL     1       3.902   3.576  17.397  0.00  0.00    +0.000 S 
ENDROOT
BRANCH   5   9
ATOM      9  C   UNL     1       1.873   8.010  19.333  0.00  0.00    +0.000 A 
ATOM     10  N   UNL     1       1.501   7.862  20.588  0.00  0.00    +0.000 NA
ATOM     11  C   UNL     1       0.818   8.989  21.009  0.00  0.00    +0.000 A 
ATOM     12  C   UNL     1       0.315   9.211  22.307  0.00  0.00    +0.000 A 
ATOM     13  C   UNL     1      -0.350  10.407  22.599  0.00  0.00    +0.000 A 
ATOM     14  C   UNL     1      -0.530  11.371  21.613  0.00  0.00    +0.000 A 
ATOM     15  C   UNL     1      -0.042  11.173  20.316  0.00  0.00    +0.000 A 
ATOM     16  C   UNL     1       0.639   9.977  20.039  0.00  0.00    +0.000 A 
ATOM     17  S   UNL     1       1.376   9.461  18.572  0.00  0.00    +0.000 S 
ENDBRANCH   5   9
BRANCH   1  19
ATOM     18  C   UNL     1       6.096   4.238  14.253  0.00  0.00    +0.000 C 
ATOM     19  O   UNL     1       5.883   3.700  15.562  0.00  0.00    +0.000 OA
ENDBRANCH   1  19
TORSDOF 2
ENDMDL
MODEL 3
REMARK VINA RESULT:      -6.4      1.225      1.434
REMARK  Name = 
REMARK  3 active torsions:
REMARK  status: ('A' for Active; 'I' for Inactive)
REMARK    1  A    between atoms: C_1  and  O_2
REMARK    2  A    between atoms: O_2  and  C_3
REMARK    3  A    between atoms: C_7  and  C_8
REMARK                            x       y       z     vdW  Elec       q    Type
REMARK                         _______ _______ _______ _____ _____    ______ ____
ROOT
ATOM      1  C   UNL     1      -0.005  10.749  21.356  0.00  0.00    +0.000 A 
ATOM      2  N   UNL     1       0.355  10.749  20.104  0.00  0.00    +0.000 NA
ATOM      3  N   UNL     1       0.971   9.565  19.912  0.00  0.00    +0.000 N 
ATOM      4  C   UNL     1       1.575   9.028  18.824  0.00  0.00    +0.000 A 
ATOM      5  C   UNL     1       2.054   7.804  19.272  0.00  0.00    +0.000 A 
ATOM      6  N   UNL     1       1.724   7.582  20.605  0.00  0.00    +0.000 NA
ATOM      7  C   UNL     1       1.092   8.677  20.928  0.00  0.00    +0.000 A 
ATOM      8  S   UNL     1       0.383   9.318  22.345  0.00  0.00    +0.000 S 
ENDROOT
BRANCH   5   9
ATOM      9  C   UNL     1       2.857   6.872  18.418  0.00  0.00    +0.000 A 
ATOM     10  N   UNL     1       3.730   7.326  17.542  0.00  0.00    +0.000 NA
ATOM     11  C   UNL     1       4.390   6.265  16.947  0.00  0.00    +0.000 A 
ATOM     12  C   UNL     1       5.426   6.368  15.999  0.00  0.00    +0.000 A 
ATOM     13  C   UNL     1       6.015   5.207  15.485  0.00  0.00    +0.000 A 
ATOM     14  C   UNL     1       5.573   3.953  15.894  0.00  0.00    +0.000 A 
ATOM     15  C   UNL     1       4.543   3.826  16.833  0.00  0.00    +0.000 A 
ATOM     16  C   UNL     1       3.972   4.997  17.355  0.00  0.00    +0.000 A 
ATOM     17  S   UNL     1       2.730   5.169  18.534  0.00  0.00    +0.000 S 
ENDBRANCH   5   9
BRANCH   1  19
ATOM     18  C   UNL     1      -1.499  11.425  23.044  0.00  0.00    +0.000 C 
ATOM     19  O   UNL     1      -0.655  11.782  21.945  0.00  0.00    +0.000 OA
ENDBRANCH   1  19
TORSDOF 2
ENDMDL
MODEL 4
REMARK VINA RESULT:      -6.4      3.296      7.822
REMARK  Name = 
REMARK  3 active torsions:
REMARK  status: ('A' for Active; 'I' for Inactive)
REMARK    1  A    between atoms: C_1  and  O_2
REMARK    2  A    between atoms: O_2  and  C_3
REMARK    3  A    between atoms: C_7  and  C_8
REMARK                            x       y       z     vdW  Elec       q    Type
REMARK                         _______ _______ _______ _____ _____    ______ ____
ROOT
ATOM      1  C   UNL     1       4.895   4.650  16.637  0.00  0.00    +0.000 A 
ATOM      2  N   UNL     1       3.932   4.430  17.485  0.00  0.00    +0.000 NA
ATOM      3  N   UNL     1       3.472   5.650  17.826  0.00  0.00    +0.000 N 
ATOM      4  C   UNL     1       2.505   6.041  18.691  0.00  0.00    +0.000 A 
ATOM      5  C   UNL     1       2.535   7.427  18.629  0.00  0.00    +0.000 A 
ATOM      6  N   UNL     1       3.486   7.879  17.720  0.00  0.00    +0.000 NA
ATOM      7  C   UNL     1       4.017   6.769  17.289  0.00  0.00    +0.000 A 
ATOM      8  S   UNL     1       5.277   6.339  16.216  0.00  0.00    +0.000 S 
ENDROOT
BRANCH   5   9
ATOM      9  C   UNL     1       1.668   8.308  19.475  0.00  0.00    +0.000 A 
ATOM     10  N   UNL     1       1.398   8.004  20.728  0.00  0.00    +0.000 NA
ATOM     11  C   UNL     1       0.650   9.015  21.304  0.00  0.00    +0.000 A 
ATOM     12  C   UNL     1       0.221   9.061  22.645  0.00  0.00    +0.000 A 
ATOM     13  C   UNL     1      -0.524  10.154  23.099  0.00  0.00    +0.000 A 
ATOM     14  C   UNL     1      -0.856  11.190  22.231  0.00  0.00    +0.000 A 
ATOM     15  C   UNL     1      -0.443  11.166  20.894  0.00  0.00    +0.000 A 
ATOM     16  C   UNL     1       0.319  10.072  20.454  0.00  0.00    +0.000 A 
ATOM     17  S   UNL     1       0.996   9.774  18.900  0.00  0.00    +0.000 S 
ENDBRANCH   5   9
BRANCH   1  19
ATOM     18  C   UNL     1       6.114   3.952  14.748  0.00  0.00    +0.000 C 
ATOM     19  O   UNL     1       5.623   3.663  16.061  0.00  0.00    +0.000 OA
ENDBRANCH   1  19
TORSDOF 2
ENDMDL
MODEL 5
REMARK VINA RESULT:      -6.3      1.083      1.245
REMARK  Name = 
REMARK  3 active torsions:
REMARK  status: ('A' for Active; 'I' for Inactive)
REMARK    1  A    between atoms: C_1  and  O_2
REMARK    2  A    between atoms: O_2  and  C_3
REMARK    3  A    between atoms: C_7  and  C_8
REMARK                            x       y       z     vdW  Elec       q    Type
REMARK                         _______ _______ _______ _____ _____    ______ ____
ROOT
ATOM      1  C   UNL     1      -0.135  10.432  20.957  0.00  0.00    +0.000 A 
ATOM      2  N   UNL     1       0.426   9.312  21.313  0.00  0.00    +0.000 NA
ATOM      3  N   UNL     1       1.125   8.905  20.234  0.00  0.00    +0.000 N 
ATOM      4  C   UNL     1       1.874   7.800  20.009  0.00  0.00    +0.000 A 
ATOM      5  C   UNL     1       2.297   7.939  18.694  0.00  0.00    +0.000 A 
ATOM      6  N   UNL     1       1.837   9.125  18.131  0.00  0.00    +0.000 NA
ATOM      7  C   UNL     1       1.133   9.645  19.098  0.00  0.00    +0.000 A 
ATOM      8  S   UNL     1       0.166  11.039  19.309  0.00  0.00    +0.000 S 
ENDROOT
BRANCH   5   9
ATOM      9  C   UNL     1       3.114   6.908  17.978  0.00  0.00    +0.000 A 
ATOM     10  N   UNL     1       4.173   7.243  17.269  0.00  0.00    +0.000 NA
ATOM     11  C   UNL     1       4.790   6.105  16.783  0.00  0.00    +0.000 A 
ATOM     12  C   UNL     1       5.978   6.071  16.027  0.00  0.00    +0.000 A 
ATOM     13  C   UNL     1       6.500   4.843  15.607  0.00  0.00    +0.000 A 
ATOM     14  C   UNL     1       5.845   3.656  15.919  0.00  0.00    +0.000 A 
ATOM     15  C   UNL     1       4.662   3.664  16.667  0.00  0.00    +0.000 A 
ATOM     16  C   UNL     1       4.157   4.901  17.098  0.00  0.00    +0.000 A 
ATOM     17  S   UNL     1       2.762   5.234  18.049  0.00  0.00    +0.000 S 
ENDBRANCH   5   9
BRANCH   1  19
ATOM     18  C   UNL     1      -0.993  10.709  23.131  0.00  0.00    +0.000 C 
ATOM     19  O   UNL     1      -0.937  11.158  21.774  0.00  0.00    +0.000 OA
ENDBRANCH   1  19
TORSDOF 2
ENDMDL
MODEL 6
REMARK VINA RESULT:      -6.2      1.563      2.173
REMARK  Name = 
REMARK  3 active torsions:
REMARK  status: ('A' for Active; 'I' for Inactive)
REMARK    1  A    between atoms: C_1  and  O_2
REMARK    2  A    between atoms: O_2  and  C_3
REMARK    3  A    between atoms: C_7  and  C_8
REMARK                            x       y       z     vdW  Elec       q    Type
REMARK                         _______ _______ _______ _____ _____    ______ ____
ROOT
ATOM      1  C   UNL     1      -0.894  11.506  22.703  0.00  0.00    +0.000 A 
ATOM      2  N   UNL     1      -0.282  10.441  23.137  0.00  0.00    +0.000 NA
ATOM      3  N   UNL     1       0.272   9.879  22.043  0.00  0.00    +0.000 N 
ATOM      4  C   UNL     1       0.993   8.745  21.880  0.00  0.00    +0.000 A 
ATOM      5  C   UNL     1       1.237   8.692  20.514  0.00  0.00    +0.000 A 
ATOM      6  N   UNL     1       0.697   9.791  19.855  0.00  0.00    +0.000 NA
ATOM      7  C   UNL     1       0.123  10.450  20.823  0.00  0.00    +0.000 A 
ATOM      8  S   UNL     1      -0.819  11.870  20.960  0.00  0.00    +0.000 S 
ENDROOT
BRANCH   5   9
ATOM      9  C   UNL     1       1.960   7.561  19.850  0.00  0.00    +0.000 A 
ATOM     10  N   UNL     1       2.128   6.404  20.457  0.00  0.00    +0.000 NA
ATOM     11  C   UNL     1       2.751   5.513  19.601  0.00  0.00    +0.000 A 
ATOM     12  C   UNL     1       3.046   4.166  19.888  0.00  0.00    +0.000 A 
ATOM     13  C   UNL     1       3.673   3.371  18.921  0.00  0.00    +0.000 A 
ATOM     14  C   UNL     1       4.019   3.908  17.685  0.00  0.00    +0.000 A 
ATOM     15  C   UNL     1       3.739   5.244  17.378  0.00  0.00    +0.000 A 
ATOM     16  C   UNL     1       3.094   6.027  18.349  0.00  0.00    +0.000 A 
ATOM     17  S   UNL     1       2.590   7.670  18.261  0.00  0.00    +0.000 S 
ENDBRANCH   5   9
BRANCH   1  19
ATOM     18  C   UNL     1      -1.421  13.741  23.221  0.00  0.00    +0.000 C 
ATOM     19  O   UNL     1      -1.587  12.349  23.508  0.00  0.00    +0.000 OA
ENDBRANCH   1  19
TORSDOF 2
ENDMDL
MODEL 7
REMARK VINA RESULT:      -6.1      3.560      7.813
REMARK  Name = 
REMARK  3 active torsions:
REMARK  status: ('A' for Active; 'I' for Inactive)
REMARK    1  A    between atoms: C_1  and  O_2
REMARK    2  A    between atoms: O_2  and  C_3
REMARK    3  A    between atoms: C_7  and  C_8
REMARK                            x       y       z     vdW  Elec       q    Type
REMARK                         _______ _______ _______ _____ _____    ______ ____
ROOT
ATOM      1  C   UNL     1       5.156   4.377  16.295  0.00  0.00    +0.000 A 
ATOM      2  N   UNL     1       5.151   5.678  16.241  0.00  0.00    +0.000 NA
ATOM      3  N   UNL     1       4.227   6.067  17.144  0.00  0.00    +0.000 N 
ATOM      4  C   UNL     1       3.772   7.293  17.496  0.00  0.00    +0.000 A 
ATOM      5  C   UNL     1       2.795   7.031  18.448  0.00  0.00    +0.000 A 
ATOM      6  N   UNL     1       2.674   5.667  18.694  0.00  0.00    +0.000 NA
ATOM      7  C   UNL     1       3.546   5.151  17.873  0.00  0.00    +0.000 A 
ATOM      8  S   UNL     1       4.050   3.576  17.440  0.00  0.00    +0.000 S 
ENDROOT
BRANCH   5   9
ATOM      9  C   UNL     1       1.961   8.098  19.087  0.00  0.00    +0.000 A 
ATOM     10  N   UNL     1       1.541   9.142  18.403  0.00  0.00    +0.000 NA
ATOM     11  C   UNL     1       0.729   9.928  19.200  0.00  0.00    +0.000 A 
ATOM     12  C   UNL     1       0.059  11.098  18.792  0.00  0.00    +0.000 A 
ATOM     13  C   UNL     1      -0.743  11.793  19.705  0.00  0.00    +0.000 A 
ATOM     14  C   UNL     1      -0.871  11.344  21.015  0.00  0.00    +0.000 A 
ATOM     15  C   UNL     1      -0.213  10.186  21.444  0.00  0.00    +0.000 A 
ATOM     16  C   UNL     1       0.575   9.487  20.516  0.00  0.00    +0.000 A 
ATOM     17  S   UNL     1       1.467   8.030  20.725  0.00  0.00    +0.000 S 
ENDBRANCH   5   9
BRANCH   1  19
ATOM     18  C   UNL     1       6.590   4.275  14.431  0.00  0.00    +0.000 C 
ATOM     19  O   UNL     1       5.955   3.601  15.522  0.00  0.00    +0.000 OA
ENDBRANCH   1  19
TORSDOF 2
ENDMDL
MODEL 8
REMARK VINA RESULT:      -6.1      1.670      2.359
REMARK  Name = 
REMARK  3 active torsions:
REMARK  status: ('A' for Active; 'I' for Inactive)
REMARK    1  A    between atoms: C_1  and  O_2
REMARK    2  A    between atoms: O_2  and  C_3
REMARK    3  A    between atoms: C_7  and  C_8
REMARK                            x       y       z     vdW  Elec       q    Type
REMARK                         _______ _______ _______ _____ _____    ______ ____
ROOT
ATOM      1  C   UNL     1       0.050  11.371  21.803  0.00  0.00    +0.000 A 
ATOM      2  N   UNL     1       0.429  10.267  22.382  0.00  0.00    +0.000 NA
ATOM      3  N   UNL     1       0.910   9.491  21.389  0.00  0.00    +0.000 N 
ATOM      4  C   UNL     1       1.407   8.232  21.390  0.00  0.00    +0.000 A 
ATOM      5  C   UNL     1       1.693   7.980  20.055  0.00  0.00    +0.000 A 
ATOM      6  N   UNL     1       1.401   9.078  19.253  0.00  0.00    +0.000 NA
ATOM      7  C   UNL     1       0.924   9.938  20.110  0.00  0.00    +0.000 A 
ATOM      8  S   UNL     1       0.266  11.514  20.039  0.00  0.00    +0.000 S 
ENDROOT
BRANCH   5   9
ATOM      9  C   UNL     1       2.214   6.666  19.558  0.00  0.00    +0.000 A 
ATOM     10  N   UNL     1       1.941   5.540  20.183  0.00  0.00    +0.000 NA
ATOM     11  C   UNL     1       2.470   4.474  19.479  0.00  0.00    +0.000 A 
ATOM     12  C   UNL     1       2.333   3.113  19.818  0.00  0.00    +0.000 A 
ATOM     13  C   UNL     1       2.914   2.132  19.006  0.00  0.00    +0.000 A 
ATOM     14  C   UNL     1       3.638   2.494  17.874  0.00  0.00    +0.000 A 
ATOM     15  C   UNL     1       3.790   3.839  17.518  0.00  0.00    +0.000 A 
ATOM     16  C   UNL     1       3.188   4.813  18.330  0.00  0.00    +0.000 A 
ATOM     17  S   UNL     1       3.165   6.523  18.141  0.00  0.00    +0.000 S 
ENDBRANCH   5   9
BRANCH   1  19
ATOM     18  C   UNL     1      -1.725  12.122  23.154  0.00  0.00    +0.000 C 
ATOM     19  O   UNL     1      -0.502  12.413  22.471  0.00  0.00    +0.000 OA
ENDBRANCH   1  19
TORSDOF 2
ENDMDL
MODEL 9
REMARK VINA RESULT:      -6.0      2.982      7.746
REMARK  Name = 
REMARK  3 active torsions:
REMARK  status: ('A' for Active; 'I' for Inactive)
REMARK    1  A    between atoms: C_1  and  O_2
REMARK    2  A    between atoms: O_2  and  C_3
REMARK    3  A    between atoms: C_7  and  C_8
REMARK                            x       y       z     vdW  Elec       q    Type
REMARK                         _______ _______ _______ _____ _____    ______ ____
ROOT
ATOM      1  C   UNL     1       4.626   5.132  18.209  0.00  0.00    +0.000 A 
ATOM      2  N   UNL     1       3.891   5.119  19.284  0.00  0.00    +0.000 NA
ATOM      3  N   UNL     1       3.164   6.253  19.232  0.00  0.00    +0.000 N 
ATOM      4  C   UNL     1       2.259   6.784  20.088  0.00  0.00    +0.000 A 
ATOM      5  C   UNL     1       1.894   7.985  19.494  0.00  0.00    +0.000 A 
ATOM      6  N   UNL     1       2.545   8.173  18.278  0.00  0.00    +0.000 NA
ATOM      7  C   UNL     1       3.297   7.111  18.191  0.00  0.00    +0.000 A 
ATOM      8  S   UNL     1       4.462   6.511  17.093  0.00  0.00    +0.000 S 
ENDROOT
BRANCH   5   9
ATOM      9  C   UNL     1       0.945   8.960  20.120  0.00  0.00    +0.000 A 
ATOM     10  N   UNL     1       0.594   8.856  21.386  0.00  0.00    +0.000 NA
ATOM     11  C   UNL     1      -0.221   9.919  21.733  0.00  0.00    +0.000 A 
ATOM     12  C   UNL     1      -0.747  10.169  23.016  0.00  0.00    +0.000 A 
ATOM     13  C   UNL     1      -1.552  11.293  23.230  0.00  0.00    +0.000 A 
ATOM     14  C   UNL     1      -1.847  12.158  22.181  0.00  0.00    +0.000 A 
ATOM     15  C   UNL     1      -1.338  11.930  20.897  0.00  0.00    +0.000 A 
ATOM     16  C   UNL     1      -0.517  10.808  20.698  0.00  0.00    +0.000 A 
ATOM     17  S   UNL     1       0.278  10.284  19.265  0.00  0.00    +0.000 S 
ENDBRANCH   5   9
BRANCH   1  19
ATOM     18  C   UNL     1       6.832   4.603  17.581  0.00  0.00    +0.000 C 
ATOM     19  O   UNL     1       5.511   4.153  17.898  0.00  0.00    +0.000 OA
ENDBRANCH   1  19
TORSDOF 2
ENDMDL
