MODEL 1
REMARK VINA RESULT:      -7.0      0.000      0.000
REMARK  Name = 
REMARK  1 active torsions:
REMARK  status: ('A' for Active; 'I' for Inactive)
REMARK    1  A    between atoms: C_5  and  C_6
REMARK                            x       y       z     vdW  Elec       q    Type
REMARK                         _______ _______ _______ _____ _____    ______ ____
ROOT
ATOM      1  C   UNL     1       7.761   5.093  18.199  0.00  0.00    +0.000 A 
ATOM      2  C   UNL     1       6.844   5.451  19.114  0.00  0.00    +0.000 A 
ATOM      3  C   UNL     1       5.450   5.110  18.781  0.00  0.00    +0.000 A 
ATOM      4  N   UNL     1       4.344   5.303  19.428  0.00  0.00    +0.000 NA
ATOM      5  C   UNL     1       3.384   4.733  18.590  0.00  0.00    +0.000 A 
ATOM      6  N   UNL     1       3.802   4.233  17.457  0.00  0.00    +0.000 NA
ATOM      7  C   UNL     1       5.146   4.430  17.517  0.00  0.00    +0.000 A 
ATOM      8  C   UNL     1       6.150   4.128  16.696  0.00  0.00    +0.000 A 
ATOM      9  N   UNL     1       7.450   4.452  17.018  0.00  0.00    +0.000 N 
ATOM     10  H   UNL     1       8.192   4.209  16.370  0.00  0.00    +0.000 HD
ENDROOT
BRANCH   5  11
ATOM     11  C   UNL     1       1.922   4.766  18.993  0.00  0.00    +0.000 C 
ATOM     12  C   UNL     1       1.735   5.035  20.490  0.00  0.00    +0.000 C 
ATOM     13  C   UNL     1       2.139   3.825  21.333  0.00  0.00    +0.000 C 
ATOM     14  N   UNL     1       1.415   2.617  20.933  0.00  0.00    +0.000 NA
ATOM     15  C   UNL     1       1.637   2.303  19.520  0.00  0.00    +0.000 C 
ATOM     16  C   UNL     1       1.215   3.457  18.608  0.00  0.00    +0.000 C 
ATOM     17  H   UNL     1       0.418   2.760  21.087  0.00  0.00    +0.000 HD
ENDBRANCH   5  11
TORSDOF 1
ENDMDL
MODEL 2
REMARK VINA RESULT:      -6.9      1.295      5.208
REMARK  Name = 
REMARK  1 active torsions:
REMARK  status: ('A' for Active; 'I' for Inactive)
REMARK    1  A    between atoms: C_5  and  C_6
REMARK                            x       y       z     vdW  Elec       q    Type
REMARK                         _______ _______ _______ _____ _____    ______ ____
ROOT
ATOM      1  C   UNL     1       1.732   2.440  20.206  0.00  0.00    +0.000 A 
ATOM      2  C   UNL     1       2.501   3.528  20.382  0.00  0.00    +0.000 A 
ATOM      3  C   UNL     1       3.212   4.001  19.182  0.00  0.00    +0.000 A 
ATOM      4  N   UNL     1       4.015   5.004  19.003  0.00  0.00    +0.000 NA
ATOM      5  C   UNL     1       4.328   4.920  17.645  0.00  0.00    +0.000 A 
ATOM      6  N   UNL     1       3.811   3.923  16.975  0.00  0.00    +0.000 NA
ATOM      7  C   UNL     1       3.057   3.288  17.910  0.00  0.00    +0.000 A 
ATOM      8  C   UNL     1       2.262   2.220  17.870  0.00  0.00    +0.000 A 
ATOM      9  N   UNL     1       1.600   1.786  18.999  0.00  0.00    +0.000 N 
ATOM     10  H   UNL     1       1.003   0.968  18.935  0.00  0.00    +0.000 HD
ENDROOT
BRANCH   5  11
ATOM     11  C   UNL     1       5.276   5.930  17.030  0.00  0.00    +0.000 C 
ATOM     12  C   UNL     1       5.644   5.579  15.583  0.00  0.00    +0.000 C 
ATOM     13  C   UNL     1       6.581   4.374  15.519  0.00  0.00    +0.000 C 
ATOM     14  N   UNL     1       7.788   4.579  16.321  0.00  0.00    +0.000 NA
ATOM     15  C   UNL     1       7.460   4.846  17.723  0.00  0.00    +0.000 C 
ATOM     16  C   UNL     1       6.554   6.071  17.871  0.00  0.00    +0.000 C 
ATOM     17  H   UNL     1       8.307   5.371  15.945  0.00  0.00    +0.000 HD
ENDBRANCH   5  11
TORSDOF 1
ENDMDL
MODEL 3
REMARK VINA RESULT:      -6.8      0.464      1.574
REMARK  Name = 
REMARK  1 active torsions:
REMARK  status: ('A' for Active; 'I' for Inactive)
REMARK    1  A    between atoms: C_5  and  C_6
REMARK                            x       y       z     vdW  Elec       q    Type
REMARK                         _______ _______ _______ _____ _____    ______ ____
ROOT
ATOM      1  C   UNL     1       7.134   4.444  16.330  0.00  0.00    +0.000 A 
ATOM      2  C   UNL     1       5.846   4.155  16.075  0.00  0.00    +0.000 A 
ATOM      3  C   UNL     1       4.906   4.432  17.176  0.00  0.00    +0.000 A 
ATOM      4  N   UNL     1       3.622   4.278  17.263  0.00  0.00    +0.000 NA
ATOM      5  C   UNL     1       3.334   4.743  18.547  0.00  0.00    +0.000 A 
ATOM      6  N   UNL     1       4.344   5.141  19.277  0.00  0.00    +0.000 NA
ATOM      7  C   UNL     1       5.404   4.981  18.442  0.00  0.00    +0.000 A 
ATOM      8  C   UNL     1       6.707   5.224  18.564  0.00  0.00    +0.000 A 
ATOM      9  N   UNL     1       7.577   4.962  17.528  0.00  0.00    +0.000 N 
ATOM     10  H   UNL     1       8.565   5.156  17.654  0.00  0.00    +0.000 HD
ENDROOT
BRANCH   5  11
ATOM     11  C   UNL     1       1.905   4.718  19.052  0.00  0.00    +0.000 C 
ATOM     12  C   UNL     1       1.817   4.930  20.568  0.00  0.00    +0.000 C 
ATOM     13  C   UNL     1       2.314   3.706  21.336  0.00  0.00    +0.000 C 
ATOM     14  N   UNL     1       1.597   2.491  20.945  0.00  0.00    +0.000 NA
ATOM     15  C   UNL     1       1.727   2.231  19.509  0.00  0.00    +0.000 C 
ATOM     16  C   UNL     1       1.209   3.402  18.672  0.00  0.00    +0.000 C 
ATOM     17  H   UNL     1       0.610   2.598  21.174  0.00  0.00    +0.000 HD
ENDBRANCH   5  11
TORSDOF 1
ENDMDL
MODEL 4
REMARK VINA RESULT:      -6.8      1.026      5.400
REMARK  Name = 
REMARK  1 active torsions:
REMARK  status: ('A' for Active; 'I' for Inactive)
REMARK    1  A    between atoms: C_5  and  C_6
REMARK                            x       y       z     vdW  Elec       q    Type
REMARK                         _______ _______ _______ _____ _____    ______ ____
ROOT
ATOM      1  C   UNL     1       0.977   3.023  19.507  0.00  0.00    +0.000 A 
ATOM      2  C   UNL     1       1.497   3.299  18.299  0.00  0.00    +0.000 A 
ATOM      3  C   UNL     1       2.673   4.187  18.305  0.00  0.00    +0.000 A 
ATOM      4  N   UNL     1       3.407   4.642  17.338  0.00  0.00    +0.000 NA
ATOM      5  C   UNL     1       4.367   5.406  18.002  0.00  0.00    +0.000 A 
ATOM      6  N   UNL     1       4.267   5.491  19.303  0.00  0.00    +0.000 NA
ATOM      7  C   UNL     1       3.191   4.707  19.575  0.00  0.00    +0.000 A 
ATOM      8  C   UNL     1       2.581   4.354  20.706  0.00  0.00    +0.000 A 
ATOM      9  N   UNL     1       1.483   3.522  20.689  0.00  0.00    +0.000 N 
ATOM     10  H   UNL     1       1.040   3.273  21.567  0.00  0.00    +0.000 HD
ENDROOT
BRANCH   5  11
ATOM     11  C   UNL     1       5.429   6.136  17.203  0.00  0.00    +0.000 C 
ATOM     12  C   UNL     1       5.665   5.499  15.829  0.00  0.00    +0.000 C 
ATOM     13  C   UNL     1       6.398   4.164  15.946  0.00  0.00    +0.000 C 
ATOM     14  N   UNL     1       7.661   4.298  16.675  0.00  0.00    +0.000 NA
ATOM     15  C   UNL     1       7.449   4.839  18.019  0.00  0.00    +0.000 C 
ATOM     16  C   UNL     1       6.754   6.202  17.978  0.00  0.00    +0.000 C 
ATOM     17  H   UNL     1       8.278   4.924  16.159  0.00  0.00    +0.000 HD
ENDBRANCH   5  11
TORSDOF 1
ENDMDL
MODEL 5
REMARK VINA RESULT:      -6.8      1.294      2.008
REMARK  Name = 
REMARK  1 active torsions:
REMARK  status: ('A' for Active; 'I' for Inactive)
REMARK    1  A    between atoms: C_5  and  C_6
REMARK                            x       y       z     vdW  Elec       q    Type
REMARK                         _______ _______ _______ _____ _____    ______ ____
ROOT
ATOM      1  C   UNL     1       7.140   6.354  17.476  0.00  0.00    +0.000 A 
ATOM      2  C   UNL     1       6.964   5.548  18.537  0.00  0.00    +0.000 A 
ATOM      3  C   UNL     1       5.752   4.711  18.502  0.00  0.00    +0.000 A 
ATOM      4  N   UNL     1       5.291   3.838  19.342  0.00  0.00    +0.000 NA
ATOM      5  C   UNL     1       4.127   3.385  18.719  0.00  0.00    +0.000 A 
ATOM      6  N   UNL     1       3.810   3.933  17.575  0.00  0.00    +0.000 NA
ATOM      7  C   UNL     1       4.835   4.800  17.360  0.00  0.00    +0.000 A 
ATOM      8  C   UNL     1       5.127   5.641  16.370  0.00  0.00    +0.000 A 
ATOM      9  N   UNL     1       6.264   6.419  16.413  0.00  0.00    +0.000 N 
ATOM     10  H   UNL     1       6.457   7.050  15.643  0.00  0.00    +0.000 HD
ENDROOT
BRANCH   5  11
ATOM     11  C   UNL     1       3.267   2.340  19.403  0.00  0.00    +0.000 C 
ATOM     12  C   UNL     1       1.916   2.148  18.707  0.00  0.00    +0.000 C 
ATOM     13  C   UNL     1       0.989   3.341  18.940  0.00  0.00    +0.000 C 
ATOM     14  N   UNL     1       0.799   3.611  20.366  0.00  0.00    +0.000 NA
ATOM     15  C   UNL     1       2.075   3.867  21.037  0.00  0.00    +0.000 C 
ATOM     16  C   UNL     1       3.043   2.693  20.882  0.00  0.00    +0.000 C 
ATOM     17  H   UNL     1       0.351   2.805  20.801  0.00  0.00    +0.000 HD
ENDBRANCH   5  11
TORSDOF 1
ENDMDL
MODEL 6
REMARK VINA RESULT:      -6.8      1.215      2.480
REMARK  Name = 
REMARK  1 active torsions:
REMARK  status: ('A' for Active; 'I' for Inactive)
REMARK    1  A    between atoms: C_5  and  C_6
REMARK                            x       y       z     vdW  Elec       q    Type
REMARK                         _______ _______ _______ _____ _____    ______ ____
ROOT
ATOM      1  C   UNL     1       6.498   5.272  15.801  0.00  0.00    +0.000 A 
ATOM      2  C   UNL     1       5.380   4.527  15.780  0.00  0.00    +0.000 A 
ATOM      3  C   UNL     1       4.956   3.984  17.082  0.00  0.00    +0.000 A 
ATOM      4  N   UNL     1       3.943   3.245  17.413  0.00  0.00    +0.000 NA
ATOM      5  C   UNL     1       4.096   3.098  18.793  0.00  0.00    +0.000 A 
ATOM      6  N   UNL     1       5.144   3.658  19.340  0.00  0.00    +0.000 NA
ATOM      7  C   UNL     1       5.746   4.269  18.285  0.00  0.00    +0.000 A 
ATOM      8  C   UNL     1       6.836   5.025  18.169  0.00  0.00    +0.000 A 
ATOM      9  N   UNL     1       7.223   5.527  16.946  0.00  0.00    +0.000 N 
ATOM     10  H   UNL     1       8.060   6.099  16.891  0.00  0.00    +0.000 HD
ENDROOT
BRANCH   5  11
ATOM     11  C   UNL     1       3.097   2.269  19.574  0.00  0.00    +0.000 C 
ATOM     12  C   UNL     1       1.747   2.154  18.858  0.00  0.00    +0.000 C 
ATOM     13  C   UNL     1       0.975   3.472  18.898  0.00  0.00    +0.000 C 
ATOM     14  N   UNL     1       0.790   3.952  20.269  0.00  0.00    +0.000 NA
ATOM     15  C   UNL     1       2.074   4.136  20.950  0.00  0.00    +0.000 C 
ATOM     16  C   UNL     1       2.888   2.841  20.985  0.00  0.00    +0.000 C 
ATOM     17  H   UNL     1       0.235   3.273  20.788  0.00  0.00    +0.000 HD
ENDBRANCH   5  11
TORSDOF 1
ENDMDL
MODEL 7
REMARK VINA RESULT:      -6.8      1.556      5.307
REMARK  Name = 
REMARK  1 active torsions:
REMARK  status: ('A' for Active; 'I' for Inactive)
REMARK    1  A    between atoms: C_5  and  C_6
REMARK                            x       y       z     vdW  Elec       q    Type
REMARK                         _______ _______ _______ _____ _____    ______ ____
ROOT
ATOM      1  C   UNL     1       1.050   2.566  18.580  0.00  0.00    +0.000 A 
ATOM      2  C   UNL     1       1.426   3.808  18.231  0.00  0.00    +0.000 A 
ATOM      3  C   UNL     1       2.861   4.102  18.385  0.00  0.00    +0.000 A 
ATOM      4  N   UNL     1       3.546   5.176  18.142  0.00  0.00    +0.000 NA
ATOM      5  C   UNL     1       4.849   4.803  18.475  0.00  0.00    +0.000 A 
ATOM      6  N   UNL     1       5.023   3.592  18.938  0.00  0.00    +0.000 NA
ATOM      7  C   UNL     1       3.769   3.069  18.895  0.00  0.00    +0.000 A 
ATOM      8  C   UNL     1       3.268   1.874  19.204  0.00  0.00    +0.000 A 
ATOM      9  N   UNL     1       1.924   1.610  19.056  0.00  0.00    +0.000 N 
ATOM     10  H   UNL     1       1.573   0.690  19.302  0.00  0.00    +0.000 HD
ENDROOT
BRANCH   5  11
ATOM     11  C   UNL     1       5.975   5.809  18.340  0.00  0.00    +0.000 C 
ATOM     12  C   UNL     1       5.726   6.816  17.212  0.00  0.00    +0.000 C 
ATOM     13  C   UNL     1       5.882   6.169  15.836  0.00  0.00    +0.000 C 
ATOM     14  N   UNL     1       7.192   5.534  15.679  0.00  0.00    +0.000 NA
ATOM     15  C   UNL     1       7.421   4.517  16.707  0.00  0.00    +0.000 C 
ATOM     16  C   UNL     1       7.321   5.102  18.117  0.00  0.00    +0.000 C 
ATOM     17  H   UNL     1       7.918   6.246  15.750  0.00  0.00    +0.000 HD
ENDBRANCH   5  11
TORSDOF 1
ENDMDL
MODEL 8
REMARK VINA RESULT:      -6.7      1.534      5.177
REMARK  Name = 
REMARK  1 active torsions:
REMARK  status: ('A' for Active; 'I' for Inactive)
REMARK    1  A    between atoms: C_5  and  C_6
REMARK                            x       y       z     vdW  Elec       q    Type
REMARK                         _______ _______ _______ _____ _____    ______ ____
ROOT
ATOM      1  C   UNL     1       1.941   3.823  21.198  0.00  0.00    +0.000 A 
ATOM      2  C   UNL     1       1.945   4.755  20.230  0.00  0.00    +0.000 A 
ATOM      3  C   UNL     1       2.920   4.538  19.147  0.00  0.00    +0.000 A 
ATOM      4  N   UNL     1       3.180   5.226  18.079  0.00  0.00    +0.000 NA
ATOM      5  C   UNL     1       4.186   4.483  17.461  0.00  0.00    +0.000 A 
ATOM      6  N   UNL     1       4.596   3.405  18.078  0.00  0.00    +0.000 NA
ATOM      7  C   UNL     1       3.804   3.368  19.181  0.00  0.00    +0.000 A 
ATOM      8  C   UNL     1       3.697   2.517  20.200  0.00  0.00    +0.000 A 
ATOM      9  N   UNL     1       2.781   2.729  21.208  0.00  0.00    +0.000 N 
ATOM     10  H   UNL     1       2.727   2.062  21.971  0.00  0.00    +0.000 HD
ENDROOT
BRANCH   5  11
ATOM     11  C   UNL     1       4.787   4.971  16.157  0.00  0.00    +0.000 C 
ATOM     12  C   UNL     1       6.098   4.256  15.815  0.00  0.00    +0.000 C 
ATOM     13  C   UNL     1       7.238   4.702  16.730  0.00  0.00    +0.000 C 
ATOM     14  N   UNL     1       7.421   6.155  16.701  0.00  0.00    +0.000 NA
ATOM     15  C   UNL     1       6.198   6.857  17.094  0.00  0.00    +0.000 C 
ATOM     16  C   UNL     1       5.018   6.490  16.192  0.00  0.00    +0.000 C 
ATOM     17  H   UNL     1       7.678   6.439  15.757  0.00  0.00    +0.000 HD
ENDBRANCH   5  11
TORSDOF 1
ENDMDL
MODEL 9
REMARK VINA RESULT:      -6.7      1.485      5.195
REMARK  Name = 
REMARK  1 active torsions:
REMARK  status: ('A' for Active; 'I' for Inactive)
REMARK    1  A    between atoms: C_5  and  C_6
REMARK                            x       y       z     vdW  Elec       q    Type
REMARK                         _______ _______ _______ _____ _____    ______ ____
ROOT
ATOM      1  C   UNL     1       1.424   3.833  20.710  0.00  0.00    +0.000 A 
ATOM      2  C   UNL     1       1.949   4.977  20.240  0.00  0.00    +0.000 A 
ATOM      3  C   UNL     1       3.317   4.873  19.703  0.00  0.00    +0.000 A 
ATOM      4  N   UNL     1       4.101   5.762  19.178  0.00  0.00    +0.000 NA
ATOM      5  C   UNL     1       5.242   5.026  18.853  0.00  0.00    +0.000 A 
ATOM      6  N   UNL     1       5.242   3.756  19.166  0.00  0.00    +0.000 NA
ATOM      7  C   UNL     1       4.010   3.579  19.712  0.00  0.00    +0.000 A 
ATOM      8  C   UNL     1       3.374   2.518  20.207  0.00  0.00    +0.000 A 
ATOM      9  N   UNL     1       2.095   2.628  20.706  0.00  0.00    +0.000 N 
ATOM     10  H   UNL     1       1.639   1.801  21.077  0.00  0.00    +0.000 HD
ENDROOT
BRANCH   5  11
ATOM     11  C   UNL     1       6.428   5.723  18.216  0.00  0.00    +0.000 C 
ATOM     12  C   UNL     1       6.006   6.902  17.332  0.00  0.00    +0.000 C 
ATOM     13  C   UNL     1       5.346   6.427  16.039  0.00  0.00    +0.000 C 
ATOM     14  N   UNL     1       6.208   5.508  15.293  0.00  0.00    +0.000 NA
ATOM     15  C   UNL     1       6.566   4.338  16.098  0.00  0.00    +0.000 C 
ATOM     16  C   UNL     1       7.272   4.735  17.395  0.00  0.00    +0.000 C 
ATOM     17  H   UNL     1       7.060   5.997  15.022  0.00  0.00    +0.000 HD
ENDBRANCH   5  11
TORSDOF 1
ENDMDL
