MODEL 1
REMARK VINA RESULT:      -7.4      0.000      0.000
REMARK  Name = 
REMARK  5 active torsions:
REMARK  status: ('A' for Active; 'I' for Inactive)
REMARK    1  A    between atoms: C_2  and  C_5
REMARK    2  A    between atoms: N_3  and  O_4
REMARK    3  A    between atoms: C_7  and  C_8
REMARK    4  A    between atoms: C_8  and  S_9
REMARK    5  A    between atoms: S_9  and  C_10
REMARK                            x       y       z     vdW  Elec       q    Type
REMARK                         _______ _______ _______ _____ _____    ______ ____
ROOT
ATOM      1  C   UNL     1       6.693   4.763  14.171  0.00  0.00    +0.000 A 
ATOM      2  C   UNL     1       5.594   4.953  15.041  0.00  0.00    +0.000 A 
ATOM      3  C   UNL     1       6.073   5.746  16.057  0.00  0.00    +0.000 A 
ATOM      4  O   UNL     1       7.378   6.041  15.803  0.00  0.00    +0.000 OA
ATOM      5  N   UNL     1       7.777   5.418  14.626  0.00  0.00    +0.000 NA
ENDROOT
BRANCH   1   7
ATOM      6  O   UNL     1       7.258   4.347  11.907  0.00  0.00    +0.000 OA
ATOM      7  C   UNL     1       6.694   3.978  12.942  0.00  0.00    +0.000 C 
ATOM      8  N   UNL     1       5.999   2.795  12.993  0.00  0.00    +0.000 N 
ATOM      9  H   UNL     1       5.401   2.550  13.777  0.00  0.00    +0.000 HD
BRANCH   8  10
ATOM     10  O   UNL     1       5.872   2.067  11.789  0.00  0.00    +0.000 OA
ATOM     11  H   UNL     1       5.083   1.506  11.960  0.00  0.00    +0.000 HD
ENDBRANCH   8  10
ENDBRANCH   1   7
BRANCH   3  12
ATOM     12  C   UNL     1       5.467   6.346  17.281  0.00  0.00    +0.000 C 
BRANCH  12  13
ATOM     13  S   UNL     1       5.470   5.111  18.635  0.00  0.00    +0.000 S 
BRANCH  13  14
ATOM     14  C   UNL     1       3.901   4.249  18.567  0.00  0.00    +0.000 A 
ATOM     15  C   UNL     1       4.041   2.844  18.585  0.00  0.00    +0.000 A 
ATOM     16  C   UNL     1       2.951   1.992  18.392  0.00  0.00    +0.000 A 
ATOM     17  C   UNL     1       1.688   2.525  18.181  0.00  0.00    +0.000 A 
ATOM     18  C   UNL     1       1.521   3.909  18.171  0.00  0.00    +0.000 A 
ATOM     19  C   UNL     1       2.615   4.771  18.355  0.00  0.00    +0.000 A 
ATOM     20 CL   UNL     1       2.263   6.453  18.220  0.00  0.00    +0.000 Cl
ENDBRANCH  13  14
ENDBRANCH  12  13
ENDBRANCH   3  12
TORSDOF 5
ENDMDL
MODEL 2
REMARK VINA RESULT:      -7.4      1.162      1.240
REMARK  Name = 
REMARK  5 active torsions:
REMARK  status: ('A' for Active; 'I' for Inactive)
REMARK    1  A    between atoms: C_2  and  C_5
REMARK    2  A    between atoms: N_3  and  O_4
REMARK    3  A    between atoms: C_7  and  C_8
REMARK    4  A    between atoms: C_8  and  S_9
REMARK    5  A    between atoms: S_9  and  C_10
REMARK                            x       y       z     vdW  Elec       q    Type
REMARK                         _______ _______ _______ _____ _____    ______ ____
ROOT
ATOM      1  C   UNL     1       6.744   4.754  14.706  0.00  0.00    +0.000 A 
ATOM      2  C   UNL     1       5.794   4.464  15.712  0.00  0.00    +0.000 A 
ATOM      3  C   UNL     1       6.154   5.245  16.784  0.00  0.00    +0.000 A 
ATOM      4  O   UNL     1       7.245   5.985  16.438  0.00  0.00    +0.000 OA
ATOM      5  N   UNL     1       7.627   5.673  15.139  0.00  0.00    +0.000 NA
ENDROOT
BRANCH   1   7
ATOM      6  O   UNL     1       7.393   4.689  12.428  0.00  0.00    +0.000 OA
ATOM      7  C   UNL     1       6.797   4.165  13.374  0.00  0.00    +0.000 C 
ATOM      8  N   UNL     1       6.111   2.985  13.219  0.00  0.00    +0.000 N 
ATOM      9  H   UNL     1       5.488   2.621  13.934  0.00  0.00    +0.000 HD
BRANCH   8  10
ATOM     10  O   UNL     1       6.034   2.448  11.914  0.00  0.00    +0.000 OA
ATOM     11  H   UNL     1       5.081   2.553  11.696  0.00  0.00    +0.000 HD
ENDBRANCH   8  10
ENDBRANCH   1   7
BRANCH   3  12
ATOM     12  C   UNL     1       5.593   5.461  18.149  0.00  0.00    +0.000 C 
BRANCH  12  13
ATOM     13  S   UNL     1       3.859   6.042  18.014  0.00  0.00    +0.000 S 
BRANCH  13  14
ATOM     14  C   UNL     1       2.810   4.711  18.597  0.00  0.00    +0.000 A 
ATOM     15  C   UNL     1       2.837   3.578  17.755  0.00  0.00    +0.000 A 
ATOM     16  C   UNL     1       1.980   2.492  17.953  0.00  0.00    +0.000 A 
ATOM     17  C   UNL     1       1.075   2.510  19.004  0.00  0.00    +0.000 A 
ATOM     18  C   UNL     1       1.037   3.613  19.857  0.00  0.00    +0.000 A 
ATOM     19  C   UNL     1       1.890   4.711  19.657  0.00  0.00    +0.000 A 
ATOM     20 CL   UNL     1       1.656   6.036  20.736  0.00  0.00    +0.000 Cl
ENDBRANCH  13  14
ENDBRANCH  12  13
ENDBRANCH   3  12
TORSDOF 5
ENDMDL
MODEL 3
REMARK VINA RESULT:      -7.3      1.589      1.904
REMARK  Name = 
REMARK  5 active torsions:
REMARK  status: ('A' for Active; 'I' for Inactive)
REMARK    1  A    between atoms: C_2  and  C_5
REMARK    2  A    between atoms: N_3  and  O_4
REMARK    3  A    between atoms: C_7  and  C_8
REMARK    4  A    between atoms: C_8  and  S_9
REMARK    5  A    between atoms: S_9  and  C_10
REMARK                            x       y       z     vdW  Elec       q    Type
REMARK                         _______ _______ _______ _____ _____    ______ ____
ROOT
ATOM      1  C   UNL     1       6.576   4.361  14.325  0.00  0.00    +0.000 A 
ATOM      2  C   UNL     1       6.114   3.803  15.540  0.00  0.00    +0.000 A 
ATOM      3  C   UNL     1       6.727   4.535  16.529  0.00  0.00    +0.000 A 
ATOM      4  O   UNL     1       7.496   5.498  15.947  0.00  0.00    +0.000 OA
ATOM      5  N   UNL     1       7.415   5.386  14.564  0.00  0.00    +0.000 NA
ENDROOT
BRANCH   1   7
ATOM      6  O   UNL     1       7.021   3.905  12.042  0.00  0.00    +0.000 OA
ATOM      7  C   UNL     1       6.220   3.920  12.982  0.00  0.00    +0.000 C 
ATOM      8  N   UNL     1       4.912   3.539  12.811  0.00  0.00    +0.000 N 
ATOM      9  H   UNL     1       4.203   3.693  13.522  0.00  0.00    +0.000 HD
BRANCH   8  10
ATOM     10  O   UNL     1       4.497   3.225  11.497  0.00  0.00    +0.000 OA
ATOM     11  H   UNL     1       5.248   2.689  11.158  0.00  0.00    +0.000 HD
ENDBRANCH   8  10
ENDBRANCH   1   7
BRANCH   3  12
ATOM     12  C   UNL     1       6.681   4.512  18.019  0.00  0.00    +0.000 C 
BRANCH  12  13
ATOM     13  S   UNL     1       5.222   5.456  18.603  0.00  0.00    +0.000 S 
BRANCH  13  14
ATOM     14  C   UNL     1       3.807   4.364  18.487  0.00  0.00    +0.000 A 
ATOM     15  C   UNL     1       2.735   4.923  17.759  0.00  0.00    +0.000 A 
ATOM     16  C   UNL     1       1.490   4.295  17.679  0.00  0.00    +0.000 A 
ATOM     17  C   UNL     1       1.287   3.083  18.322  0.00  0.00    +0.000 A 
ATOM     18  C   UNL     1       2.333   2.503  19.039  0.00  0.00    +0.000 A 
ATOM     19  C   UNL     1       3.584   3.136  19.131  0.00  0.00    +0.000 A 
ATOM     20 CL   UNL     1       4.743   2.342  20.130  0.00  0.00    +0.000 Cl
ENDBRANCH  13  14
ENDBRANCH  12  13
ENDBRANCH   3  12
TORSDOF 5
ENDMDL
MODEL 4
REMARK VINA RESULT:      -7.3      2.067      2.546
REMARK  Name = 
REMARK  5 active torsions:
REMARK  status: ('A' for Active; 'I' for Inactive)
REMARK    1  A    between atoms: C_2  and  C_5
REMARK    2  A    between atoms: N_3  and  O_4
REMARK    3  A    between atoms: C_7  and  C_8
REMARK    4  A    between atoms: C_8  and  S_9
REMARK    5  A    between atoms: S_9  and  C_10
REMARK                            x       y       z     vdW  Elec       q    Type
REMARK                         _______ _______ _______ _____ _____    ______ ____
ROOT
ATOM      1  C   UNL     1       6.889   4.685  16.044  0.00  0.00    +0.000 A 
ATOM      2  C   UNL     1       5.786   5.020  16.863  0.00  0.00    +0.000 A 
ATOM      3  C   UNL     1       6.219   4.819  18.152  0.00  0.00    +0.000 A 
ATOM      4  O   UNL     1       7.518   4.410  18.117  0.00  0.00    +0.000 OA
ATOM      5  N   UNL     1       7.941   4.313  16.796  0.00  0.00    +0.000 NA
ENDROOT
BRANCH   1   7
ATOM      6  O   UNL     1       6.155   4.071  13.876  0.00  0.00    +0.000 OA
ATOM      7  C   UNL     1       6.925   4.724  14.588  0.00  0.00    +0.000 C 
ATOM      8  N   UNL     1       7.899   5.522  14.039  0.00  0.00    +0.000 N 
ATOM      9  H   UNL     1       8.638   5.939  14.598  0.00  0.00    +0.000 HD
BRANCH   8  10
ATOM     10  O   UNL     1       8.047   5.489  12.634  0.00  0.00    +0.000 OA
ATOM     11  H   UNL     1       7.236   5.014  12.345  0.00  0.00    +0.000 HD
ENDBRANCH   8  10
ENDBRANCH   1   7
BRANCH   3  12
ATOM     12  C   UNL     1       5.598   4.993  19.497  0.00  0.00    +0.000 C 
BRANCH  12  13
ATOM     13  S   UNL     1       3.933   5.737  19.312  0.00  0.00    +0.000 S 
BRANCH  13  14
ATOM     14  C   UNL     1       2.758   4.387  19.234  0.00  0.00    +0.000 A 
ATOM     15  C   UNL     1       2.327   4.105  17.920  0.00  0.00    +0.000 A 
ATOM     16  C   UNL     1       1.304   3.189  17.661  0.00  0.00    +0.000 A 
ATOM     17  C   UNL     1       0.689   2.525  18.712  0.00  0.00    +0.000 A 
ATOM     18  C   UNL     1       1.105   2.778  20.019  0.00  0.00    +0.000 A 
ATOM     19  C   UNL     1       2.126   3.705  20.286  0.00  0.00    +0.000 A 
ATOM     20 CL   UNL     1       2.459   3.977  21.956  0.00  0.00    +0.000 Cl
ENDBRANCH  13  14
ENDBRANCH  12  13
ENDBRANCH   3  12
TORSDOF 5
ENDMDL
MODEL 5
REMARK VINA RESULT:      -7.2      1.275      1.453
REMARK  Name = 
REMARK  5 active torsions:
REMARK  status: ('A' for Active; 'I' for Inactive)
REMARK    1  A    between atoms: C_2  and  C_5
REMARK    2  A    between atoms: N_3  and  O_4
REMARK    3  A    between atoms: C_7  and  C_8
REMARK    4  A    between atoms: C_8  and  S_9
REMARK    5  A    between atoms: S_9  and  C_10
REMARK                            x       y       z     vdW  Elec       q    Type
REMARK                         _______ _______ _______ _____ _____    ______ ____
ROOT
ATOM      1  C   UNL     1       6.415   4.084  13.950  0.00  0.00    +0.000 A 
ATOM      2  C   UNL     1       6.271   3.679  15.298  0.00  0.00    +0.000 A 
ATOM      3  C   UNL     1       7.030   4.566  16.023  0.00  0.00    +0.000 A 
ATOM      4  O   UNL     1       7.582   5.472  15.167  0.00  0.00    +0.000 OA
ATOM      5  N   UNL     1       7.208   5.167  13.864  0.00  0.00    +0.000 NA
ENDROOT
BRANCH   1   7
ATOM      6  O   UNL     1       4.697   3.765  12.349  0.00  0.00    +0.000 OA
ATOM      7  C   UNL     1       5.807   3.447  12.789  0.00  0.00    +0.000 C 
ATOM      8  N   UNL     1       6.538   2.437  12.215  0.00  0.00    +0.000 N 
ATOM      9  H   UNL     1       7.373   2.055  12.651  0.00  0.00    +0.000 HD
BRANCH   8  10
ATOM     10  O   UNL     1       5.929   1.713  11.166  0.00  0.00    +0.000 OA
ATOM     11  H   UNL     1       5.211   2.319  10.876  0.00  0.00    +0.000 HD
ENDBRANCH   8  10
ENDBRANCH   1   7
BRANCH   3  12
ATOM     12  C   UNL     1       7.313   4.746  17.477  0.00  0.00    +0.000 C 
BRANCH  12  13
ATOM     13  S   UNL     1       6.222   6.054  18.156  0.00  0.00    +0.000 S 
BRANCH  13  14
ATOM     14  C   UNL     1       4.573   5.361  18.266  0.00  0.00    +0.000 A 
ATOM     15  C   UNL     1       4.574   3.967  18.491  0.00  0.00    +0.000 A 
ATOM     16  C   UNL     1       3.397   3.215  18.462  0.00  0.00    +0.000 A 
ATOM     17  C   UNL     1       2.185   3.841  18.213  0.00  0.00    +0.000 A 
ATOM     18  C   UNL     1       2.156   5.219  18.000  0.00  0.00    +0.000 A 
ATOM     19  C   UNL     1       3.338   5.978  18.018  0.00  0.00    +0.000 A 
ATOM     20 CL   UNL     1       3.149   7.651  17.643  0.00  0.00    +0.000 Cl
ENDBRANCH  13  14
ENDBRANCH  12  13
ENDBRANCH   3  12
TORSDOF 5
ENDMDL
MODEL 6
REMARK VINA RESULT:      -7.1      1.646      2.010
REMARK  Name = 
REMARK  5 active torsions:
REMARK  status: ('A' for Active; 'I' for Inactive)
REMARK    1  A    between atoms: C_2  and  C_5
REMARK    2  A    between atoms: N_3  and  O_4
REMARK    3  A    between atoms: C_7  and  C_8
REMARK    4  A    between atoms: C_8  and  S_9
REMARK    5  A    between atoms: S_9  and  C_10
REMARK                            x       y       z     vdW  Elec       q    Type
REMARK                         _______ _______ _______ _____ _____    ______ ____
ROOT
ATOM      1  C   UNL     1       6.125   4.366  14.120  0.00  0.00    +0.000 A 
ATOM      2  C   UNL     1       5.285   4.442  15.255  0.00  0.00    +0.000 A 
ATOM      3  C   UNL     1       5.934   5.281  16.129  0.00  0.00    +0.000 A 
ATOM      4  O   UNL     1       7.090   5.708  15.546  0.00  0.00    +0.000 OA
ATOM      5  N   UNL     1       7.221   5.128  14.290  0.00  0.00    +0.000 NA
ENDROOT
BRANCH   1   7
ATOM      6  O   UNL     1       4.782   3.551  12.345  0.00  0.00    +0.000 OA
ATOM      7  C   UNL     1       5.878   3.585  12.914  0.00  0.00    +0.000 C 
ATOM      8  N   UNL     1       6.944   2.853  12.452  0.00  0.00    +0.000 N 
ATOM      9  H   UNL     1       7.800   2.741  12.988  0.00  0.00    +0.000 HD
BRANCH   8  10
ATOM     10  O   UNL     1       6.710   1.987  11.360  0.00  0.00    +0.000 OA
ATOM     11  H   UNL     1       7.289   2.364  10.660  0.00  0.00    +0.000 HD
ENDBRANCH   8  10
ENDBRANCH   1   7
BRANCH   3  12
ATOM     12  C   UNL     1       5.619   5.816  17.485  0.00  0.00    +0.000 C 
BRANCH  12  13
ATOM     13  S   UNL     1       5.492   4.429  18.677  0.00  0.00    +0.000 S 
BRANCH  13  14
ATOM     14  C   UNL     1       3.758   4.246  19.091  0.00  0.00    +0.000 A 
ATOM     15  C   UNL     1       3.267   5.302  19.889  0.00  0.00    +0.000 A 
ATOM     16  C   UNL     1       1.983   5.273  20.439  0.00  0.00    +0.000 A 
ATOM     17  C   UNL     1       1.154   4.187  20.200  0.00  0.00    +0.000 A 
ATOM     18  C   UNL     1       1.612   3.137  19.405  0.00  0.00    +0.000 A 
ATOM     19  C   UNL     1       2.905   3.157  18.857  0.00  0.00    +0.000 A 
ATOM     20 CL   UNL     1       3.357   1.743  17.979  0.00  0.00    +0.000 Cl
ENDBRANCH  13  14
ENDBRANCH  12  13
ENDBRANCH   3  12
TORSDOF 5
ENDMDL
MODEL 7
REMARK VINA RESULT:      -7.1      1.831      2.077
REMARK  Name = 
REMARK  5 active torsions:
REMARK  status: ('A' for Active; 'I' for Inactive)
REMARK    1  A    between atoms: C_2  and  C_5
REMARK    2  A    between atoms: N_3  and  O_4
REMARK    3  A    between atoms: C_7  and  C_8
REMARK    4  A    between atoms: C_8  and  S_9
REMARK    5  A    between atoms: S_9  and  C_10
REMARK                            x       y       z     vdW  Elec       q    Type
REMARK                         _______ _______ _______ _____ _____    ______ ____
ROOT
ATOM      1  C   UNL     1       6.806   5.144  15.807  0.00  0.00    +0.000 A 
ATOM      2  C   UNL     1       6.027   4.490  16.790  0.00  0.00    +0.000 A 
ATOM      3  C   UNL     1       6.200   5.228  17.937  0.00  0.00    +0.000 A 
ATOM      4  O   UNL     1       7.016   6.283  17.658  0.00  0.00    +0.000 OA
ATOM      5  N   UNL     1       7.409   6.229  16.326  0.00  0.00    +0.000 NA
ENDROOT
BRANCH   1   7
ATOM      6  O   UNL     1       7.579   5.403  13.582  0.00  0.00    +0.000 OA
ATOM      7  C   UNL     1       6.961   4.734  14.417  0.00  0.00    +0.000 C 
ATOM      8  N   UNL     1       6.349   3.554  14.074  0.00  0.00    +0.000 N 
ATOM      9  H   UNL     1       5.708   3.073  14.698  0.00  0.00    +0.000 HD
BRANCH   8  10
ATOM     10  O   UNL     1       6.370   3.187  12.709  0.00  0.00    +0.000 OA
ATOM     11  H   UNL     1       5.457   3.404  12.415  0.00  0.00    +0.000 HD
ENDBRANCH   8  10
ENDBRANCH   1   7
BRANCH   3  12
ATOM     12  C   UNL     1       5.665   5.132  19.326  0.00  0.00    +0.000 C 
BRANCH  12  13
ATOM     13  S   UNL     1       3.946   5.767  19.367  0.00  0.00    +0.000 S 
BRANCH  13  14
ATOM     14  C   UNL     1       2.857   4.350  19.240  0.00  0.00    +0.000 A 
ATOM     15  C   UNL     1       2.521   4.029  17.908  0.00  0.00    +0.000 A 
ATOM     16  C   UNL     1       1.570   3.052  17.602  0.00  0.00    +0.000 A 
ATOM     17  C   UNL     1       0.933   2.366  18.625  0.00  0.00    +0.000 A 
ATOM     18  C   UNL     1       1.256   2.656  19.950  0.00  0.00    +0.000 A 
ATOM     19  C   UNL     1       2.204   3.644  20.263  0.00  0.00    +0.000 A 
ATOM     20 CL   UNL     1       2.422   3.953  21.946  0.00  0.00    +0.000 Cl
ENDBRANCH  13  14
ENDBRANCH  12  13
ENDBRANCH   3  12
TORSDOF 5
ENDMDL
MODEL 8
REMARK VINA RESULT:      -7.1      1.370      1.438
REMARK  Name = 
REMARK  5 active torsions:
REMARK  status: ('A' for Active; 'I' for Inactive)
REMARK    1  A    between atoms: C_2  and  C_5
REMARK    2  A    between atoms: N_3  and  O_4
REMARK    3  A    between atoms: C_7  and  C_8
REMARK    4  A    between atoms: C_8  and  S_9
REMARK    5  A    between atoms: S_9  and  C_10
REMARK                            x       y       z     vdW  Elec       q    Type
REMARK                         _______ _______ _______ _____ _____    ______ ____
ROOT
ATOM      1  C   UNL     1       6.708   4.754  14.348  0.00  0.00    +0.000 A 
ATOM      2  C   UNL     1       5.671   4.756  15.311  0.00  0.00    +0.000 A 
ATOM      3  C   UNL     1       6.136   5.542  16.339  0.00  0.00    +0.000 A 
ATOM      4  O   UNL     1       7.372   6.009  16.006  0.00  0.00    +0.000 OA
ATOM      5  N   UNL     1       7.741   5.509  14.764  0.00  0.00    +0.000 NA
ENDROOT
BRANCH   1   7
ATOM      6  O   UNL     1       7.248   4.485  12.057  0.00  0.00    +0.000 OA
ATOM      7  C   UNL     1       6.699   4.048  13.073  0.00  0.00    +0.000 C 
ATOM      8  N   UNL     1       6.011   2.859  13.058  0.00  0.00    +0.000 N 
ATOM      9  H   UNL     1       5.424   2.561  13.831  0.00  0.00    +0.000 HD
BRANCH   8  10
ATOM     10  O   UNL     1       5.874   2.208  11.811  0.00  0.00    +0.000 OA
ATOM     11  H   UNL     1       5.572   2.935  11.222  0.00  0.00    +0.000 HD
ENDBRANCH   8  10
ENDBRANCH   1   7
BRANCH   3  12
ATOM     12  C   UNL     1       5.568   5.991  17.643  0.00  0.00    +0.000 C 
BRANCH  12  13
ATOM     13  S   UNL     1       3.755   5.722  17.647  0.00  0.00    +0.000 S 
BRANCH  13  14
ATOM     14  C   UNL     1       3.368   4.756  19.106  0.00  0.00    +0.000 A 
ATOM     15  C   UNL     1       3.849   3.431  19.035  0.00  0.00    +0.000 A 
ATOM     16  C   UNL     1       3.527   2.477  20.003  0.00  0.00    +0.000 A 
ATOM     17  C   UNL     1       2.717   2.827  21.074  0.00  0.00    +0.000 A 
ATOM     18  C   UNL     1       2.239   4.133  21.173  0.00  0.00    +0.000 A 
ATOM     19  C   UNL     1       2.552   5.094  20.197  0.00  0.00    +0.000 A 
ATOM     20 CL   UNL     1       1.807   6.635  20.410  0.00  0.00    +0.000 Cl
ENDBRANCH  13  14
ENDBRANCH  12  13
ENDBRANCH   3  12
TORSDOF 5
ENDMDL
MODEL 9
REMARK VINA RESULT:      -7.1      1.927      2.161
REMARK  Name = 
REMARK  5 active torsions:
REMARK  status: ('A' for Active; 'I' for Inactive)
REMARK    1  A    between atoms: C_2  and  C_5
REMARK    2  A    between atoms: N_3  and  O_4
REMARK    3  A    between atoms: C_7  and  C_8
REMARK    4  A    between atoms: C_8  and  S_9
REMARK    5  A    between atoms: S_9  and  C_10
REMARK                            x       y       z     vdW  Elec       q    Type
REMARK                         _______ _______ _______ _____ _____    ______ ____
ROOT
ATOM      1  C   UNL     1       6.363   5.163  15.286  0.00  0.00    +0.000 A 
ATOM      2  C   UNL     1       6.569   4.518  16.527  0.00  0.00    +0.000 A 
ATOM      3  C   UNL     1       5.805   5.220  17.429  0.00  0.00    +0.000 A 
ATOM      4  O   UNL     1       5.153   6.216  16.766  0.00  0.00    +0.000 OA
ATOM      5  N   UNL     1       5.508   6.193  15.423  0.00  0.00    +0.000 NA
ENDROOT
BRANCH   1   7
ATOM      6  O   UNL     1       7.904   5.424  13.504  0.00  0.00    +0.000 OA
ATOM      7  C   UNL     1       6.970   4.795  14.012  0.00  0.00    +0.000 C 
ATOM      8  N   UNL     1       6.417   3.707  13.383  0.00  0.00    +0.000 N 
ATOM      9  H   UNL     1       5.554   3.276  13.702  0.00  0.00    +0.000 HD
BRANCH   8  10
ATOM     10  O   UNL     1       6.894   3.396  12.090  0.00  0.00    +0.000 OA
ATOM     11  H   UNL     1       6.252   3.860  11.508  0.00  0.00    +0.000 HD
ENDBRANCH   8  10
ENDBRANCH   1   7
BRANCH   3  12
ATOM     12  C   UNL     1       5.532   5.083  18.889  0.00  0.00    +0.000 C 
BRANCH  12  13
ATOM     13  S   UNL     1       3.925   5.869  19.288  0.00  0.00    +0.000 S 
BRANCH  13  14
ATOM     14  C   UNL     1       2.748   4.548  19.575  0.00  0.00    +0.000 A 
ATOM     15  C   UNL     1       2.356   4.442  20.926  0.00  0.00    +0.000 A 
ATOM     16  C   UNL     1       1.561   3.388  21.382  0.00  0.00    +0.000 A 
ATOM     17  C   UNL     1       1.132   2.413  20.494  0.00  0.00    +0.000 A 
ATOM     18  C   UNL     1       1.496   2.501  19.151  0.00  0.00    +0.000 A 
ATOM     19  C   UNL     1       2.304   3.555  18.689  0.00  0.00    +0.000 A 
ATOM     20 CL   UNL     1       2.747   3.472  17.024  0.00  0.00    +0.000 Cl
ENDBRANCH  13  14
ENDBRANCH  12  13
ENDBRANCH   3  12
TORSDOF 5
ENDMDL
