MODEL 1
REMARK VINA RESULT:      -8.3      0.000      0.000
REMARK  Name = 
REMARK  10 active torsions:
REMARK  status: ('A' for Active; 'I' for Inactive)
REMARK    1  A    between atoms: CD_2  and  OE2_3
REMARK    2  A    between atoms: CD_2  and  CG_4
REMARK    3  A    between atoms: CG_4  and  CB_5
REMARK    4  A    between atoms: CB_5  and  CA_6
REMARK    5  A    between atoms: CA_6  and  N_7
REMARK    6  A    between atoms: CA_6  and  C_28
REMARK    7  A    between atoms: C_8  and  C_10
REMARK    8  A    between atoms: C_15  and  N_16
REMARK    9  A    between atoms: C_17  and  C_19
REMARK   10  A    between atoms: C_28  and  OXT_30
REMARK                            x       y       z     vdW  Elec       q    Type
REMARK                         _______ _______ _______ _____ _____    ______ ____
ROOT
ATOM      1  C   UNK A   0       5.286   4.368  17.198  0.00  0.00    +0.000 A 
ATOM      2  C   UNK A   0       5.860   3.540  16.210  0.00  0.00    +0.000 A 
ATOM      3  C   UNK A   0       6.173   4.041  14.949  0.00  0.00    +0.000 A 
ATOM      4  C   UNK A   0       5.908   5.372  14.659  0.00  0.00    +0.000 A 
ATOM      5  C   UNK A   0       5.254   6.176  15.598  0.00  0.00    +0.000 A 
ATOM      6  C   UNK A   0       4.894   5.677  16.862  0.00  0.00    +0.000 A 
ENDROOT
BRANCH   1   8
ATOM      7  N   GLU A   1       4.097   2.783  18.609  0.00  0.00    +0.000 N 
ATOM      8  C   UNK A   0       5.052   3.783  18.550  0.00  0.00    +0.000 C 
ATOM      9  O   UNK A   0       5.668   4.173  19.540  0.00  0.00    +0.000 OA
ATOM     10  H   GLU A   1       3.975   2.266  17.734  0.00  0.00    +0.000 HD
BRANCH   7  11
ATOM     11  CA  GLU A   1       3.729   2.080  19.848  0.00  0.00    +0.000 C 
BRANCH  11  12
ATOM     12  C   GLU A   1       4.881   1.196  20.357  0.00  0.00    +0.000 C 
ATOM     13  O   GLU A   1       5.537   1.434  21.360  0.00  0.00    +0.000 OA
BRANCH  12  14
ATOM     14  OXT GLU A   1       5.189   0.175  19.520  0.00  0.00    +0.000 OA
ATOM     15  HXT GLU A   1       5.968   0.425  18.980  0.00  0.00    +0.000 HD
ENDBRANCH  12  14
ENDBRANCH  11  12
BRANCH  11  16
ATOM     16  CB  GLU A   1       3.299   3.054  20.968  0.00  0.00    +0.000 C 
BRANCH  16  17
ATOM     17  CG  GLU A   1       1.821   2.996  21.403  0.00  0.00    +0.000 C 
BRANCH  17  19
ATOM     18  OE1 GLU A   1       0.426   2.680  19.459  0.00  0.00    +0.000 OA
ATOM     19  CD  GLU A   1       0.870   3.431  20.318  0.00  0.00    +0.000 C 
BRANCH  19  20
ATOM     20  OE2 GLU A   1       0.586   4.746  20.329  0.00  0.00    +0.000 OA
ATOM     21  HE2 GLU A   1       1.344   5.329  20.529  0.00  0.00    +0.000 HD
ENDBRANCH  19  20
ENDBRANCH  17  19
ENDBRANCH  16  17
ENDBRANCH  11  16
ENDBRANCH   7  11
ENDBRANCH   1   8
BRANCH   6  22
ATOM     22  N   UNK A   0       4.200   6.514  17.774  0.00  0.00    +0.000 N 
ATOM     23  C   UNK A   0       2.862   6.342  18.112  0.00  0.00    +0.000 C 
ATOM     24  O   UNK A   0       2.196   5.355  17.805  0.00  0.00    +0.000 OA
ATOM     25  H   UNK A   0       4.762   6.983  18.480  0.00  0.00    +0.000 HD
BRANCH  23  26
ATOM     26  C   UNK A   0       2.287   7.422  18.896  0.00  0.00    +0.000 A 
ATOM     27  C   UNK A   0       1.794   8.652  18.504  0.00  0.00    +0.000 A 
ATOM     28  C   UNK A   0       1.216   9.294  19.631  0.00  0.00    +0.000 A 
ATOM     29  C   UNK A   0       0.532  10.511  19.809  0.00  0.00    +0.000 A 
ATOM     30  C   UNK A   0       0.062  10.858  21.078  0.00  0.00    +0.000 A 
ATOM     31  C   UNK A   0       0.272  10.010  22.164  0.00  0.00    +0.000 A 
ATOM     32  C   UNK A   0       0.949   8.793  22.012  0.00  0.00    +0.000 A 
ATOM     33  C   UNK A   0       1.405   8.456  20.727  0.00  0.00    +0.000 A 
ATOM     34  N   UNK A   0       2.062   7.334  20.259  0.00  0.00    +0.000 N 
ATOM     35  H   UNK A   0       2.314   6.531  20.823  0.00  0.00    +0.000 HD
ENDBRANCH  23  26
ENDBRANCH   6  22
TORSDOF 10
ENDMDL
MODEL 2
REMARK VINA RESULT:      -8.2      2.310      4.549
REMARK  Name = 
REMARK  10 active torsions:
REMARK  status: ('A' for Active; 'I' for Inactive)
REMARK    1  A    between atoms: CD_2  and  OE2_3
REMARK    2  A    between atoms: CD_2  and  CG_4
REMARK    3  A    between atoms: CG_4  and  CB_5
REMARK    4  A    between atoms: CB_5  and  CA_6
REMARK    5  A    between atoms: CA_6  and  N_7
REMARK    6  A    between atoms: CA_6  and  C_28
REMARK    7  A    between atoms: C_8  and  C_10
REMARK    8  A    between atoms: C_15  and  N_16
REMARK    9  A    between atoms: C_17  and  C_19
REMARK   10  A    between atoms: C_28  and  OXT_30
REMARK                            x       y       z     vdW  Elec       q    Type
REMARK                         _______ _______ _______ _____ _____    ______ ____
ROOT
ATOM      1  C   UNK A   0       3.434   3.807  17.788  0.00  0.00    +0.000 A 
ATOM      2  C   UNK A   0       3.556   2.402  17.746  0.00  0.00    +0.000 A 
ATOM      3  C   UNK A   0       2.522   1.579  18.183  0.00  0.00    +0.000 A 
ATOM      4  C   UNK A   0       1.357   2.152  18.676  0.00  0.00    +0.000 A 
ATOM      5  C   UNK A   0       1.262   3.540  18.810  0.00  0.00    +0.000 A 
ATOM      6  C   UNK A   0       2.312   4.385  18.409  0.00  0.00    +0.000 A 
ENDROOT
BRANCH   1   8
ATOM      7  N   GLU A   1       5.796   4.022  17.251  0.00  0.00    +0.000 N 
ATOM      8  C   UNK A   0       4.549   4.623  17.228  0.00  0.00    +0.000 C 
ATOM      9  O   UNK A   0       4.364   5.753  16.780  0.00  0.00    +0.000 OA
ATOM     10  H   GLU A   1       5.770   2.999  17.232  0.00  0.00    +0.000 HD
BRANCH   7  11
ATOM     11  CA  GLU A   1       7.018   4.662  16.740  0.00  0.00    +0.000 C 
BRANCH  11  12
ATOM     12  C   GLU A   1       7.072   4.625  15.202  0.00  0.00    +0.000 C 
ATOM     13  O   GLU A   1       7.552   5.510  14.511  0.00  0.00    +0.000 OA
BRANCH  12  14
ATOM     14  OXT GLU A   1       6.425   3.561  14.665  0.00  0.00    +0.000 OA
ATOM     15  HXT GLU A   1       6.053   3.013  15.386  0.00  0.00    +0.000 HD
ENDBRANCH  12  14
ENDBRANCH  11  12
BRANCH  11  16
ATOM     16  CB  GLU A   1       7.159   6.124  17.221  0.00  0.00    +0.000 C 
BRANCH  16  17
ATOM     17  CG  GLU A   1       7.993   6.353  18.497  0.00  0.00    +0.000 C 
BRANCH  17  19
ATOM     18  OE1 GLU A   1       6.288   5.302  19.843  0.00  0.00    +0.000 OA
ATOM     19  CD  GLU A   1       7.465   5.600  19.690  0.00  0.00    +0.000 C 
BRANCH  19  20
ATOM     20  OE2 GLU A   1       8.395   5.328  20.624  0.00  0.00    +0.000 OA
ATOM     21  HE2 GLU A   1       8.100   4.725  21.335  0.00  0.00    +0.000 HD
ENDBRANCH  19  20
ENDBRANCH  17  19
ENDBRANCH  16  17
ENDBRANCH  11  16
ENDBRANCH   7  11
ENDBRANCH   1   8
BRANCH   6  22
ATOM     22  N   UNK A   0       2.191   5.788  18.594  0.00  0.00    +0.000 N 
ATOM     23  C   UNK A   0       2.078   6.394  19.840  0.00  0.00    +0.000 C 
ATOM     24  O   UNK A   0       2.252   5.809  20.907  0.00  0.00    +0.000 OA
ATOM     25  H   UNK A   0       2.586   6.379  17.866  0.00  0.00    +0.000 HD
BRANCH  23  26
ATOM     26  C   UNK A   0       1.757   7.811  19.803  0.00  0.00    +0.000 A 
ATOM     27  C   UNK A   0       1.786   8.710  18.753  0.00  0.00    +0.000 A 
ATOM     28  C   UNK A   0       1.251   9.948  19.198  0.00  0.00    +0.000 A 
ATOM     29  C   UNK A   0       0.990  11.176  18.561  0.00  0.00    +0.000 A 
ATOM     30  C   UNK A   0       0.429  12.226  19.294  0.00  0.00    +0.000 A 
ATOM     31  C   UNK A   0       0.136  12.065  20.646  0.00  0.00    +0.000 A 
ATOM     32  C   UNK A   0       0.386  10.852  21.301  0.00  0.00    +0.000 A 
ATOM     33  C   UNK A   0       0.938   9.804  20.547  0.00  0.00    +0.000 A 
ATOM     34  N   UNK A   0       1.261   8.506  20.892  0.00  0.00    +0.000 N 
ATOM     35  H   UNK A   0       1.120   8.095  21.808  0.00  0.00    +0.000 HD
ENDBRANCH  23  26
ENDBRANCH   6  22
TORSDOF 10
ENDMDL
MODEL 3
REMARK VINA RESULT:      -7.7      2.750      5.160
REMARK  Name = 
REMARK  10 active torsions:
REMARK  status: ('A' for Active; 'I' for Inactive)
REMARK    1  A    between atoms: CD_2  and  OE2_3
REMARK    2  A    between atoms: CD_2  and  CG_4
REMARK    3  A    between atoms: CG_4  and  CB_5
REMARK    4  A    between atoms: CB_5  and  CA_6
REMARK    5  A    between atoms: CA_6  and  N_7
REMARK    6  A    between atoms: CA_6  and  C_28
REMARK    7  A    between atoms: C_8  and  C_10
REMARK    8  A    between atoms: C_15  and  N_16
REMARK    9  A    between atoms: C_17  and  C_19
REMARK   10  A    between atoms: C_28  and  OXT_30
REMARK                            x       y       z     vdW  Elec       q    Type
REMARK                         _______ _______ _______ _____ _____    ______ ____
ROOT
ATOM      1  C   UNK A   0       3.247   4.143  17.833  0.00  0.00    +0.000 A 
ATOM      2  C   UNK A   0       3.473   2.771  17.593  0.00  0.00    +0.000 A 
ATOM      3  C   UNK A   0       2.546   1.812  17.992  0.00  0.00    +0.000 A 
ATOM      4  C   UNK A   0       1.388   2.213  18.643  0.00  0.00    +0.000 A 
ATOM      5  C   UNK A   0       1.198   3.559  18.970  0.00  0.00    +0.000 A 
ATOM      6  C   UNK A   0       2.142   4.537  18.609  0.00  0.00    +0.000 A 
ENDROOT
BRANCH   1   8
ATOM      7  N   GLU A   1       5.059   4.647  16.290  0.00  0.00    +0.000 N 
ATOM      8  C   UNK A   0       4.245   5.118  17.306  0.00  0.00    +0.000 C 
ATOM      9  O   UNK A   0       4.333   6.261  17.752  0.00  0.00    +0.000 OA
ATOM     10  H   GLU A   1       4.643   3.897  15.732  0.00  0.00    +0.000 HD
BRANCH   7  11
ATOM     11  CA  GLU A   1       6.098   5.458  15.637  0.00  0.00    +0.000 C 
BRANCH  11  12
ATOM     12  C   GLU A   1       7.267   5.752  16.594  0.00  0.00    +0.000 C 
ATOM     13  O   GLU A   1       7.734   6.864  16.785  0.00  0.00    +0.000 OA
BRANCH  12  14
ATOM     14  OXT GLU A   1       7.822   4.636  17.128  0.00  0.00    +0.000 OA
ATOM     15  HXT GLU A   1       8.767   4.805  17.319  0.00  0.00    +0.000 HD
ENDBRANCH  12  14
ENDBRANCH  11  12
BRANCH  11  16
ATOM     16  CB  GLU A   1       6.644   4.788  14.355  0.00  0.00    +0.000 C 
BRANCH  16  17
ATOM     17  CG  GLU A   1       5.690   3.828  13.619  0.00  0.00    +0.000 C 
BRANCH  17  19
ATOM     18  OE1 GLU A   1       5.843   2.360  11.710  0.00  0.00    +0.000 OA
ATOM     19  CD  GLU A   1       6.225   3.370  12.287  0.00  0.00    +0.000 C 
BRANCH  19  20
ATOM     20  OE2 GLU A   1       7.217   4.137  11.799  0.00  0.00    +0.000 OA
ATOM     21  HE2 GLU A   1       7.989   3.644  11.459  0.00  0.00    +0.000 HD
ENDBRANCH  19  20
ENDBRANCH  17  19
ENDBRANCH  16  17
ENDBRANCH  11  16
ENDBRANCH   7  11
ENDBRANCH   1   8
BRANCH   6  22
ATOM     22  N   UNK A   0       1.931   5.888  18.990  0.00  0.00    +0.000 N 
ATOM     23  C   UNK A   0       1.936   6.327  20.309  0.00  0.00    +0.000 C 
ATOM     24  O   UNK A   0       2.299   5.639  21.261  0.00  0.00    +0.000 OA
ATOM     25  H   UNK A   0       2.173   6.598  18.302  0.00  0.00    +0.000 HD
BRANCH  23  26
ATOM     26  C   UNK A   0       1.495   7.699  20.498  0.00  0.00    +0.000 A 
ATOM     27  C   UNK A   0       1.457   8.759  19.611  0.00  0.00    +0.000 A 
ATOM     28  C   UNK A   0       0.814   9.858  20.241  0.00  0.00    +0.000 A 
ATOM     29  C   UNK A   0       0.456  11.148  19.809  0.00  0.00    +0.000 A 
ATOM     30  C   UNK A   0      -0.199  12.013  20.690  0.00  0.00    +0.000 A 
ATOM     31  C   UNK A   0      -0.491  11.606  21.990  0.00  0.00    +0.000 A 
ATOM     32  C   UNK A   0      -0.145  10.326  22.443  0.00  0.00    +0.000 A 
ATOM     33  C   UNK A   0       0.502   9.467  21.540  0.00  0.00    +0.000 A 
ATOM     34  N   UNK A   0       0.931   8.160  21.674  0.00  0.00    +0.000 N 
ATOM     35  H   UNK A   0       0.817   7.593  22.506  0.00  0.00    +0.000 HD
ENDBRANCH  23  26
ENDBRANCH   6  22
TORSDOF 10
ENDMDL
MODEL 4
REMARK VINA RESULT:      -7.7      2.456      4.802
REMARK  Name = 
REMARK  10 active torsions:
REMARK  status: ('A' for Active; 'I' for Inactive)
REMARK    1  A    between atoms: CD_2  and  OE2_3
REMARK    2  A    between atoms: CD_2  and  CG_4
REMARK    3  A    between atoms: CG_4  and  CB_5
REMARK    4  A    between atoms: CB_5  and  CA_6
REMARK    5  A    between atoms: CA_6  and  N_7
REMARK    6  A    between atoms: CA_6  and  C_28
REMARK    7  A    between atoms: C_8  and  C_10
REMARK    8  A    between atoms: C_15  and  N_16
REMARK    9  A    between atoms: C_17  and  C_19
REMARK   10  A    between atoms: C_28  and  OXT_30
REMARK                            x       y       z     vdW  Elec       q    Type
REMARK                         _______ _______ _______ _____ _____    ______ ____
ROOT
ATOM      1  C   UNK A   0       3.272   4.457  18.006  0.00  0.00    +0.000 A 
ATOM      2  C   UNK A   0       3.570   3.122  17.662  0.00  0.00    +0.000 A 
ATOM      3  C   UNK A   0       2.639   2.107  17.857  0.00  0.00    +0.000 A 
ATOM      4  C   UNK A   0       1.402   2.412  18.406  0.00  0.00    +0.000 A 
ATOM      5  C   UNK A   0       1.130   3.714  18.837  0.00  0.00    +0.000 A 
ATOM      6  C   UNK A   0       2.073   4.746  18.684  0.00  0.00    +0.000 A 
ENDROOT
BRANCH   1   8
ATOM      7  N   GLU A   1       5.554   5.274  18.202  0.00  0.00    +0.000 N 
ATOM      8  C   UNK A   0       4.287   5.504  17.695  0.00  0.00    +0.000 C 
ATOM      9  O   UNK A   0       4.008   6.502  17.033  0.00  0.00    +0.000 OA
ATOM     10  H   GLU A   1       5.777   4.285  18.344  0.00  0.00    +0.000 HD
BRANCH   7  11
ATOM     11  CA  GLU A   1       6.692   6.185  17.999  0.00  0.00    +0.000 C 
BRANCH  11  12
ATOM     12  C   GLU A   1       7.707   6.083  19.151  0.00  0.00    +0.000 C 
ATOM     13  O   GLU A   1       7.637   5.268  20.058  0.00  0.00    +0.000 OA
BRANCH  12  14
ATOM     14  OXT GLU A   1       8.638   7.070  19.139  0.00  0.00    +0.000 OA
ATOM     15  HXT GLU A   1       8.359   7.784  19.749  0.00  0.00    +0.000 HD
ENDBRANCH  12  14
ENDBRANCH  11  12
BRANCH  11  16
ATOM     16  CB  GLU A   1       7.415   5.928  16.657  0.00  0.00    +0.000 C 
BRANCH  16  17
ATOM     17  CG  GLU A   1       7.142   4.574  15.974  0.00  0.00    +0.000 C 
BRANCH  17  19
ATOM     18  OE1 GLU A   1       6.186   4.025  13.828  0.00  0.00    +0.000 OA
ATOM     19  CD  GLU A   1       6.980   4.688  14.480  0.00  0.00    +0.000 C 
BRANCH  19  20
ATOM     20  OE2 GLU A   1       7.835   5.549  13.899  0.00  0.00    +0.000 OA
ATOM     21  HE2 GLU A   1       7.893   6.426  14.327  0.00  0.00    +0.000 HD
ENDBRANCH  19  20
ENDBRANCH  17  19
ENDBRANCH  16  17
ENDBRANCH  11  16
ENDBRANCH   7  11
ENDBRANCH   1   8
BRANCH   6  22
ATOM     22  N   UNK A   0       1.773   6.046  19.167  0.00  0.00    +0.000 N 
ATOM     23  C   UNK A   0       1.834   6.403  20.510  0.00  0.00    +0.000 C 
ATOM     24  O   UNK A   0       2.322   5.695  21.388  0.00  0.00    +0.000 OA
ATOM     25  H   UNK A   0       1.904   6.816  18.514  0.00  0.00    +0.000 HD
BRANCH  23  26
ATOM     26  C   UNK A   0       1.291   7.715  20.818  0.00  0.00    +0.000 A 
ATOM     27  C   UNK A   0       1.183   8.849  20.033  0.00  0.00    +0.000 A 
ATOM     28  C   UNK A   0       0.454   9.834  20.751  0.00  0.00    +0.000 A 
ATOM     29  C   UNK A   0       0.005  11.129  20.435  0.00  0.00    +0.000 A 
ATOM     30  C   UNK A   0      -0.721  11.857  21.382  0.00  0.00    +0.000 A 
ATOM     31  C   UNK A   0      -0.994  11.309  22.634  0.00  0.00    +0.000 A 
ATOM     32  C   UNK A   0      -0.558  10.021  22.971  0.00  0.00    +0.000 A 
ATOM     33  C   UNK A   0       0.159   9.301  22.003  0.00  0.00    +0.000 A 
ATOM     34  N   UNK A   0       0.683   8.022  22.022  0.00  0.00    +0.000 N 
ATOM     35  H   UNK A   0       0.603   7.373  22.796  0.00  0.00    +0.000 HD
ENDBRANCH  23  26
ENDBRANCH   6  22
TORSDOF 10
ENDMDL
MODEL 5
REMARK VINA RESULT:      -7.7      2.337      4.713
REMARK  Name = 
REMARK  10 active torsions:
REMARK  status: ('A' for Active; 'I' for Inactive)
REMARK    1  A    between atoms: CD_2  and  OE2_3
REMARK    2  A    between atoms: CD_2  and  CG_4
REMARK    3  A    between atoms: CG_4  and  CB_5
REMARK    4  A    between atoms: CB_5  and  CA_6
REMARK    5  A    between atoms: CA_6  and  N_7
REMARK    6  A    between atoms: CA_6  and  C_28
REMARK    7  A    between atoms: C_8  and  C_10
REMARK    8  A    between atoms: C_15  and  N_16
REMARK    9  A    between atoms: C_17  and  C_19
REMARK   10  A    between atoms: C_28  and  OXT_30
REMARK                            x       y       z     vdW  Elec       q    Type
REMARK                         _______ _______ _______ _____ _____    ______ ____
ROOT
ATOM      1  C   UNK A   0       3.499   3.762  17.859  0.00  0.00    +0.000 A 
ATOM      2  C   UNK A   0       3.693   2.366  17.802  0.00  0.00    +0.000 A 
ATOM      3  C   UNK A   0       2.721   1.488  18.274  0.00  0.00    +0.000 A 
ATOM      4  C   UNK A   0       1.549   1.996  18.817  0.00  0.00    +0.000 A 
ATOM      5  C   UNK A   0       1.387   3.377  18.964  0.00  0.00    +0.000 A 
ATOM      6  C   UNK A   0       2.374   4.278  18.529  0.00  0.00    +0.000 A 
ENDROOT
BRANCH   1   8
ATOM      7  N   GLU A   1       5.815   4.088  17.192  0.00  0.00    +0.000 N 
ATOM      8  C   UNK A   0       4.547   4.639  17.262  0.00  0.00    +0.000 C 
ATOM      9  O   UNK A   0       4.293   5.774  16.863  0.00  0.00    +0.000 OA
ATOM     10  H   GLU A   1       5.827   3.066  17.141  0.00  0.00    +0.000 HD
BRANCH   7  11
ATOM     11  CA  GLU A   1       6.979   4.791  16.631  0.00  0.00    +0.000 C 
BRANCH  11  12
ATOM     12  C   GLU A   1       7.038   4.651  15.099  0.00  0.00    +0.000 C 
ATOM     13  O   GLU A   1       7.550   5.471  14.354  0.00  0.00    +0.000 OA
BRANCH  12  14
ATOM     14  OXT GLU A   1       6.356   3.576  14.630  0.00  0.00    +0.000 OA
ATOM     15  HXT GLU A   1       6.871   2.763  14.811  0.00  0.00    +0.000 HD
ENDBRANCH  12  14
ENDBRANCH  11  12
BRANCH  11  16
ATOM     16  CB  GLU A   1       6.996   6.290  17.007  0.00  0.00    +0.000 C 
BRANCH  16  17
ATOM     17  CG  GLU A   1       7.811   6.679  18.256  0.00  0.00    +0.000 C 
BRANCH  17  19
ATOM     18  OE1 GLU A   1       8.528   5.096  19.931  0.00  0.00    +0.000 OA
ATOM     19  CD  GLU A   1       7.618   5.725  19.407  0.00  0.00    +0.000 C 
BRANCH  19  20
ATOM     20  OE2 GLU A   1       6.336   5.568  19.782  0.00  0.00    +0.000 OA
ATOM     21  HE2 GLU A   1       5.805   6.388  19.788  0.00  0.00    +0.000 HD
ENDBRANCH  19  20
ENDBRANCH  17  19
ENDBRANCH  16  17
ENDBRANCH  11  16
ENDBRANCH   7  11
ENDBRANCH   1   8
BRANCH   6  22
ATOM     22  N   UNK A   0       2.188   5.671  18.728  0.00  0.00    +0.000 N 
ATOM     23  C   UNK A   0       2.075   6.261  19.982  0.00  0.00    +0.000 C 
ATOM     24  O   UNK A   0       2.303   5.678  21.040  0.00  0.00    +0.000 OA
ATOM     25  H   UNK A   0       2.534   6.286  17.996  0.00  0.00    +0.000 HD
BRANCH  23  26
ATOM     26  C   UNK A   0       1.682   7.660  19.964  0.00  0.00    +0.000 A 
ATOM     27  C   UNK A   0       1.145   8.454  20.961  0.00  0.00    +0.000 A 
ATOM     28  C   UNK A   0       1.064   9.790  20.486  0.00  0.00    +0.000 A 
ATOM     29  C   UNK A   0       0.659  11.004  21.072  0.00  0.00    +0.000 A 
ATOM     30  C   UNK A   0       0.713  12.183  20.323  0.00  0.00    +0.000 A 
ATOM     31  C   UNK A   0       1.159  12.159  19.003  0.00  0.00    +0.000 A 
ATOM     32  C   UNK A   0       1.569  10.964  18.399  0.00  0.00    +0.000 A 
ATOM     33  C   UNK A   0       1.518   9.792  19.170  0.00  0.00    +0.000 A 
ATOM     34  N   UNK A   0       1.878   8.491  18.875  0.00  0.00    +0.000 N 
ATOM     35  H   UNK A   0       2.272   8.182  17.993  0.00  0.00    +0.000 HD
ENDBRANCH  23  26
ENDBRANCH   6  22
TORSDOF 10
ENDMDL
MODEL 6
REMARK VINA RESULT:      -7.6      2.785      5.269
REMARK  Name = 
REMARK  10 active torsions:
REMARK  status: ('A' for Active; 'I' for Inactive)
REMARK    1  A    between atoms: CD_2  and  OE2_3
REMARK    2  A    between atoms: CD_2  and  CG_4
REMARK    3  A    between atoms: CG_4  and  CB_5
REMARK    4  A    between atoms: CB_5  and  CA_6
REMARK    5  A    between atoms: CA_6  and  N_7
REMARK    6  A    between atoms: CA_6  and  C_28
REMARK    7  A    between atoms: C_8  and  C_10
REMARK    8  A    between atoms: C_15  and  N_16
REMARK    9  A    between atoms: C_17  and  C_19
REMARK   10  A    between atoms: C_28  and  OXT_30
REMARK                            x       y       z     vdW  Elec       q    Type
REMARK                         _______ _______ _______ _____ _____    ______ ____
ROOT
ATOM      1  C   UNK A   0       3.241   3.926  17.824  0.00  0.00    +0.000 A 
ATOM      2  C   UNK A   0       3.491   2.541  17.723  0.00  0.00    +0.000 A 
ATOM      3  C   UNK A   0       2.623   1.614  18.291  0.00  0.00    +0.000 A 
ATOM      4  C   UNK A   0       1.499   2.060  18.974  0.00  0.00    +0.000 A 
ATOM      5  C   UNK A   0       1.292   3.430  19.160  0.00  0.00    +0.000 A 
ATOM      6  C   UNK A   0       2.179   4.381  18.627  0.00  0.00    +0.000 A 
ENDROOT
BRANCH   1   8
ATOM      7  N   GLU A   1       5.039   4.265  16.221  0.00  0.00    +0.000 N 
ATOM      8  C   UNK A   0       4.171   4.857  17.122  0.00  0.00    +0.000 C 
ATOM      9  O   UNK A   0       4.161   6.068  17.337  0.00  0.00    +0.000 OA
ATOM     10  H   GLU A   1       4.694   3.390  15.818  0.00  0.00    +0.000 HD
BRANCH   7  11
ATOM     11  CA  GLU A   1       6.027   5.014  15.428  0.00  0.00    +0.000 C 
BRANCH  11  12
ATOM     12  C   GLU A   1       7.315   5.270  16.230  0.00  0.00    +0.000 C 
ATOM     13  O   GLU A   1       7.958   4.397  16.794  0.00  0.00    +0.000 OA
BRANCH  12  14
ATOM     14  OXT GLU A   1       7.619   6.585  16.358  0.00  0.00    +0.000 OA
ATOM     15  HXT GLU A   1       7.769   6.791  17.304  0.00  0.00    +0.000 HD
ENDBRANCH  12  14
ENDBRANCH  11  12
BRANCH  11  16
ATOM     16  CB  GLU A   1       6.382   4.295  14.106  0.00  0.00    +0.000 C 
BRANCH  16  17
ATOM     17  CG  GLU A   1       5.200   3.858  13.220  0.00  0.00    +0.000 C 
BRANCH  17  19
ATOM     18  OE1 GLU A   1       4.834   2.460  11.287  0.00  0.00    +0.000 OA
ATOM     19  CD  GLU A   1       5.619   2.986  12.064  0.00  0.00    +0.000 C 
BRANCH  19  20
ATOM     20  OE2 GLU A   1       6.946   2.778  11.986  0.00  0.00    +0.000 OA
ATOM     21  HE2 GLU A   1       7.320   2.842  11.086  0.00  0.00    +0.000 HD
ENDBRANCH  19  20
ENDBRANCH  17  19
ENDBRANCH  16  17
ENDBRANCH  11  16
ENDBRANCH   7  11
ENDBRANCH   1   8
BRANCH   6  22
ATOM     22  N   UNK A   0       1.953   5.762  18.867  0.00  0.00    +0.000 N 
ATOM     23  C   UNK A   0       1.966   6.335  20.134  0.00  0.00    +0.000 C 
ATOM     24  O   UNK A   0       2.349   5.755  21.148  0.00  0.00    +0.000 OA
ATOM     25  H   UNK A   0       2.179   6.400  18.107  0.00  0.00    +0.000 HD
BRANCH  23  26
ATOM     26  C   UNK A   0       1.509   7.714  20.185  0.00  0.00    +0.000 A 
ATOM     27  C   UNK A   0       0.941   8.433  21.219  0.00  0.00    +0.000 A 
ATOM     28  C   UNK A   0       0.796   9.785  20.809  0.00  0.00    +0.000 A 
ATOM     29  C   UNK A   0       0.338  10.950  21.454  0.00  0.00    +0.000 A 
ATOM     30  C   UNK A   0       0.334  12.164  20.762  0.00  0.00    +0.000 A 
ATOM     31  C   UNK A   0       0.773  12.224  19.441  0.00  0.00    +0.000 A 
ATOM     32  C   UNK A   0       1.235  11.079  18.779  0.00  0.00    +0.000 A 
ATOM     33  C   UNK A   0       1.242   9.870  19.493  0.00  0.00    +0.000 A 
ATOM     34  N   UNK A   0       1.661   8.603  19.135  0.00  0.00    +0.000 N 
ATOM     35  H   UNK A   0       2.064   8.356  18.239  0.00  0.00    +0.000 HD
ENDBRANCH  23  26
ENDBRANCH   6  22
TORSDOF 10
ENDMDL
MODEL 7
REMARK VINA RESULT:      -7.6      2.300      4.835
REMARK  Name = 
REMARK  10 active torsions:
REMARK  status: ('A' for Active; 'I' for Inactive)
REMARK    1  A    between atoms: CD_2  and  OE2_3
REMARK    2  A    between atoms: CD_2  and  CG_4
REMARK    3  A    between atoms: CG_4  and  CB_5
REMARK    4  A    between atoms: CB_5  and  CA_6
REMARK    5  A    between atoms: CA_6  and  N_7
REMARK    6  A    between atoms: CA_6  and  C_28
REMARK    7  A    between atoms: C_8  and  C_10
REMARK    8  A    between atoms: C_15  and  N_16
REMARK    9  A    between atoms: C_17  and  C_19
REMARK   10  A    between atoms: C_28  and  OXT_30
REMARK                            x       y       z     vdW  Elec       q    Type
REMARK                         _______ _______ _______ _____ _____    ______ ____
ROOT
ATOM      1  C   UNK A   0       3.222   4.046  18.307  0.00  0.00    +0.000 A 
ATOM      2  C   UNK A   0       3.445   2.655  18.224  0.00  0.00    +0.000 A 
ATOM      3  C   UNK A   0       2.449   1.747  18.574  0.00  0.00    +0.000 A 
ATOM      4  C   UNK A   0       1.222   2.220  19.020  0.00  0.00    +0.000 A 
ATOM      5  C   UNK A   0       1.022   3.592  19.195  0.00  0.00    +0.000 A 
ATOM      6  C   UNK A   0       2.030   4.522  18.883  0.00  0.00    +0.000 A 
ENDROOT
BRANCH   1   8
ATOM      7  N   GLU A   1       5.573   4.666  18.310  0.00  0.00    +0.000 N 
ATOM      8  C   UNK A   0       4.305   4.957  17.838  0.00  0.00    +0.000 C 
ATOM      9  O   UNK A   0       4.077   5.903  17.086  0.00  0.00    +0.000 OA
ATOM     10  H   GLU A   1       5.718   3.680  18.547  0.00  0.00    +0.000 HD
BRANCH   7  11
ATOM     11  CA  GLU A   1       6.772   5.442  17.959  0.00  0.00    +0.000 C 
BRANCH  11  12
ATOM     12  C   GLU A   1       7.594   5.807  19.209  0.00  0.00    +0.000 C 
ATOM     13  O   GLU A   1       7.467   5.263  20.295  0.00  0.00    +0.000 OA
BRANCH  12  14
ATOM     14  OXT GLU A   1       8.402   6.881  19.029  0.00  0.00    +0.000 OA
ATOM     15  HXT GLU A   1       9.277   6.576  18.711  0.00  0.00    +0.000 HD
ENDBRANCH  12  14
ENDBRANCH  11  12
BRANCH  11  16
ATOM     16  CB  GLU A   1       7.678   4.698  16.951  0.00  0.00    +0.000 C 
BRANCH  16  17
ATOM     17  CG  GLU A   1       6.991   4.133  15.694  0.00  0.00    +0.000 C 
BRANCH  17  19
ATOM     18  OE1 GLU A   1       7.591   5.387  13.721  0.00  0.00    +0.000 OA
ATOM     19  CD  GLU A   1       6.787   5.167  14.617  0.00  0.00    +0.000 C 
BRANCH  19  20
ATOM     20  OE2 GLU A   1       5.658   5.887  14.753  0.00  0.00    +0.000 OA
ATOM     21  HE2 GLU A   1       5.254   5.855  15.642  0.00  0.00    +0.000 HD
ENDBRANCH  19  20
ENDBRANCH  17  19
ENDBRANCH  16  17
ENDBRANCH  11  16
ENDBRANCH   7  11
ENDBRANCH   1   8
BRANCH   6  22
ATOM     22  N   UNK A   0       1.801   5.905  19.109  0.00  0.00    +0.000 N 
ATOM     23  C   UNK A   0       1.820   6.493  20.368  0.00  0.00    +0.000 C 
ATOM     24  O   UNK A   0       2.210   5.927  21.386  0.00  0.00    +0.000 OA
ATOM     25  H   UNK A   0       2.020   6.534  18.340  0.00  0.00    +0.000 HD
BRANCH  23  26
ATOM     26  C   UNK A   0       1.359   7.871  20.405  0.00  0.00    +0.000 A 
ATOM     27  C   UNK A   0       0.776   8.596  21.428  0.00  0.00    +0.000 A 
ATOM     28  C   UNK A   0       0.632   9.945  21.008  0.00  0.00    +0.000 A 
ATOM     29  C   UNK A   0       0.163  11.112  21.639  0.00  0.00    +0.000 A 
ATOM     30  C   UNK A   0       0.165  12.322  20.940  0.00  0.00    +0.000 A 
ATOM     31  C   UNK A   0       0.620  12.375  19.624  0.00  0.00    +0.000 A 
ATOM     32  C   UNK A   0       1.093  11.227  18.974  0.00  0.00    +0.000 A 
ATOM     33  C   UNK A   0       1.094  10.023  19.697  0.00  0.00    +0.000 A 
ATOM     34  N   UNK A   0       1.521   8.754  19.352  0.00  0.00    +0.000 N 
ATOM     35  H   UNK A   0       1.935   8.503  18.462  0.00  0.00    +0.000 HD
ENDBRANCH  23  26
ENDBRANCH   6  22
TORSDOF 10
ENDMDL
MODEL 8
REMARK VINA RESULT:      -7.6      2.172      4.721
REMARK  Name = 
REMARK  10 active torsions:
REMARK  status: ('A' for Active; 'I' for Inactive)
REMARK    1  A    between atoms: CD_2  and  OE2_3
REMARK    2  A    between atoms: CD_2  and  CG_4
REMARK    3  A    between atoms: CG_4  and  CB_5
REMARK    4  A    between atoms: CB_5  and  CA_6
REMARK    5  A    between atoms: CA_6  and  N_7
REMARK    6  A    between atoms: CA_6  and  C_28
REMARK    7  A    between atoms: C_8  and  C_10
REMARK    8  A    between atoms: C_15  and  N_16
REMARK    9  A    between atoms: C_17  and  C_19
REMARK   10  A    between atoms: C_28  and  OXT_30
REMARK                            x       y       z     vdW  Elec       q    Type
REMARK                         _______ _______ _______ _____ _____    ______ ____
ROOT
ATOM      1  C   UNK A   0       3.408   3.865  18.852  0.00  0.00    +0.000 A 
ATOM      2  C   UNK A   0       3.571   2.464  18.801  0.00  0.00    +0.000 A 
ATOM      3  C   UNK A   0       2.470   1.617  18.730  0.00  0.00    +0.000 A 
ATOM      4  C   UNK A   0       1.192   2.159  18.717  0.00  0.00    +0.000 A 
ATOM      5  C   UNK A   0       1.016   3.539  18.861  0.00  0.00    +0.000 A 
ATOM      6  C   UNK A   0       2.116   4.407  18.974  0.00  0.00    +0.000 A 
ENDROOT
BRANCH   1   8
ATOM      7  N   GLU A   1       5.256   4.851  17.616  0.00  0.00    +0.000 N 
ATOM      8  C   UNK A   0       4.635   4.713  18.845  0.00  0.00    +0.000 C 
ATOM      9  O   UNK A   0       5.060   5.246  19.868  0.00  0.00    +0.000 OA
ATOM     10  H   GLU A   1       4.629   4.746  16.814  0.00  0.00    +0.000 HD
BRANCH   7  11
ATOM     11  CA  GLU A   1       6.473   5.650  17.403  0.00  0.00    +0.000 C 
BRANCH  11  12
ATOM     12  C   GLU A   1       7.719   4.940  17.964  0.00  0.00    +0.000 C 
ATOM     13  O   GLU A   1       8.348   4.082  17.363  0.00  0.00    +0.000 OA
BRANCH  12  14
ATOM     14  OXT GLU A   1       7.993   5.267  19.251  0.00  0.00    +0.000 OA
ATOM     15  HXT GLU A   1       7.717   6.193  19.414  0.00  0.00    +0.000 HD
ENDBRANCH  12  14
ENDBRANCH  11  12
BRANCH  11  16
ATOM     16  CB  GLU A   1       6.703   5.981  15.911  0.00  0.00    +0.000 C 
BRANCH  16  17
ATOM     17  CG  GLU A   1       5.725   5.345  14.905  0.00  0.00    +0.000 C 
BRANCH  17  19
ATOM     18  OE1 GLU A   1       6.438   3.725  13.264  0.00  0.00    +0.000 OA
ATOM     19  CD  GLU A   1       6.169   3.986  14.429  0.00  0.00    +0.000 C 
BRANCH  19  20
ATOM     20  OE2 GLU A   1       6.191   3.046  15.391  0.00  0.00    +0.000 OA
ATOM     21  HE2 GLU A   1       5.329   2.875  15.819  0.00  0.00    +0.000 HD
ENDBRANCH  19  20
ENDBRANCH  17  19
ENDBRANCH  16  17
ENDBRANCH  11  16
ENDBRANCH   7  11
ENDBRANCH   1   8
BRANCH   6  22
ATOM     22  N   UNK A   0       1.895   5.797  19.154  0.00  0.00    +0.000 N 
ATOM     23  C   UNK A   0       1.814   6.410  20.399  0.00  0.00    +0.000 C 
ATOM     24  O   UNK A   0       2.103   5.856  21.458  0.00  0.00    +0.000 OA
ATOM     25  H   UNK A   0       2.192   6.408  18.396  0.00  0.00    +0.000 HD
BRANCH  23  26
ATOM     26  C   UNK A   0       1.378   7.796  20.371  0.00  0.00    +0.000 A 
ATOM     27  C   UNK A   0       0.794   8.573  21.354  0.00  0.00    +0.000 A 
ATOM     28  C   UNK A   0       0.682   9.906  20.876  0.00  0.00    +0.000 A 
ATOM     29  C   UNK A   0       0.225  11.106  21.451  0.00  0.00    +0.000 A 
ATOM     30  C   UNK A   0       0.259  12.286  20.701  0.00  0.00    +0.000 A 
ATOM     31  C   UNK A   0       0.735  12.275  19.392  0.00  0.00    +0.000 A 
ATOM     32  C   UNK A   0       1.196  11.093  18.798  0.00  0.00    +0.000 A 
ATOM     33  C   UNK A   0       1.165   9.920  19.570  0.00  0.00    +0.000 A 
ATOM     34  N   UNK A   0       1.572   8.631  19.285  0.00  0.00    +0.000 N 
ATOM     35  H   UNK A   0       1.995   8.334  18.413  0.00  0.00    +0.000 HD
ENDBRANCH  23  26
ENDBRANCH   6  22
TORSDOF 10
ENDMDL
MODEL 9
REMARK VINA RESULT:      -7.6      1.206      2.867
REMARK  Name = 
REMARK  10 active torsions:
REMARK  status: ('A' for Active; 'I' for Inactive)
REMARK    1  A    between atoms: CD_2  and  OE2_3
REMARK    2  A    between atoms: CD_2  and  CG_4
REMARK    3  A    between atoms: CG_4  and  CB_5
REMARK    4  A    between atoms: CB_5  and  CA_6
REMARK    5  A    between atoms: CA_6  and  N_7
REMARK    6  A    between atoms: CA_6  and  C_28
REMARK    7  A    between atoms: C_8  and  C_10
REMARK    8  A    between atoms: C_15  and  N_16
REMARK    9  A    between atoms: C_17  and  C_19
REMARK   10  A    between atoms: C_28  and  OXT_30
REMARK                            x       y       z     vdW  Elec       q    Type
REMARK                         _______ _______ _______ _____ _____    ______ ____
ROOT
ATOM      1  C   UNK A   0       5.542   4.614  17.394  0.00  0.00    +0.000 A 
ATOM      2  C   UNK A   0       6.142   3.756  16.448  0.00  0.00    +0.000 A 
ATOM      3  C   UNK A   0       6.280   4.141  15.118  0.00  0.00    +0.000 A 
ATOM      4  C   UNK A   0       5.811   5.384  14.715  0.00  0.00    +0.000 A 
ATOM      5  C   UNK A   0       5.131   6.203  15.622  0.00  0.00    +0.000 A 
ATOM      6  C   UNK A   0       4.948   5.814  16.961  0.00  0.00    +0.000 A 
ENDROOT
BRANCH   1   8
ATOM      7  N   GLU A   1       4.675   3.090  19.079  0.00  0.00    +0.000 N 
ATOM      8  C   UNK A   0       5.501   4.169  18.816  0.00  0.00    +0.000 C 
ATOM      9  O   UNK A   0       6.158   4.730  19.691  0.00  0.00    +0.000 OA
ATOM     10  H   GLU A   1       4.531   2.466  18.280  0.00  0.00    +0.000 HD
BRANCH   7  11
ATOM     11  CA  GLU A   1       4.504   2.500  20.416  0.00  0.00    +0.000 C 
BRANCH  11  12
ATOM     12  C   GLU A   1       3.032   2.538  20.864  0.00  0.00    +0.000 C 
ATOM     13  O   GLU A   1       2.671   2.641  22.026  0.00  0.00    +0.000 OA
BRANCH  12  14
ATOM     14  OXT GLU A   1       2.154   2.325  19.852  0.00  0.00    +0.000 OA
ATOM     15  HXT GLU A   1       2.497   1.614  19.272  0.00  0.00    +0.000 HD
ENDBRANCH  12  14
ENDBRANCH  11  12
BRANCH  11  16
ATOM     16  CB  GLU A   1       5.022   1.045  20.485  0.00  0.00    +0.000 C 
BRANCH  16  17
ATOM     17  CG  GLU A   1       5.754   0.635  21.778  0.00  0.00    +0.000 C 
BRANCH  17  19
ATOM     18  OE1 GLU A   1       6.769  -1.352  22.698  0.00  0.00    +0.000 OA
ATOM     19  CD  GLU A   1       6.284  -0.775  21.734  0.00  0.00    +0.000 C 
BRANCH  19  20
ATOM     20  OE2 GLU A   1       6.238  -1.342  20.514  0.00  0.00    +0.000 OA
ATOM     21  HE2 GLU A   1       5.451  -1.897  20.348  0.00  0.00    +0.000 HD
ENDBRANCH  19  20
ENDBRANCH  17  19
ENDBRANCH  16  17
ENDBRANCH  11  16
ENDBRANCH   7  11
ENDBRANCH   1   8
BRANCH   6  22
ATOM     22  N   UNK A   0       4.221   6.657  17.841  0.00  0.00    +0.000 N 
ATOM     23  C   UNK A   0       2.924   6.393  18.265  0.00  0.00    +0.000 C 
ATOM     24  O   UNK A   0       2.341   5.328  18.074  0.00  0.00    +0.000 OA
ATOM     25  H   UNK A   0       4.769   7.233  18.476  0.00  0.00    +0.000 HD
BRANCH  23  26
ATOM     26  C   UNK A   0       2.287   7.478  18.993  0.00  0.00    +0.000 A 
ATOM     27  C   UNK A   0       1.753   8.670  18.541  0.00  0.00    +0.000 A 
ATOM     28  C   UNK A   0       1.123   9.331  19.630  0.00  0.00    +0.000 A 
ATOM     29  C   UNK A   0       0.386  10.524  19.744  0.00  0.00    +0.000 A 
ATOM     30  C   UNK A   0      -0.128  10.900  20.988  0.00  0.00    +0.000 A 
ATOM     31  C   UNK A   0       0.091  10.104  22.111  0.00  0.00    +0.000 A 
ATOM     32  C   UNK A   0       0.820   8.911  22.022  0.00  0.00    +0.000 A 
ATOM     33  C   UNK A   0       1.319   8.544  20.762  0.00  0.00    +0.000 A 
ATOM     34  N   UNK A   0       2.033   7.433  20.353  0.00  0.00    +0.000 N 
ATOM     35  H   UNK A   0       2.304   6.664  20.954  0.00  0.00    +0.000 HD
ENDBRANCH  23  26
ENDBRANCH   6  22
TORSDOF 10
ENDMDL
