MODEL 1
REMARK VINA RESULT:      -8.4      0.000      0.000
REMARK  Name = 
REMARK  6 active torsions:
REMARK  status: ('A' for Active; 'I' for Inactive)
REMARK    1  A    between atoms: C_1  and  C_2
REMARK    2  A    between atoms: N_4  and  C_5
REMARK    3  A    between atoms: C_5  and  C_6
REMARK    4  A    between atoms: C_8  and  C_9
REMARK    5  A    between atoms: N_11  and  C_12
REMARK    6  A    between atoms: C_23  and  C_24
REMARK                            x       y       z     vdW  Elec       q    Type
REMARK                         _______ _______ _______ _____ _____    ______ ____
ROOT
ATOM      1  C   UNL     1       1.058   9.479  19.149  0.00  0.00    +0.000 A 
ATOM      2  C   UNL     1       1.829   8.542  18.425  0.00  0.00    +0.000 A 
ATOM      3  C   UNL     1       2.321   7.377  19.037  0.00  0.00    +0.000 A 
ATOM      4  C   UNL     1       2.080   7.188  20.398  0.00  0.00    +0.000 A 
ATOM      5  C   UNL     1       1.242   8.052  21.099  0.00  0.00    +0.000 A 
ATOM      6  C   UNL     1       0.711   9.197  20.488  0.00  0.00    +0.000 A 
ATOM      7  C   UNL     1      -0.147  10.111  21.316  0.00  0.00    +0.000 C 
ENDROOT
BRANCH   3   8
ATOM      8  C   UNL     1       3.169   6.415  18.250  0.00  0.00    +0.000 A 
ATOM      9  N   UNL     1       4.285   6.885  17.772  0.00  0.00    +0.000 NA
ATOM     10  N   UNL     1       5.150   6.051  17.112  0.00  0.00    +0.000 N 
ATOM     11  C   UNL     1       6.397   6.631  16.654  0.00  0.00    +0.000 C 
ATOM     12  C   UNL     1       4.955   4.687  16.947  0.00  0.00    +0.000 A 
ATOM     13  O   UNL     1       5.752   3.942  16.378  0.00  0.00    +0.000 OA
ATOM     14  C   UNL     1       3.702   4.136  17.485  0.00  0.00    +0.000 A 
ATOM     15  C   UNL     1       3.451   2.759  17.382  0.00  0.00    +0.000 A 
ATOM     16  C   UNL     1       2.257   2.227  17.866  0.00  0.00    +0.000 A 
ATOM     17  C   UNL     1       1.291   3.079  18.387  0.00  0.00    +0.000 A 
ATOM     18  C   UNL     1       1.528   4.455  18.449  0.00  0.00    +0.000 A 
ATOM     19  C   UNL     1       2.769   4.988  18.067  0.00  0.00    +0.000 A 
ENDBRANCH   3   8
BRANCH   1  20
ATOM     20  C   UNL     1       0.677  10.775  18.475  0.00  0.00    +0.000 C 
BRANCH  20  24
ATOM     21  C   UNL     1      -2.806  11.264  17.112  0.00  0.00    +0.000 C 
ATOM     22  C   UNL     1      -1.612  11.477  17.999  0.00  0.00    +0.000 C 
ATOM     23  O   UNL     1      -1.615  12.288  18.918  0.00  0.00    +0.000 OA
ATOM     24  N   UNL     1      -0.536  10.674  17.698  0.00  0.00    +0.000 N 
ATOM     25  H   UNL     1      -0.586  10.006  16.942  0.00  0.00    +0.000 HD
ENDBRANCH  20  24
ENDBRANCH   1  20
TORSDOF 3
ENDMDL
MODEL 2
REMARK VINA RESULT:      -8.3      1.247      1.765
REMARK  Name = 
REMARK  6 active torsions:
REMARK  status: ('A' for Active; 'I' for Inactive)
REMARK    1  A    between atoms: C_1  and  C_2
REMARK    2  A    between atoms: N_4  and  C_5
REMARK    3  A    between atoms: C_5  and  C_6
REMARK    4  A    between atoms: C_8  and  C_9
REMARK    5  A    between atoms: N_11  and  C_12
REMARK    6  A    between atoms: C_23  and  C_24
REMARK                            x       y       z     vdW  Elec       q    Type
REMARK                         _______ _______ _______ _____ _____    ______ ____
ROOT
ATOM      1  C   UNL     1       1.173   9.472  18.934  0.00  0.00    +0.000 A 
ATOM      2  C   UNL     1       1.915   8.492  18.238  0.00  0.00    +0.000 A 
ATOM      3  C   UNL     1       2.386   7.338  18.887  0.00  0.00    +0.000 A 
ATOM      4  C   UNL     1       2.153   7.203  20.255  0.00  0.00    +0.000 A 
ATOM      5  C   UNL     1       1.342   8.111  20.932  0.00  0.00    +0.000 A 
ATOM      6  C   UNL     1       0.832   9.246  20.285  0.00  0.00    +0.000 A 
ATOM      7  C   UNL     1       0.003  10.208  21.086  0.00  0.00    +0.000 C 
ENDROOT
BRANCH   3   8
ATOM      8  C   UNL     1       3.205   6.329  18.128  0.00  0.00    +0.000 A 
ATOM      9  N   UNL     1       4.319   6.759  17.611  0.00  0.00    +0.000 NA
ATOM     10  N   UNL     1       5.159   5.883  16.973  0.00  0.00    +0.000 N 
ATOM     11  C   UNL     1       6.407   6.422  16.469  0.00  0.00    +0.000 C 
ATOM     12  C   UNL     1       4.939   4.516  16.871  0.00  0.00    +0.000 A 
ATOM     13  O   UNL     1       5.714   3.734  16.321  0.00  0.00    +0.000 OA
ATOM     14  C   UNL     1       3.687   4.010  17.453  0.00  0.00    +0.000 A 
ATOM     15  C   UNL     1       3.412   2.635  17.414  0.00  0.00    +0.000 A 
ATOM     16  C   UNL     1       2.218   2.144  17.941  0.00  0.00    +0.000 A 
ATOM     17  C   UNL     1       1.276   3.034  18.441  0.00  0.00    +0.000 A 
ATOM     18  C   UNL     1       1.536   4.407  18.440  0.00  0.00    +0.000 A 
ATOM     19  C   UNL     1       2.778   4.903  18.014  0.00  0.00    +0.000 A 
ENDBRANCH   3   8
BRANCH   1  20
ATOM     20  C   UNL     1       0.815  10.752  18.217  0.00  0.00    +0.000 C 
BRANCH  20  24
ATOM     21  C   UNL     1       3.192  13.675  18.397  0.00  0.00    +0.000 C 
ATOM     22  C   UNL     1       1.960  12.859  18.670  0.00  0.00    +0.000 C 
ATOM     23  O   UNL     1       1.048  13.267  19.381  0.00  0.00    +0.000 OA
ATOM     24  N   UNL     1       1.944  11.635  18.041  0.00  0.00    +0.000 N 
ATOM     25  H   UNL     1       2.710  11.349  17.448  0.00  0.00    +0.000 HD
ENDBRANCH  20  24
ENDBRANCH   1  20
TORSDOF 3
ENDMDL
MODEL 3
REMARK VINA RESULT:      -8.1      1.227      1.316
REMARK  Name = 
REMARK  6 active torsions:
REMARK  status: ('A' for Active; 'I' for Inactive)
REMARK    1  A    between atoms: C_1  and  C_2
REMARK    2  A    between atoms: N_4  and  C_5
REMARK    3  A    between atoms: C_5  and  C_6
REMARK    4  A    between atoms: C_8  and  C_9
REMARK    5  A    between atoms: N_11  and  C_12
REMARK    6  A    between atoms: C_23  and  C_24
REMARK                            x       y       z     vdW  Elec       q    Type
REMARK                         _______ _______ _______ _____ _____    ______ ____
ROOT
ATOM      1  C   UNL     1       0.619   9.809  19.541  0.00  0.00    +0.000 A 
ATOM      2  C   UNL     1       1.255   8.705  18.931  0.00  0.00    +0.000 A 
ATOM      3  C   UNL     1       1.831   7.680  19.701  0.00  0.00    +0.000 A 
ATOM      4  C   UNL     1       1.812   7.801  21.090  0.00  0.00    +0.000 A 
ATOM      5  C   UNL     1       1.106   8.832  21.705  0.00  0.00    +0.000 A 
ATOM      6  C   UNL     1       0.492   9.840  20.947  0.00  0.00    +0.000 A 
ATOM      7  C   UNL     1      -0.213  10.947  21.676  0.00  0.00    +0.000 C 
ENDROOT
BRANCH   3   8
ATOM      8  C   UNL     1       2.533   6.535  19.023  0.00  0.00    +0.000 A 
ATOM      9  N   UNL     1       3.422   6.850  18.126  0.00  0.00    +0.000 NA
ATOM     10  N   UNL     1       4.161   5.865  17.522  0.00  0.00    +0.000 N 
ATOM     11  C   UNL     1       5.169   6.294  16.572  0.00  0.00    +0.000 C 
ATOM     12  C   UNL     1       4.074   4.515  17.831  0.00  0.00    +0.000 A 
ATOM     13  O   UNL     1       4.763   3.643  17.303  0.00  0.00    +0.000 OA
ATOM     14  C   UNL     1       3.078   4.140  18.846  0.00  0.00    +0.000 A 
ATOM     15  C   UNL     1       2.956   2.796  19.232  0.00  0.00    +0.000 A 
ATOM     16  C   UNL     1       2.000   2.422  20.175  0.00  0.00    +0.000 A 
ATOM     17  C   UNL     1       1.126   3.378  20.677  0.00  0.00    +0.000 A 
ATOM     18  C   UNL     1       1.224   4.708  20.258  0.00  0.00    +0.000 A 
ATOM     19  C   UNL     1       2.251   5.116  19.394  0.00  0.00    +0.000 A 
ENDBRANCH   3   8
BRANCH   1  20
ATOM     20  C   UNL     1       0.144  10.944  18.666  0.00  0.00    +0.000 C 
BRANCH  20  24
ATOM     21  C   UNL     1      -2.666  10.150  16.278  0.00  0.00    +0.000 C 
ATOM     22  C   UNL     1      -1.993  10.662  17.520  0.00  0.00    +0.000 C 
ATOM     23  O   UNL     1      -2.619  11.164  18.446  0.00  0.00    +0.000 OA
ATOM     24  N   UNL     1      -0.626  10.497  17.529  0.00  0.00    +0.000 N 
ATOM     25  H   UNL     1      -0.154  10.059  16.751  0.00  0.00    +0.000 HD
ENDBRANCH  20  24
ENDBRANCH   1  20
TORSDOF 3
ENDMDL
MODEL 4
REMARK VINA RESULT:      -8.0      1.923      2.697
REMARK  Name = 
REMARK  6 active torsions:
REMARK  status: ('A' for Active; 'I' for Inactive)
REMARK    1  A    between atoms: C_1  and  C_2
REMARK    2  A    between atoms: N_4  and  C_5
REMARK    3  A    between atoms: C_5  and  C_6
REMARK    4  A    between atoms: C_8  and  C_9
REMARK    5  A    between atoms: N_11  and  C_12
REMARK    6  A    between atoms: C_23  and  C_24
REMARK                            x       y       z     vdW  Elec       q    Type
REMARK                         _______ _______ _______ _____ _____    ______ ____
ROOT
ATOM      1  C   UNL     1       1.297   8.616  20.125  0.00  0.00    +0.000 A 
ATOM      2  C   UNL     1       2.185   7.624  19.653  0.00  0.00    +0.000 A 
ATOM      3  C   UNL     1       2.682   7.657  18.340  0.00  0.00    +0.000 A 
ATOM      4  C   UNL     1       2.236   8.665  17.485  0.00  0.00    +0.000 A 
ATOM      5  C   UNL     1       1.439   9.703  17.964  0.00  0.00    +0.000 A 
ATOM      6  C   UNL     1       0.969   9.702  19.285  0.00  0.00    +0.000 A 
ATOM      7  C   UNL     1       0.076  10.827  19.722  0.00  0.00    +0.000 C 
ENDROOT
BRANCH   3   8
ATOM      8  C   UNL     1       3.598   6.567  17.854  0.00  0.00    +0.000 A 
ATOM      9  N   UNL     1       4.816   6.921  17.558  0.00  0.00    +0.000 NA
ATOM     10  N   UNL     1       5.731   5.972  17.185  0.00  0.00    +0.000 N 
ATOM     11  C   UNL     1       7.081   6.433  16.922  0.00  0.00    +0.000 C 
ATOM     12  C   UNL     1       5.478   4.608  17.141  0.00  0.00    +0.000 A 
ATOM     13  O   UNL     1       6.316   3.762  16.832  0.00  0.00    +0.000 OA
ATOM     14  C   UNL     1       4.109   4.187  17.476  0.00  0.00    +0.000 A 
ATOM     15  C   UNL     1       3.787   2.821  17.483  0.00  0.00    +0.000 A 
ATOM     16  C   UNL     1       2.488   2.409  17.776  0.00  0.00    +0.000 A 
ATOM     17  C   UNL     1       1.501   3.363  17.992  0.00  0.00    +0.000 A 
ATOM     18  C   UNL     1       1.818   4.724  17.943  0.00  0.00    +0.000 A 
ATOM     19  C   UNL     1       3.142   5.148  17.758  0.00  0.00    +0.000 A 
ENDBRANCH   3   8
BRANCH   1  20
ATOM     20  C   UNL     1       0.691   8.449  21.498  0.00  0.00    +0.000 C 
BRANCH  20  24
ATOM     21  C   UNL     1      -1.476  11.008  23.225  0.00  0.00    +0.000 C 
ATOM     22  C   UNL     1      -0.381   9.993  23.055  0.00  0.00    +0.000 C 
ATOM     23  O   UNL     1       0.373   9.682  23.970  0.00  0.00    +0.000 OA
ATOM     24  N   UNL     1      -0.316   9.440  21.796  0.00  0.00    +0.000 N 
ATOM     25  H   UNL     1      -0.971   9.714  21.077  0.00  0.00    +0.000 HD
ENDBRANCH  20  24
ENDBRANCH   1  20
TORSDOF 3
ENDMDL
MODEL 5
REMARK VINA RESULT:      -8.0      3.811      8.024
REMARK  Name = 
REMARK  6 active torsions:
REMARK  status: ('A' for Active; 'I' for Inactive)
REMARK    1  A    between atoms: C_1  and  C_2
REMARK    2  A    between atoms: N_4  and  C_5
REMARK    3  A    between atoms: C_5  and  C_6
REMARK    4  A    between atoms: C_8  and  C_9
REMARK    5  A    between atoms: N_11  and  C_12
REMARK    6  A    between atoms: C_23  and  C_24
REMARK                            x       y       z     vdW  Elec       q    Type
REMARK                         _______ _______ _______ _____ _____    ______ ____
ROOT
ATOM      1  C   UNL     1       5.710   4.498  14.437  0.00  0.00    +0.000 A 
ATOM      2  C   UNL     1       4.859   4.442  15.563  0.00  0.00    +0.000 A 
ATOM      3  C   UNL     1       5.316   4.809  16.840  0.00  0.00    +0.000 A 
ATOM      4  C   UNL     1       6.653   5.180  16.987  0.00  0.00    +0.000 A 
ATOM      5  C   UNL     1       7.475   5.332  15.872  0.00  0.00    +0.000 A 
ATOM      6  C   UNL     1       7.018   5.008  14.587  0.00  0.00    +0.000 A 
ATOM      7  C   UNL     1       7.972   5.152  13.436  0.00  0.00    +0.000 C 
ENDROOT
BRANCH   3   8
ATOM      8  C   UNL     1       4.397   4.705  18.027  0.00  0.00    +0.000 A 
ATOM      9  N   UNL     1       4.453   3.595  18.707  0.00  0.00    +0.000 NA
ATOM     10  N   UNL     1       3.705   3.456  19.847  0.00  0.00    +0.000 N 
ATOM     11  C   UNL     1       3.858   2.215  20.581  0.00  0.00    +0.000 C 
ATOM     12  C   UNL     1       2.901   4.449  20.387  0.00  0.00    +0.000 A 
ATOM     13  O   UNL     1       2.256   4.323  21.428  0.00  0.00    +0.000 OA
ATOM     14  C   UNL     1       2.829   5.712  19.636  0.00  0.00    +0.000 A 
ATOM     15  C   UNL     1       2.059   6.773  20.138  0.00  0.00    +0.000 A 
ATOM     16  C   UNL     1       1.962   7.966  19.425  0.00  0.00    +0.000 A 
ATOM     17  C   UNL     1       2.576   8.072  18.183  0.00  0.00    +0.000 A 
ATOM     18  C   UNL     1       3.306   6.997  17.667  0.00  0.00    +0.000 A 
ATOM     19  C   UNL     1       3.502   5.832  18.424  0.00  0.00    +0.000 A 
ENDBRANCH   3   8
BRANCH   1  20
ATOM     20  C   UNL     1       5.203   3.960  13.121  0.00  0.00    +0.000 C 
BRANCH  20  24
ATOM     21  C   UNL     1       6.502   1.057  11.093  0.00  0.00    +0.000 C 
ATOM     22  C   UNL     1       5.563   2.147  11.526  0.00  0.00    +0.000 C 
ATOM     23  O   UNL     1       4.487   2.344  10.973  0.00  0.00    +0.000 OA
ATOM     24  N   UNL     1       6.010   2.881  12.601  0.00  0.00    +0.000 N 
ATOM     25  H   UNL     1       6.897   2.671  13.038  0.00  0.00    +0.000 HD
ENDBRANCH  20  24
ENDBRANCH   1  20
TORSDOF 3
ENDMDL
MODEL 6
REMARK VINA RESULT:      -7.9      3.705      7.758
REMARK  Name = 
REMARK  6 active torsions:
REMARK  status: ('A' for Active; 'I' for Inactive)
REMARK    1  A    between atoms: C_1  and  C_2
REMARK    2  A    between atoms: N_4  and  C_5
REMARK    3  A    between atoms: C_5  and  C_6
REMARK    4  A    between atoms: C_8  and  C_9
REMARK    5  A    between atoms: N_11  and  C_12
REMARK    6  A    between atoms: C_23  and  C_24
REMARK                            x       y       z     vdW  Elec       q    Type
REMARK                         _______ _______ _______ _____ _____    ______ ____
ROOT
ATOM      1  C   UNL     1       6.087   4.330  14.329  0.00  0.00    +0.000 A 
ATOM      2  C   UNL     1       5.199   4.275  15.427  0.00  0.00    +0.000 A 
ATOM      3  C   UNL     1       5.425   5.039  16.584  0.00  0.00    +0.000 A 
ATOM      4  C   UNL     1       6.580   5.817  16.653  0.00  0.00    +0.000 A 
ATOM      5  C   UNL     1       7.412   5.956  15.544  0.00  0.00    +0.000 A 
ATOM      6  C   UNL     1       7.175   5.229  14.368  0.00  0.00    +0.000 A 
ATOM      7  C   UNL     1       8.137   5.391  13.227  0.00  0.00    +0.000 C 
ENDROOT
BRANCH   3   8
ATOM      8  C   UNL     1       4.482   4.932  17.752  0.00  0.00    +0.000 A 
ATOM      9  N   UNL     1       4.524   3.822  18.431  0.00  0.00    +0.000 NA
ATOM     10  N   UNL     1       3.752   3.680  19.555  0.00  0.00    +0.000 N 
ATOM     11  C   UNL     1       3.891   2.438  20.291  0.00  0.00    +0.000 C 
ATOM     12  C   UNL     1       2.937   4.672  20.081  0.00  0.00    +0.000 A 
ATOM     13  O   UNL     1       2.271   4.544  21.107  0.00  0.00    +0.000 OA
ATOM     14  C   UNL     1       2.879   5.936  19.330  0.00  0.00    +0.000 A 
ATOM     15  C   UNL     1       2.100   6.996  19.818  0.00  0.00    +0.000 A 
ATOM     16  C   UNL     1       2.017   8.191  19.105  0.00  0.00    +0.000 A 
ATOM     17  C   UNL     1       2.656   8.298  17.875  0.00  0.00    +0.000 A 
ATOM     18  C   UNL     1       3.397   7.225  17.374  0.00  0.00    +0.000 A 
ATOM     19  C   UNL     1       3.578   6.059  18.132  0.00  0.00    +0.000 A 
ENDBRANCH   3   8
BRANCH   1  20
ATOM     20  C   UNL     1       5.866   3.384  13.173  0.00  0.00    +0.000 C 
BRANCH  20  24
ATOM     21  C   UNL     1       3.274   3.540  10.438  0.00  0.00    +0.000 C 
ATOM     22  C   UNL     1       4.388   2.976  11.275  0.00  0.00    +0.000 C 
ATOM     23  O   UNL     1       4.888   1.881  11.048  0.00  0.00    +0.000 OA
ATOM     24  N   UNL     1       4.800   3.804  12.294  0.00  0.00    +0.000 N 
ATOM     25  H   UNL     1       4.371   4.708  12.432  0.00  0.00    +0.000 HD
ENDBRANCH  20  24
ENDBRANCH   1  20
TORSDOF 3
ENDMDL
MODEL 7
REMARK VINA RESULT:      -7.8      2.357      3.735
REMARK  Name = 
REMARK  6 active torsions:
REMARK  status: ('A' for Active; 'I' for Inactive)
REMARK    1  A    between atoms: C_1  and  C_2
REMARK    2  A    between atoms: N_4  and  C_5
REMARK    3  A    between atoms: C_5  and  C_6
REMARK    4  A    between atoms: C_8  and  C_9
REMARK    5  A    between atoms: N_11  and  C_12
REMARK    6  A    between atoms: C_23  and  C_24
REMARK                            x       y       z     vdW  Elec       q    Type
REMARK                         _______ _______ _______ _____ _____    ______ ____
ROOT
ATOM      1  C   UNL     1       1.551   8.774  20.238  0.00  0.00    +0.000 A 
ATOM      2  C   UNL     1       2.030   7.475  19.959  0.00  0.00    +0.000 A 
ATOM      3  C   UNL     1       2.306   7.067  18.643  0.00  0.00    +0.000 A 
ATOM      4  C   UNL     1       2.043   7.958  17.603  0.00  0.00    +0.000 A 
ATOM      5  C   UNL     1       1.664   9.272  17.869  0.00  0.00    +0.000 A 
ATOM      6  C   UNL     1       1.424   9.702  19.182  0.00  0.00    +0.000 A 
ATOM      7  C   UNL     1       0.973  11.119  19.394  0.00  0.00    +0.000 C 
ENDROOT
BRANCH   3   8
ATOM      8  C   UNL     1       2.780   5.665  18.374  0.00  0.00    +0.000 A 
ATOM      9  N   UNL     1       2.139   4.709  18.983  0.00  0.00    +0.000 NA
ATOM     10  N   UNL     1       2.460   3.401  18.728  0.00  0.00    +0.000 N 
ATOM     11  C   UNL     1       1.669   2.390  19.402  0.00  0.00    +0.000 C 
ATOM     12  C   UNL     1       3.411   2.990  17.804  0.00  0.00    +0.000 A 
ATOM     13  O   UNL     1       3.671   1.813  17.562  0.00  0.00    +0.000 OA
ATOM     14  C   UNL     1       4.143   4.056  17.102  0.00  0.00    +0.000 A 
ATOM     15  C   UNL     1       5.098   3.715  16.132  0.00  0.00    +0.000 A 
ATOM     16  C   UNL     1       5.816   4.714  15.476  0.00  0.00    +0.000 A 
ATOM     17  C   UNL     1       5.628   6.042  15.839  0.00  0.00    +0.000 A 
ATOM     18  C   UNL     1       4.706   6.372  16.836  0.00  0.00    +0.000 A 
ATOM     19  C   UNL     1       3.899   5.387  17.425  0.00  0.00    +0.000 A 
ENDBRANCH   3   8
BRANCH   1  20
ATOM     20  C   UNL     1       1.142   9.106  21.653  0.00  0.00    +0.000 C 
BRANCH  20  24
ATOM     21  C   UNL     1      -1.654  11.328  22.866  0.00  0.00    +0.000 C 
ATOM     22  C   UNL     1      -0.491  10.379  22.945  0.00  0.00    +0.000 C 
ATOM     23  O   UNL     1      -0.058   9.960  24.012  0.00  0.00    +0.000 OA
ATOM     24  N   UNL     1       0.023  10.015  21.721  0.00  0.00    +0.000 N 
ATOM     25  H   UNL     1      -0.379  10.372  20.865  0.00  0.00    +0.000 HD
ENDBRANCH  20  24
ENDBRANCH   1  20
TORSDOF 3
ENDMDL
MODEL 8
REMARK VINA RESULT:      -7.7      2.012      3.231
REMARK  Name = 
REMARK  6 active torsions:
REMARK  status: ('A' for Active; 'I' for Inactive)
REMARK    1  A    between atoms: C_1  and  C_2
REMARK    2  A    between atoms: N_4  and  C_5
REMARK    3  A    between atoms: C_5  and  C_6
REMARK    4  A    between atoms: C_8  and  C_9
REMARK    5  A    between atoms: N_11  and  C_12
REMARK    6  A    between atoms: C_23  and  C_24
REMARK                            x       y       z     vdW  Elec       q    Type
REMARK                         _______ _______ _______ _____ _____    ______ ____
ROOT
ATOM      1  C   UNL     1       1.288   9.357  18.972  0.00  0.00    +0.000 A 
ATOM      2  C   UNL     1       1.793   8.108  18.546  0.00  0.00    +0.000 A 
ATOM      3  C   UNL     1       2.024   7.066  19.460  0.00  0.00    +0.000 A 
ATOM      4  C   UNL     1       1.797   7.308  20.815  0.00  0.00    +0.000 A 
ATOM      5  C   UNL     1       1.209   8.499  21.237  0.00  0.00    +0.000 A 
ATOM      6  C   UNL     1       0.937   9.531  20.328  0.00  0.00    +0.000 A 
ATOM      7  C   UNL     1       0.345  10.806  20.857  0.00  0.00    +0.000 C 
ENDROOT
BRANCH   3   8
ATOM      8  C   UNL     1       2.596   5.759  18.983  0.00  0.00    +0.000 A 
ATOM      9  N   UNL     1       2.109   4.681  19.526  0.00  0.00    +0.000 NA
ATOM     10  N   UNL     1       2.522   3.449  19.087  0.00  0.00    +0.000 N 
ATOM     11  C   UNL     1       1.897   2.293  19.700  0.00  0.00    +0.000 C 
ATOM     12  C   UNL     1       3.410   3.244  18.041  0.00  0.00    +0.000 A 
ATOM     13  O   UNL     1       3.752   2.133  17.636  0.00  0.00    +0.000 OA
ATOM     14  C   UNL     1       3.969   4.450  17.412  0.00  0.00    +0.000 A 
ATOM     15  C   UNL     1       4.850   4.321  16.327  0.00  0.00    +0.000 A 
ATOM     16  C   UNL     1       5.406   5.454  15.737  0.00  0.00    +0.000 A 
ATOM     17  C   UNL     1       5.134   6.707  16.273  0.00  0.00    +0.000 A 
ATOM     18  C   UNL     1       4.288   6.828  17.379  0.00  0.00    +0.000 A 
ATOM     19  C   UNL     1       3.637   5.705  17.913  0.00  0.00    +0.000 A 
ENDBRANCH   3   8
BRANCH   1  20
ATOM     20  C   UNL     1       1.193  10.478  17.965  0.00  0.00    +0.000 C 
BRANCH  20  24
ATOM     21  C   UNL     1       3.244  13.624  18.326  0.00  0.00    +0.000 C 
ATOM     22  C   UNL     1       2.017  12.759  18.243  0.00  0.00    +0.000 C 
ATOM     23  O   UNL     1       0.884  13.220  18.314  0.00  0.00    +0.000 OA
ATOM     24  N   UNL     1       2.283  11.421  18.063  0.00  0.00    +0.000 N 
ATOM     25  H   UNL     1       3.234  11.088  17.992  0.00  0.00    +0.000 HD
ENDBRANCH  20  24
ENDBRANCH   1  20
TORSDOF 3
ENDMDL
MODEL 9
REMARK VINA RESULT:      -7.7      4.112      8.476
REMARK  Name = 
REMARK  6 active torsions:
REMARK  status: ('A' for Active; 'I' for Inactive)
REMARK    1  A    between atoms: C_1  and  C_2
REMARK    2  A    between atoms: N_4  and  C_5
REMARK    3  A    between atoms: C_5  and  C_6
REMARK    4  A    between atoms: C_8  and  C_9
REMARK    5  A    between atoms: N_11  and  C_12
REMARK    6  A    between atoms: C_23  and  C_24
REMARK                            x       y       z     vdW  Elec       q    Type
REMARK                         _______ _______ _______ _____ _____    ______ ____
ROOT
ATOM      1  C   UNL     1       5.980   4.224  13.465  0.00  0.00    +0.000 A 
ATOM      2  C   UNL     1       5.080   4.002  14.532  0.00  0.00    +0.000 A 
ATOM      3  C   UNL     1       5.410   4.361  15.849  0.00  0.00    +0.000 A 
ATOM      4  C   UNL     1       6.674   4.895  16.096  0.00  0.00    +0.000 A 
ATOM      5  C   UNL     1       7.532   5.209  15.044  0.00  0.00    +0.000 A 
ATOM      6  C   UNL     1       7.197   4.892  13.720  0.00  0.00    +0.000 A 
ATOM      7  C   UNL     1       8.188   5.217  12.639  0.00  0.00    +0.000 C 
ENDROOT
BRANCH   3   8
ATOM      8  C   UNL     1       4.446   4.078  16.969  0.00  0.00    +0.000 A 
ATOM      9  N   UNL     1       4.325   2.832  17.329  0.00  0.00    +0.000 NA
ATOM     10  N   UNL     1       3.527   2.504  18.394  0.00  0.00    +0.000 N 
ATOM     11  C   UNL     1       3.482   1.104  18.770  0.00  0.00    +0.000 C 
ATOM     12  C   UNL     1       2.851   3.423  19.184  0.00  0.00    +0.000 A 
ATOM     13  O   UNL     1       2.161   3.119  20.156  0.00  0.00    +0.000 OA
ATOM     14  C   UNL     1       2.979   4.836  18.797  0.00  0.00    +0.000 A 
ATOM     15  C   UNL     1       2.348   5.825  19.567  0.00  0.00    +0.000 A 
ATOM     16  C   UNL     1       2.442   7.166  19.199  0.00  0.00    +0.000 A 
ATOM     17  C   UNL     1       3.105   7.508  18.026  0.00  0.00    +0.000 A 
ATOM     18  C   UNL     1       3.696   6.515  17.240  0.00  0.00    +0.000 A 
ATOM     19  C   UNL     1       3.703   5.176  17.658  0.00  0.00    +0.000 A 
ENDBRANCH   3   8
BRANCH   1  20
ATOM     20  C   UNL     1       5.625   3.691  12.098  0.00  0.00    +0.000 C 
BRANCH  20  24
ATOM     21  C   UNL     1       6.282   0.034  11.452  0.00  0.00    +0.000 C 
ATOM     22  C   UNL     1       6.506   1.519  11.416  0.00  0.00    +0.000 C 
ATOM     23  O   UNL     1       7.466   2.024  10.847  0.00  0.00    +0.000 OA
ATOM     24  N   UNL     1       5.533   2.251  12.059  0.00  0.00    +0.000 N 
ATOM     25  H   UNL     1       4.748   1.792  12.499  0.00  0.00    +0.000 HD
ENDBRANCH  20  24
ENDBRANCH   1  20
TORSDOF 3
ENDMDL
