MODEL 1
REMARK VINA RESULT:      -5.8      0.000      0.000
REMARK  Name = 
REMARK  5 active torsions:
REMARK  status: ('A' for Active; 'I' for Inactive)
REMARK    1  A    between atoms: N_8  and  C_9
REMARK    2  A    between atoms: C_9  and  O_10
REMARK    3  A    between atoms: O_10  and  C_11
REMARK    4  A    between atoms: C_11  and  C_12
REMARK    5  A    between atoms: C_12  and  O_13
REMARK                            x       y       z     vdW  Elec       q    Type
REMARK                         _______ _______ _______ _____ _____    ______ ____
ROOT
ATOM      1  N   UNL     1       5.046   1.771  19.771  0.00  0.00    +0.000 N 
ATOM      2  C   UNL     1       4.060   2.624  20.155  0.00  0.00    +0.000 A 
ATOM      3  N   UNL     1       3.256   2.234  21.096  0.00  0.00    +0.000 NA
ATOM      4  C   UNL     1       2.236   3.065  21.497  0.00  0.00    +0.000 A 
ATOM      5  O   UNL     1       1.376   2.745  22.309  0.00  0.00    +0.000 OA
ATOM      6  C   UNL     1       2.175   4.428  20.911  0.00  0.00    +0.000 A 
ATOM      7  C   UNL     1       3.048   4.741  19.952  0.00  0.00    +0.000 A 
ATOM      8  N   UNL     1       4.001   3.844  19.509  0.00  0.00    +0.000 N 
ATOM      9  H   UNL     1       4.883   0.847  20.161  0.00  0.00    +0.000 HD
ATOM     10  H   UNL     1       5.169   1.723  18.764  0.00  0.00    +0.000 HD
ENDROOT
BRANCH   8  11
ATOM     11  C   UNL     1       4.908   4.193  18.418  0.00  0.00    +0.000 C 
BRANCH  11  12
ATOM     12  O   UNL     1       6.264   4.340  18.868  0.00  0.00    +0.000 OA
BRANCH  12  13
ATOM     13  C   UNL     1       6.955   5.384  18.166  0.00  0.00    +0.000 C 
BRANCH  13  14
ATOM     14  C   UNL     1       7.952   6.039  19.117  0.00  0.00    +0.000 C 
BRANCH  14  15
ATOM     15  O   UNL     1       7.886   5.421  20.400  0.00  0.00    +0.000 OA
ATOM     16  H   UNL     1       8.106   6.122  21.040  0.00  0.00    +0.000 HD
ENDBRANCH  14  15
ENDBRANCH  13  14
ENDBRANCH  12  13
ENDBRANCH  11  12
ENDBRANCH   8  11
TORSDOF 5
ENDMDL
MODEL 2
REMARK VINA RESULT:      -5.6      3.218      5.829
REMARK  Name = 
REMARK  5 active torsions:
REMARK  status: ('A' for Active; 'I' for Inactive)
REMARK    1  A    between atoms: N_8  and  C_9
REMARK    2  A    between atoms: C_9  and  O_10
REMARK    3  A    between atoms: O_10  and  C_11
REMARK    4  A    between atoms: C_11  and  C_12
REMARK    5  A    between atoms: C_12  and  O_13
REMARK                            x       y       z     vdW  Elec       q    Type
REMARK                         _______ _______ _______ _____ _____    ______ ____
ROOT
ATOM      1  N   UNL     1       7.981   4.335  18.323  0.00  0.00    +0.000 N 
ATOM      2  C   UNL     1       7.164   4.608  17.271  0.00  0.00    +0.000 A 
ATOM      3  N   UNL     1       7.703   4.698  16.095  0.00  0.00    +0.000 NA
ATOM      4  C   UNL     1       6.909   4.991  15.011  0.00  0.00    +0.000 A 
ATOM      5  O   UNL     1       7.342   5.186  13.881  0.00  0.00    +0.000 OA
ATOM      6  C   UNL     1       5.442   5.075  15.223  0.00  0.00    +0.000 A 
ATOM      7  C   UNL     1       4.978   4.965  16.470  0.00  0.00    +0.000 A 
ATOM      8  N   UNL     1       5.819   4.765  17.547  0.00  0.00    +0.000 N 
ATOM      9  H   UNL     1       8.954   4.433  18.047  0.00  0.00    +0.000 HD
ATOM     10  H   UNL     1       7.780   4.895  19.146  0.00  0.00    +0.000 HD
ENDROOT
BRANCH   8  11
ATOM     11  C   UNL     1       5.290   4.705  18.908  0.00  0.00    +0.000 C 
BRANCH  11  12
ATOM     12  O   UNL     1       3.993   4.090  18.958  0.00  0.00    +0.000 OA
BRANCH  12  13
ATOM     13  C   UNL     1       4.053   2.743  19.451  0.00  0.00    +0.000 C 
BRANCH  13  14
ATOM     14  C   UNL     1       3.371   1.821  18.444  0.00  0.00    +0.000 C 
BRANCH  14  15
ATOM     15  O   UNL     1       4.093   0.597  18.333  0.00  0.00    +0.000 OA
ATOM     16  H   UNL     1       4.597   0.513  19.162  0.00  0.00    +0.000 HD
ENDBRANCH  14  15
ENDBRANCH  13  14
ENDBRANCH  12  13
ENDBRANCH  11  12
ENDBRANCH   8  11
TORSDOF 5
ENDMDL
MODEL 3
REMARK VINA RESULT:      -5.6      1.139      1.602
REMARK  Name = 
REMARK  5 active torsions:
REMARK  status: ('A' for Active; 'I' for Inactive)
REMARK    1  A    between atoms: N_8  and  C_9
REMARK    2  A    between atoms: C_9  and  O_10
REMARK    3  A    between atoms: O_10  and  C_11
REMARK    4  A    between atoms: C_11  and  C_12
REMARK    5  A    between atoms: C_12  and  O_13
REMARK                            x       y       z     vdW  Elec       q    Type
REMARK                         _______ _______ _______ _____ _____    ______ ____
ROOT
ATOM      1  N   UNL     1       5.084   1.949  19.732  0.00  0.00    +0.000 N 
ATOM      2  C   UNL     1       4.109   2.820  20.104  0.00  0.00    +0.000 A 
ATOM      3  N   UNL     1       3.242   2.417  20.982  0.00  0.00    +0.000 NA
ATOM      4  C   UNL     1       2.231   3.266  21.368  0.00  0.00    +0.000 A 
ATOM      5  O   UNL     1       1.319   2.941  22.120  0.00  0.00    +0.000 OA
ATOM      6  C   UNL     1       2.248   4.655  20.845  0.00  0.00    +0.000 A 
ATOM      7  C   UNL     1       3.181   4.979  19.949  0.00  0.00    +0.000 A 
ATOM      8  N   UNL     1       4.125   4.069  19.514  0.00  0.00    +0.000 N 
ATOM      9  H   UNL     1       4.868   1.015  20.068  0.00  0.00    +0.000 HD
ATOM     10  H   UNL     1       5.258   1.942  18.731  0.00  0.00    +0.000 HD
ENDROOT
BRANCH   8  11
ATOM     11  C   UNL     1       5.100   4.434  18.489  0.00  0.00    +0.000 C 
BRANCH  11  12
ATOM     12  O   UNL     1       6.441   4.464  19.004  0.00  0.00    +0.000 OA
BRANCH  12  13
ATOM     13  C   UNL     1       7.408   4.727  17.976  0.00  0.00    +0.000 C 
BRANCH  13  14
ATOM     14  C   UNL     1       6.716   4.648  16.619  0.00  0.00    +0.000 C 
BRANCH  14  15
ATOM     15  O   UNL     1       7.313   5.569  15.708  0.00  0.00    +0.000 OA
ATOM     16  H   UNL     1       7.884   6.142  16.251  0.00  0.00    +0.000 HD
ENDBRANCH  14  15
ENDBRANCH  13  14
ENDBRANCH  12  13
ENDBRANCH  11  12
ENDBRANCH   8  11
TORSDOF 5
ENDMDL
MODEL 4
REMARK VINA RESULT:      -5.6      3.085      5.705
REMARK  Name = 
REMARK  5 active torsions:
REMARK  status: ('A' for Active; 'I' for Inactive)
REMARK    1  A    between atoms: N_8  and  C_9
REMARK    2  A    between atoms: C_9  and  O_10
REMARK    3  A    between atoms: O_10  and  C_11
REMARK    4  A    between atoms: C_11  and  C_12
REMARK    5  A    between atoms: C_12  and  O_13
REMARK                            x       y       z     vdW  Elec       q    Type
REMARK                         _______ _______ _______ _____ _____    ______ ____
ROOT
ATOM      1  N   UNL     1       6.900   4.289  18.563  0.00  0.00    +0.000 N 
ATOM      2  C   UNL     1       6.528   4.549  17.282  0.00  0.00    +0.000 A 
ATOM      3  N   UNL     1       7.467   4.727  16.404  0.00  0.00    +0.000 NA
ATOM      4  C   UNL     1       7.127   5.011  15.102  0.00  0.00    +0.000 A 
ATOM      5  O   UNL     1       7.942   5.284  14.229  0.00  0.00    +0.000 OA
ATOM      6  C   UNL     1       5.688   4.983  14.735  0.00  0.00    +0.000 A 
ATOM      7  C   UNL     1       4.794   4.787  15.705  0.00  0.00    +0.000 A 
ATOM      8  N   UNL     1       5.172   4.599  17.021  0.00  0.00    +0.000 N 
ATOM      9  H   UNL     1       7.893   4.467  18.684  0.00  0.00    +0.000 HD
ATOM     10  H   UNL     1       6.354   4.797  19.253  0.00  0.00    +0.000 HD
ENDROOT
BRANCH   8  11
ATOM     11  C   UNL     1       4.170   4.443  18.072  0.00  0.00    +0.000 C 
BRANCH  11  12
ATOM     12  O   UNL     1       3.210   3.421  17.758  0.00  0.00    +0.000 OA
BRANCH  12  13
ATOM     13  C   UNL     1       3.590   2.143  18.289  0.00  0.00    +0.000 C 
BRANCH  13  14
ATOM     14  C   UNL     1       3.945   2.309  19.764  0.00  0.00    +0.000 C 
BRANCH  14  15
ATOM     15  O   UNL     1       5.263   1.825  20.010  0.00  0.00    +0.000 OA
ATOM     16  H   UNL     1       5.833   2.272  19.358  0.00  0.00    +0.000 HD
ENDBRANCH  14  15
ENDBRANCH  13  14
ENDBRANCH  12  13
ENDBRANCH  11  12
ENDBRANCH   8  11
TORSDOF 5
ENDMDL
MODEL 5
REMARK VINA RESULT:      -5.6      2.295      2.336
REMARK  Name = 
REMARK  5 active torsions:
REMARK  status: ('A' for Active; 'I' for Inactive)
REMARK    1  A    between atoms: N_8  and  C_9
REMARK    2  A    between atoms: C_9  and  O_10
REMARK    3  A    between atoms: O_10  and  C_11
REMARK    4  A    between atoms: C_11  and  C_12
REMARK    5  A    between atoms: C_12  and  O_13
REMARK                            x       y       z     vdW  Elec       q    Type
REMARK                         _______ _______ _______ _____ _____    ______ ____
ROOT
ATOM      1  N   UNL     1       5.000   2.720  19.378  0.00  0.00    +0.000 N 
ATOM      2  C   UNL     1       3.677   2.876  19.647  0.00  0.00    +0.000 A 
ATOM      3  N   UNL     1       3.276   2.651  20.861  0.00  0.00    +0.000 NA
ATOM      4  C   UNL     1       1.941   2.781  21.164  0.00  0.00    +0.000 A 
ATOM      5  O   UNL     1       1.460   2.501  22.256  0.00  0.00    +0.000 OA
ATOM      6  C   UNL     1       1.032   3.292  20.107  0.00  0.00    +0.000 A 
ATOM      7  C   UNL     1       1.535   3.500  18.889  0.00  0.00    +0.000 A 
ATOM      8  N   UNL     1       2.866   3.267  18.599  0.00  0.00    +0.000 N 
ATOM      9  H   UNL     1       5.462   2.251  20.151  0.00  0.00    +0.000 HD
ATOM     10  H   UNL     1       5.180   2.239  18.501  0.00  0.00    +0.000 HD
ENDROOT
BRANCH   8  11
ATOM     11  C   UNL     1       3.378   3.449  17.243  0.00  0.00    +0.000 C 
BRANCH  11  12
ATOM     12  O   UNL     1       4.286   4.559  17.151  0.00  0.00    +0.000 OA
BRANCH  12  13
ATOM     13  C   UNL     1       5.263   4.373  16.116  0.00  0.00    +0.000 C 
BRANCH  13  14
ATOM     14  C   UNL     1       5.853   5.732  15.750  0.00  0.00    +0.000 C 
BRANCH  14  15
ATOM     15  O   UNL     1       7.272   5.638  15.641  0.00  0.00    +0.000 OA
ATOM     16  H   UNL     1       7.627   6.200  16.353  0.00  0.00    +0.000 HD
ENDBRANCH  14  15
ENDBRANCH  13  14
ENDBRANCH  12  13
ENDBRANCH  11  12
ENDBRANCH   8  11
TORSDOF 5
ENDMDL
MODEL 6
REMARK VINA RESULT:      -5.5      2.044      2.201
REMARK  Name = 
REMARK  5 active torsions:
REMARK  status: ('A' for Active; 'I' for Inactive)
REMARK    1  A    between atoms: N_8  and  C_9
REMARK    2  A    between atoms: C_9  and  O_10
REMARK    3  A    between atoms: O_10  and  C_11
REMARK    4  A    between atoms: C_11  and  C_12
REMARK    5  A    between atoms: C_12  and  O_13
REMARK                            x       y       z     vdW  Elec       q    Type
REMARK                         _______ _______ _______ _____ _____    ______ ____
ROOT
ATOM      1  N   UNL     1       4.882   2.071  19.719  0.00  0.00    +0.000 N 
ATOM      2  C   UNL     1       3.826   2.655  19.094  0.00  0.00    +0.000 A 
ATOM      3  N   UNL     1       2.647   2.159  19.309  0.00  0.00    +0.000 NA
ATOM      4  C   UNL     1       1.558   2.714  18.679  0.00  0.00    +0.000 A 
ATOM      5  O   UNL     1       0.423   2.256  18.750  0.00  0.00    +0.000 OA
ATOM      6  C   UNL     1       1.770   3.939  17.867  0.00  0.00    +0.000 A 
ATOM      7  C   UNL     1       3.019   4.379  17.706  0.00  0.00    +0.000 A 
ATOM      8  N   UNL     1       4.100   3.737  18.280  0.00  0.00    +0.000 N 
ATOM      9  H   UNL     1       4.602   1.184  20.126  0.00  0.00    +0.000 HD
ATOM     10  H   UNL     1       5.693   1.954  19.117  0.00  0.00    +0.000 HD
ENDROOT
BRANCH   8  11
ATOM     11  C   UNL     1       5.462   4.207  18.040  0.00  0.00    +0.000 C 
BRANCH  11  12
ATOM     12  O   UNL     1       6.047   4.793  19.213  0.00  0.00    +0.000 OA
BRANCH  12  13
ATOM     13  C   UNL     1       7.155   5.648  18.895  0.00  0.00    +0.000 C 
BRANCH  13  14
ATOM     14  C   UNL     1       7.196   5.857  17.384  0.00  0.00    +0.000 C 
BRANCH  14  15
ATOM     15  O   UNL     1       7.536   7.209  17.084  0.00  0.00    +0.000 OA
ATOM     16  H   UNL     1       6.954   7.756  17.642  0.00  0.00    +0.000 HD
ENDBRANCH  14  15
ENDBRANCH  13  14
ENDBRANCH  12  13
ENDBRANCH  11  12
ENDBRANCH   8  11
TORSDOF 5
ENDMDL
MODEL 7
REMARK VINA RESULT:      -5.4      2.185      2.255
REMARK  Name = 
REMARK  5 active torsions:
REMARK  status: ('A' for Active; 'I' for Inactive)
REMARK    1  A    between atoms: N_8  and  C_9
REMARK    2  A    between atoms: C_9  and  O_10
REMARK    3  A    between atoms: O_10  and  C_11
REMARK    4  A    between atoms: C_11  and  C_12
REMARK    5  A    between atoms: C_12  and  O_13
REMARK                            x       y       z     vdW  Elec       q    Type
REMARK                         _______ _______ _______ _____ _____    ______ ____
ROOT
ATOM      1  N   UNL     1       5.201   3.136  19.091  0.00  0.00    +0.000 N 
ATOM      2  C   UNL     1       4.068   3.545  19.722  0.00  0.00    +0.000 A 
ATOM      3  N   UNL     1       3.528   2.735  20.580  0.00  0.00    +0.000 NA
ATOM      4  C   UNL     1       2.372   3.110  21.223  0.00  0.00    +0.000 A 
ATOM      5  O   UNL     1       1.743   2.375  21.977  0.00  0.00    +0.000 OA
ATOM      6  C   UNL     1       1.856   4.483  20.990  0.00  0.00    +0.000 A 
ATOM      7  C   UNL     1       2.481   5.246  20.093  0.00  0.00    +0.000 A 
ATOM      8  N   UNL     1       3.587   4.799  19.396  0.00  0.00    +0.000 N 
ATOM      9  H   UNL     1       5.354   2.145  19.252  0.00  0.00    +0.000 HD
ATOM     10  H   UNL     1       5.207   3.347  18.097  0.00  0.00    +0.000 HD
ENDROOT
BRANCH   8  11
ATOM     11  C   UNL     1       4.218   5.635  18.376  0.00  0.00    +0.000 C 
BRANCH  11  12
ATOM     12  O   UNL     1       4.261   4.986  17.095  0.00  0.00    +0.000 OA
BRANCH  12  13
ATOM     13  C   UNL     1       5.214   5.597  16.213  0.00  0.00    +0.000 C 
BRANCH  13  14
ATOM     14  C   UNL     1       6.244   4.549  15.802  0.00  0.00    +0.000 C 
BRANCH  14  15
ATOM     15  O   UNL     1       5.809   3.250  16.198  0.00  0.00    +0.000 OA
ATOM     16  H   UNL     1       5.403   2.856  15.404  0.00  0.00    +0.000 HD
ENDBRANCH  14  15
ENDBRANCH  13  14
ENDBRANCH  12  13
ENDBRANCH  11  12
ENDBRANCH   8  11
TORSDOF 5
ENDMDL
MODEL 8
REMARK VINA RESULT:      -5.4      1.779      1.892
REMARK  Name = 
REMARK  5 active torsions:
REMARK  status: ('A' for Active; 'I' for Inactive)
REMARK    1  A    between atoms: N_8  and  C_9
REMARK    2  A    between atoms: C_9  and  O_10
REMARK    3  A    between atoms: O_10  and  C_11
REMARK    4  A    between atoms: C_11  and  C_12
REMARK    5  A    between atoms: C_12  and  O_13
REMARK                            x       y       z     vdW  Elec       q    Type
REMARK                         _______ _______ _______ _____ _____    ______ ____
ROOT
ATOM      1  N   UNL     1       5.178   2.798  19.250  0.00  0.00    +0.000 N 
ATOM      2  C   UNL     1       4.072   3.337  19.829  0.00  0.00    +0.000 A 
ATOM      3  N   UNL     1       3.450   2.627  20.719  0.00  0.00    +0.000 NA
ATOM      4  C   UNL     1       2.317   3.134  21.312  0.00  0.00    +0.000 A 
ATOM      5  O   UNL     1       1.615   2.500  22.092  0.00  0.00    +0.000 OA
ATOM      6  C   UNL     1       1.923   4.528  20.988  0.00  0.00    +0.000 A 
ATOM      7  C   UNL     1       2.627   5.182  20.062  0.00  0.00    +0.000 A 
ATOM      8  N   UNL     1       3.704   4.604  19.419  0.00  0.00    +0.000 N 
ATOM      9  H   UNL     1       5.244   1.809  19.472  0.00  0.00    +0.000 HD
ATOM     10  H   UNL     1       5.221   2.948  18.246  0.00  0.00    +0.000 HD
ENDROOT
BRANCH   8  11
ATOM     11  C   UNL     1       4.422   5.322  18.368  0.00  0.00    +0.000 C 
BRANCH  11  12
ATOM     12  O   UNL     1       4.208   4.741  17.072  0.00  0.00    +0.000 OA
BRANCH  12  13
ATOM     13  C   UNL     1       5.235   5.109  16.139  0.00  0.00    +0.000 C 
BRANCH  13  14
ATOM     14  C   UNL     1       6.523   5.382  16.910  0.00  0.00    +0.000 C 
BRANCH  14  15
ATOM     15  O   UNL     1       7.461   6.057  16.075  0.00  0.00    +0.000 OA
ATOM     16  H   UNL     1       7.193   5.853  15.161  0.00  0.00    +0.000 HD
ENDBRANCH  14  15
ENDBRANCH  13  14
ENDBRANCH  12  13
ENDBRANCH  11  12
ENDBRANCH   8  11
TORSDOF 5
ENDMDL
MODEL 9
REMARK VINA RESULT:      -5.4      3.065      6.009
REMARK  Name = 
REMARK  5 active torsions:
REMARK  status: ('A' for Active; 'I' for Inactive)
REMARK    1  A    between atoms: N_8  and  C_9
REMARK    2  A    between atoms: C_9  and  O_10
REMARK    3  A    between atoms: O_10  and  C_11
REMARK    4  A    between atoms: C_11  and  C_12
REMARK    5  A    between atoms: C_12  and  O_13
REMARK                            x       y       z     vdW  Elec       q    Type
REMARK                         _______ _______ _______ _____ _____    ______ ____
ROOT
ATOM      1  N   UNL     1       6.857   4.291  18.592  0.00  0.00    +0.000 N 
ATOM      2  C   UNL     1       6.498   4.475  17.294  0.00  0.00    +0.000 A 
ATOM      3  N   UNL     1       7.431   4.789  16.448  0.00  0.00    +0.000 NA
ATOM      4  C   UNL     1       7.100   5.001  15.130  0.00  0.00    +0.000 A 
ATOM      5  O   UNL     1       7.895   5.390  14.282  0.00  0.00    +0.000 OA
ATOM      6  C   UNL     1       5.699   4.742  14.711  0.00  0.00    +0.000 A 
ATOM      7  C   UNL     1       4.810   4.418  15.652  0.00  0.00    +0.000 A 
ATOM      8  N   UNL     1       5.163   4.307  16.983  0.00  0.00    +0.000 N 
ATOM      9  H   UNL     1       7.804   4.624  18.745  0.00  0.00    +0.000 HD
ATOM     10  H   UNL     1       6.212   4.714  19.253  0.00  0.00    +0.000 HD
ENDROOT
BRANCH   8  11
ATOM     11  C   UNL     1       4.157   4.007  18.000  0.00  0.00    +0.000 C 
BRANCH  11  12
ATOM     12  O   UNL     1       4.192   2.630  18.406  0.00  0.00    +0.000 OA
BRANCH  12  13
ATOM     13  C   UNL     1       3.696   2.447  19.740  0.00  0.00    +0.000 C 
BRANCH  13  14
ATOM     14  C   UNL     1       2.173   2.523  19.712  0.00  0.00    +0.000 C 
BRANCH  14  15
ATOM     15  O   UNL     1       1.644   1.482  18.894  0.00  0.00    +0.000 OA
ATOM     16  H   UNL     1       0.865   1.866  18.452  0.00  0.00    +0.000 HD
ENDBRANCH  14  15
ENDBRANCH  13  14
ENDBRANCH  12  13
ENDBRANCH  11  12
ENDBRANCH   8  11
TORSDOF 5
ENDMDL
