MODEL 1
REMARK VINA RESULT:      -7.9      0.000      0.000
REMARK  Name = 
REMARK  3 active torsions:
REMARK  status: ('A' for Active; 'I' for Inactive)
REMARK    1  A    between atoms: C_4  and  C_5
REMARK    2  A    between atoms: N_17  and  S_18
REMARK    3  A    between atoms: S_18  and  C_21
REMARK                            x       y       z     vdW  Elec       q    Type
REMARK                         _______ _______ _______ _____ _____    ______ ____
ROOT
ATOM      1  O   UNL     1       1.108   9.955  22.696  0.00  0.00    +0.000 OA
ATOM      2  C   UNL     1       1.248   9.378  21.636  0.00  0.00    +0.000 C 
ATOM      3  N   UNL     1       1.769   8.140  21.486  0.00  0.00    +0.000 N 
ATOM      4  C   UNL     1       1.739   7.790  20.186  0.00  0.00    +0.000 C 
ATOM      5  N   UNL     1       1.293   8.695  19.365  0.00  0.00    +0.000 NA
ATOM      6  C   UNL     1       0.872   9.853  20.236  0.00  0.00    +0.000 C 
ATOM      7  C   UNL     1      -0.630  10.079  20.093  0.00  0.00    +0.000 C 
ATOM      8  C   UNL     1      -1.104  11.289  20.901  0.00  0.00    +0.000 C 
ATOM      9  N   UNL     1      -0.328  12.522  20.562  0.00  0.00    +0.000 NA
ATOM     10  C   UNL     1       1.158  12.316  20.640  0.00  0.00    +0.000 C 
ATOM     11  C   UNL     1       1.625  11.111  19.832  0.00  0.00    +0.000 C 
ATOM     12  H   UNL     1       2.065   7.578  22.269  0.00  0.00    +0.000 HD
ENDROOT
BRANCH   4  13
ATOM     13  C   UNL     1       2.237   6.454  19.781  0.00  0.00    +0.000 A 
ATOM     14  C   UNL     1       1.874   5.362  20.585  0.00  0.00    +0.000 A 
ATOM     15  C   UNL     1       2.284   4.066  20.251  0.00  0.00    +0.000 A 
ATOM     16  C   UNL     1       3.065   3.857  19.117  0.00  0.00    +0.000 A 
ATOM     17 CL   UNL     1       3.570   2.266  18.703  0.00  0.00    +0.000 Cl
ATOM     18  C   UNL     1       3.446   4.928  18.317  0.00  0.00    +0.000 A 
ATOM     19  C   UNL     1       3.037   6.227  18.646  0.00  0.00    +0.000 A 
ATOM     20 CL   UNL     1       3.609   7.488  17.609  0.00  0.00    +0.000 Cl
ENDBRANCH   4  13
BRANCH   9  21
ATOM     21  S   UNL     1      -0.761  13.899  21.533  0.00  0.00    +0.000 S 
ATOM     22  O   UNL     1      -0.027  13.802  22.777  0.00  0.00    +0.000 OA
ATOM     23  O   UNL     1      -0.655  15.079  20.700  0.00  0.00    +0.000 OA
BRANCH  21  24
ATOM     24  C   UNL     1      -2.487  13.703  21.902  0.00  0.00    +0.000 A 
ATOM     25  C   UNL     1      -3.438  13.849  20.884  0.00  0.00    +0.000 A 
ATOM     26  C   UNL     1      -4.773  13.519  21.130  0.00  0.00    +0.000 A 
ATOM     27  C   UNL     1      -5.149  13.040  22.386  0.00  0.00    +0.000 A 
ATOM     28  C   UNL     1      -4.192  12.893  23.393  0.00  0.00    +0.000 A 
ATOM     29 CL   UNL     1      -4.662  12.261  24.923  0.00  0.00    +0.000 Cl
ATOM     30  C   UNL     1      -2.858  13.222  23.160  0.00  0.00    +0.000 A 
ENDBRANCH  21  24
ENDBRANCH   9  21
TORSDOF 3
ENDMDL
MODEL 2
REMARK VINA RESULT:      -7.9      2.256      2.835
REMARK  Name = 
REMARK  3 active torsions:
REMARK  status: ('A' for Active; 'I' for Inactive)
REMARK    1  A    between atoms: C_4  and  C_5
REMARK    2  A    between atoms: N_17  and  S_18
REMARK    3  A    between atoms: S_18  and  C_21
REMARK                            x       y       z     vdW  Elec       q    Type
REMARK                         _______ _______ _______ _____ _____    ______ ____
ROOT
ATOM      1  O   UNL     1       0.880   9.021  20.879  0.00  0.00    +0.000 OA
ATOM      2  C   UNL     1       1.365   8.817  19.783  0.00  0.00    +0.000 C 
ATOM      3  N   UNL     1       2.194   7.795  19.478  0.00  0.00    +0.000 N 
ATOM      4  C   UNL     1       2.509   7.842  18.169  0.00  0.00    +0.000 C 
ATOM      5  N   UNL     1       2.025   8.851  17.506  0.00  0.00    +0.000 NA
ATOM      6  C   UNL     1       1.167   9.604  18.491  0.00  0.00    +0.000 C 
ATOM      7  C   UNL     1      -0.286   9.582  18.025  0.00  0.00    +0.000 C 
ATOM      8  C   UNL     1      -1.194  10.395  18.952  0.00  0.00    +0.000 C 
ATOM      9  N   UNL     1      -0.695  11.793  19.133  0.00  0.00    +0.000 NA
ATOM     10  C   UNL     1       0.750  11.849  19.540  0.00  0.00    +0.000 C 
ATOM     11  C   UNL     1       1.650  11.041  18.612  0.00  0.00    +0.000 C 
ATOM     12  H   UNL     1       2.459   7.093  20.151  0.00  0.00    +0.000 HD
ENDROOT
BRANCH   4  13
ATOM     13  C   UNL     1       3.392   6.798  17.596  0.00  0.00    +0.000 A 
ATOM     14  C   UNL     1       4.517   7.231  16.879  0.00  0.00    +0.000 A 
ATOM     15  C   UNL     1       5.412   6.303  16.332  0.00  0.00    +0.000 A 
ATOM     16  C   UNL     1       5.179   4.939  16.492  0.00  0.00    +0.000 A 
ATOM     17 CL   UNL     1       6.276   3.797  15.822  0.00  0.00    +0.000 Cl
ATOM     18  C   UNL     1       4.061   4.492  17.187  0.00  0.00    +0.000 A 
ATOM     19  C   UNL     1       3.164   5.417  17.738  0.00  0.00    +0.000 A 
ATOM     20 CL   UNL     1       1.783   4.749  18.538  0.00  0.00    +0.000 Cl
ENDBRANCH   4  13
BRANCH   9  21
ATOM     21  S   UNL     1      -1.639  12.720  20.263  0.00  0.00    +0.000 S 
ATOM     22  O   UNL     1      -1.450  12.132  21.573  0.00  0.00    +0.000 OA
ATOM     23  O   UNL     1      -1.352  14.121  20.033  0.00  0.00    +0.000 OA
BRANCH  21  24
ATOM     24  C   UNL     1      -3.333  12.474  19.793  0.00  0.00    +0.000 A 
ATOM     25  C   UNL     1      -3.635  11.931  18.537  0.00  0.00    +0.000 A 
ATOM     26  C   UNL     1      -4.950  11.569  18.238  0.00  0.00    +0.000 A 
ATOM     27  C   UNL     1      -5.953  11.743  19.193  0.00  0.00    +0.000 A 
ATOM     28  C   UNL     1      -5.640  12.280  20.444  0.00  0.00    +0.000 A 
ATOM     29 CL   UNL     1      -6.878  12.449  21.627  0.00  0.00    +0.000 Cl
ATOM     30  C   UNL     1      -4.332  12.648  20.753  0.00  0.00    +0.000 A 
ENDBRANCH  21  24
ENDBRANCH   9  21
TORSDOF 3
ENDMDL
MODEL 3
REMARK VINA RESULT:      -7.8      2.453      3.051
REMARK  Name = 
REMARK  3 active torsions:
REMARK  status: ('A' for Active; 'I' for Inactive)
REMARK    1  A    between atoms: C_4  and  C_5
REMARK    2  A    between atoms: N_17  and  S_18
REMARK    3  A    between atoms: S_18  and  C_21
REMARK                            x       y       z     vdW  Elec       q    Type
REMARK                         _______ _______ _______ _____ _____    ______ ____
ROOT
ATOM      1  O   UNL     1       1.055   9.055  20.937  0.00  0.00    +0.000 OA
ATOM      2  C   UNL     1       1.490   8.826  19.825  0.00  0.00    +0.000 C 
ATOM      3  N   UNL     1       2.262   7.769  19.495  0.00  0.00    +0.000 N 
ATOM      4  C   UNL     1       2.532   7.798  18.175  0.00  0.00    +0.000 C 
ATOM      5  N   UNL     1       2.068   8.825  17.526  0.00  0.00    +0.000 NA
ATOM      6  C   UNL     1       1.280   9.618  18.538  0.00  0.00    +0.000 C 
ATOM      7  C   UNL     1      -0.188   9.659  18.125  0.00  0.00    +0.000 C 
ATOM      8  C   UNL     1      -1.025  10.513  19.080  0.00  0.00    +0.000 C 
ATOM      9  N   UNL     1      -0.459  11.889  19.237  0.00  0.00    +0.000 NA
ATOM     10  C   UNL     1       1.001  11.882  19.591  0.00  0.00    +0.000 C 
ATOM     11  C   UNL     1       1.830  11.033  18.636  0.00  0.00    +0.000 C 
ATOM     12  H   UNL     1       2.520   7.057  20.161  0.00  0.00    +0.000 HD
ENDROOT
BRANCH   4  13
ATOM     13  C   UNL     1       3.346   6.715  17.575  0.00  0.00    +0.000 A 
ATOM     14  C   UNL     1       4.464   7.095  16.818  0.00  0.00    +0.000 A 
ATOM     15  C   UNL     1       5.297   6.128  16.243  0.00  0.00    +0.000 A 
ATOM     16  C   UNL     1       5.009   4.776  16.416  0.00  0.00    +0.000 A 
ATOM     17 CL   UNL     1       6.030   3.585  15.712  0.00  0.00    +0.000 Cl
ATOM     18  C   UNL     1       3.897   4.380  17.151  0.00  0.00    +0.000 A 
ATOM     19  C   UNL     1       3.063   5.345  17.730  0.00  0.00    +0.000 A 
ATOM     20 CL   UNL     1       1.682   4.741  18.580  0.00  0.00    +0.000 Cl
ENDBRANCH   4  13
BRANCH   9  21
ATOM     21  S   UNL     1      -1.320  12.859  20.397  0.00  0.00    +0.000 S 
ATOM     22  O   UNL     1      -0.928  12.410  21.716  0.00  0.00    +0.000 OA
ATOM     23  O   UNL     1      -1.167  14.247  20.011  0.00  0.00    +0.000 OA
BRANCH  21  24
ATOM     24  C   UNL     1      -3.037  12.467  20.174  0.00  0.00    +0.000 A 
ATOM     25  C   UNL     1      -3.942  12.680  21.222  0.00  0.00    +0.000 A 
ATOM     26  C   UNL     1      -5.313  12.546  20.992  0.00  0.00    +0.000 A 
ATOM     27  C   UNL     1      -5.773  12.206  19.718  0.00  0.00    +0.000 A 
ATOM     28  C   UNL     1      -4.863  12.001  18.679  0.00  0.00    +0.000 A 
ATOM     29 CL   UNL     1      -5.446  11.625  17.104  0.00  0.00    +0.000 Cl
ATOM     30  C   UNL     1      -3.492  12.130  18.898  0.00  0.00    +0.000 A 
ENDBRANCH  21  24
ENDBRANCH   9  21
TORSDOF 3
ENDMDL
MODEL 4
REMARK VINA RESULT:      -7.8      1.248      1.658
REMARK  Name = 
REMARK  3 active torsions:
REMARK  status: ('A' for Active; 'I' for Inactive)
REMARK    1  A    between atoms: C_4  and  C_5
REMARK    2  A    between atoms: N_17  and  S_18
REMARK    3  A    between atoms: S_18  and  C_21
REMARK                            x       y       z     vdW  Elec       q    Type
REMARK                         _______ _______ _______ _____ _____    ______ ____
ROOT
ATOM      1  O   UNL     1       0.969   9.587  22.466  0.00  0.00    +0.000 OA
ATOM      2  C   UNL     1       1.201   9.282  21.313  0.00  0.00    +0.000 C 
ATOM      3  N   UNL     1       1.871   8.177  20.920  0.00  0.00    +0.000 N 
ATOM      4  C   UNL     1       1.912   8.125  19.575  0.00  0.00    +0.000 C 
ATOM      5  N   UNL     1       1.377   9.134  18.953  0.00  0.00    +0.000 NA
ATOM      6  C   UNL     1       0.799  10.012  20.035  0.00  0.00    +0.000 C 
ATOM      7  C   UNL     1      -0.716  10.092  19.873  0.00  0.00    +0.000 C 
ATOM      8  C   UNL     1      -1.350  11.029  20.903  0.00  0.00    +0.000 C 
ATOM      9  N   UNL     1      -0.723  12.387  20.881  0.00  0.00    +0.000 NA
ATOM     10  C   UNL     1       0.775  12.339  20.983  0.00  0.00    +0.000 C 
ATOM     11  C   UNL     1       1.402  11.406  19.954  0.00  0.00    +0.000 C 
ATOM     12  H   UNL     1       2.216   7.491  21.574  0.00  0.00    +0.000 HD
ENDROOT
BRANCH   4  13
ATOM     13  C   UNL     1       2.577   6.979  18.911  0.00  0.00    +0.000 A 
ATOM     14  C   UNL     1       3.420   7.264  17.827  0.00  0.00    +0.000 A 
ATOM     15  C   UNL     1       4.105   6.236  17.168  0.00  0.00    +0.000 A 
ATOM     16  C   UNL     1       3.941   4.918  17.585  0.00  0.00    +0.000 A 
ATOM     17 CL   UNL     1       4.781   3.652  16.778  0.00  0.00    +0.000 Cl
ATOM     18  C   UNL     1       3.099   4.614  18.649  0.00  0.00    +0.000 A 
ATOM     19  C   UNL     1       2.414   5.640  19.313  0.00  0.00    +0.000 A 
ATOM     20 CL   UNL     1       1.356   5.143  20.588  0.00  0.00    +0.000 Cl
ENDBRANCH   4  13
BRANCH   9  21
ATOM     21  S   UNL     1      -1.342  13.452  22.109  0.00  0.00    +0.000 S 
ATOM     22  O   UNL     1      -1.030  12.863  23.394  0.00  0.00    +0.000 OA
ATOM     23  O   UNL     1      -0.908  14.797  21.787  0.00  0.00    +0.000 OA
BRANCH  21  24
ATOM     24  C   UNL     1      -3.106  13.437  21.915  0.00  0.00    +0.000 A 
ATOM     25  C   UNL     1      -3.667  13.513  20.634  0.00  0.00    +0.000 A 
ATOM     26  C   UNL     1      -5.040  13.319  20.466  0.00  0.00    +0.000 A 
ATOM     27  C   UNL     1      -5.843  13.044  21.575  0.00  0.00    +0.000 A 
ATOM     28  C   UNL     1      -5.273  12.966  22.847  0.00  0.00    +0.000 A 
ATOM     29 CL   UNL     1      -6.267  12.584  24.199  0.00  0.00    +0.000 Cl
ATOM     30  C   UNL     1      -3.905  13.160  23.027  0.00  0.00    +0.000 A 
ENDBRANCH  21  24
ENDBRANCH   9  21
TORSDOF 3
ENDMDL
MODEL 5
REMARK VINA RESULT:      -7.8      1.508      2.047
REMARK  Name = 
REMARK  3 active torsions:
REMARK  status: ('A' for Active; 'I' for Inactive)
REMARK    1  A    between atoms: C_4  and  C_5
REMARK    2  A    between atoms: N_17  and  S_18
REMARK    3  A    between atoms: S_18  and  C_21
REMARK                            x       y       z     vdW  Elec       q    Type
REMARK                         _______ _______ _______ _____ _____    ______ ____
ROOT
ATOM      1  O   UNL     1       1.074   9.720  22.545  0.00  0.00    +0.000 OA
ATOM      2  C   UNL     1       1.252   9.392  21.389  0.00  0.00    +0.000 C 
ATOM      3  N   UNL     1       1.904   8.279  20.988  0.00  0.00    +0.000 N 
ATOM      4  C   UNL     1       1.882   8.200  19.643  0.00  0.00    +0.000 C 
ATOM      5  N   UNL     1       1.318   9.196  19.027  0.00  0.00    +0.000 NA
ATOM      6  C   UNL     1       0.790  10.095  20.116  0.00  0.00    +0.000 C 
ATOM      7  C   UNL     1      -0.731  10.171  20.024  0.00  0.00    +0.000 C 
ATOM      8  C   UNL     1      -1.318  11.129  21.064  0.00  0.00    +0.000 C 
ATOM      9  N   UNL     1      -0.694  12.486  20.984  0.00  0.00    +0.000 NA
ATOM     10  C   UNL     1       0.807  12.441  21.018  0.00  0.00    +0.000 C 
ATOM     11  C   UNL     1       1.386  11.488  19.979  0.00  0.00    +0.000 C 
ATOM     12  H   UNL     1       2.281   7.607  21.639  0.00  0.00    +0.000 HD
ENDROOT
BRANCH   4  13
ATOM     13  C   UNL     1       2.518   7.041  18.973  0.00  0.00    +0.000 A 
ATOM     14  C   UNL     1       3.371   7.311  17.893  0.00  0.00    +0.000 A 
ATOM     15  C   UNL     1       4.029   6.269  17.228  0.00  0.00    +0.000 A 
ATOM     16  C   UNL     1       3.828   4.952  17.634  0.00  0.00    +0.000 A 
ATOM     17 CL   UNL     1       4.635   3.670  16.820  0.00  0.00    +0.000 Cl
ATOM     18  C   UNL     1       2.974   4.664  18.694  0.00  0.00    +0.000 A 
ATOM     19  C   UNL     1       2.316   5.704  19.364  0.00  0.00    +0.000 A 
ATOM     20 CL   UNL     1       1.241   5.227  20.632  0.00  0.00    +0.000 Cl
ENDBRANCH   4  13
BRANCH   9  21
ATOM     21  S   UNL     1      -1.257  13.576  22.218  0.00  0.00    +0.000 S 
ATOM     22  O   UNL     1      -0.532  13.269  23.433  0.00  0.00    +0.000 OA
ATOM     23  O   UNL     1      -1.241  14.915  21.665  0.00  0.00    +0.000 OA
BRANCH  21  24
ATOM     24  C   UNL     1      -2.964  13.165  22.483  0.00  0.00    +0.000 A 
ATOM     25  C   UNL     1      -3.395  12.770  23.755  0.00  0.00    +0.000 A 
ATOM     26  C   UNL     1      -4.761  12.624  24.008  0.00  0.00    +0.000 A 
ATOM     27  C   UNL     1      -5.687  12.879  22.995  0.00  0.00    +0.000 A 
ATOM     28  C   UNL     1      -5.246  13.277  21.731  0.00  0.00    +0.000 A 
ATOM     29 CL   UNL     1      -6.399  13.630  20.503  0.00  0.00    +0.000 Cl
ATOM     30  C   UNL     1      -3.885  13.424  21.466  0.00  0.00    +0.000 A 
ENDBRANCH  21  24
ENDBRANCH   9  21
TORSDOF 3
ENDMDL
MODEL 6
REMARK VINA RESULT:      -7.7      0.921      1.286
REMARK  Name = 
REMARK  3 active torsions:
REMARK  status: ('A' for Active; 'I' for Inactive)
REMARK    1  A    between atoms: C_4  and  C_5
REMARK    2  A    between atoms: N_17  and  S_18
REMARK    3  A    between atoms: S_18  and  C_21
REMARK                            x       y       z     vdW  Elec       q    Type
REMARK                         _______ _______ _______ _____ _____    ______ ____
ROOT
ATOM      1  O   UNL     1       0.761  10.014  22.768  0.00  0.00    +0.000 OA
ATOM      2  C   UNL     1       1.006   9.496  21.696  0.00  0.00    +0.000 C 
ATOM      3  N   UNL     1       1.558   8.275  21.531  0.00  0.00    +0.000 N 
ATOM      4  C   UNL     1       1.652   7.993  20.217  0.00  0.00    +0.000 C 
ATOM      5  N   UNL     1       1.267   8.936  19.408  0.00  0.00    +0.000 NA
ATOM      6  C   UNL     1       0.750  10.040  20.294  0.00  0.00    +0.000 C 
ATOM      7  C   UNL     1      -0.737  10.256  20.027  0.00  0.00    +0.000 C 
ATOM      8  C   UNL     1      -1.301  11.416  20.850  0.00  0.00    +0.000 C 
ATOM      9  N   UNL     1      -0.518  12.675  20.648  0.00  0.00    +0.000 NA
ATOM     10  C   UNL     1       0.958  12.482  20.850  0.00  0.00    +0.000 C 
ATOM     11  C   UNL     1       1.516  11.327  20.027  0.00  0.00    +0.000 C 
ATOM     12  H   UNL     1       1.791   7.676  22.308  0.00  0.00    +0.000 HD
ENDROOT
BRANCH   4  13
ATOM     13  C   UNL     1       2.206   6.686  19.791  0.00  0.00    +0.000 A 
ATOM     14  C   UNL     1       1.926   5.575  20.600  0.00  0.00    +0.000 A 
ATOM     15  C   UNL     1       2.392   4.303  20.247  0.00  0.00    +0.000 A 
ATOM     16  C   UNL     1       3.148   4.139  19.089  0.00  0.00    +0.000 A 
ATOM     17 CL   UNL     1       3.722   2.578  18.653  0.00  0.00    +0.000 Cl
ATOM     18  C   UNL     1       3.448   5.231  18.283  0.00  0.00    +0.000 A 
ATOM     19  C   UNL     1       2.981   6.506  18.631  0.00  0.00    +0.000 A 
ATOM     20 CL   UNL     1       3.455   7.799  17.583  0.00  0.00    +0.000 Cl
ENDBRANCH   4  13
BRANCH   9  21
ATOM     21  S   UNL     1      -1.061  13.992  21.645  0.00  0.00    +0.000 S 
ATOM     22  O   UNL     1      -0.131  14.114  22.749  0.00  0.00    +0.000 OA
ATOM     23  O   UNL     1      -1.332  15.121  20.778  0.00  0.00    +0.000 OA
BRANCH  21  24
ATOM     24  C   UNL     1      -2.628  13.483  22.306  0.00  0.00    +0.000 A 
ATOM     25  C   UNL     1      -2.690  12.888  23.573  0.00  0.00    +0.000 A 
ATOM     26  C   UNL     1      -3.931  12.655  24.168  0.00  0.00    +0.000 A 
ATOM     27  C   UNL     1      -5.101  13.022  23.501  0.00  0.00    +0.000 A 
ATOM     28  C   UNL     1      -5.029  13.619  22.241  0.00  0.00    +0.000 A 
ATOM     29 CL   UNL     1      -6.476  14.105  21.449  0.00  0.00    +0.000 Cl
ATOM     30  C   UNL     1      -3.795  13.854  21.635  0.00  0.00    +0.000 A 
ENDBRANCH  21  24
ENDBRANCH   9  21
TORSDOF 3
ENDMDL
MODEL 7
REMARK VINA RESULT:      -7.7      3.148      3.941
REMARK  Name = 
REMARK  3 active torsions:
REMARK  status: ('A' for Active; 'I' for Inactive)
REMARK    1  A    between atoms: C_4  and  C_5
REMARK    2  A    between atoms: N_17  and  S_18
REMARK    3  A    between atoms: S_18  and  C_21
REMARK                            x       y       z     vdW  Elec       q    Type
REMARK                         _______ _______ _______ _____ _____    ______ ____
ROOT
ATOM      1  O   UNL     1       0.926   8.880  20.915  0.00  0.00    +0.000 OA
ATOM      2  C   UNL     1       1.427   8.705  19.821  0.00  0.00    +0.000 C 
ATOM      3  N   UNL     1       2.211   7.659  19.483  0.00  0.00    +0.000 N 
ATOM      4  C   UNL     1       2.561   7.754  18.186  0.00  0.00    +0.000 C 
ATOM      5  N   UNL     1       2.144   8.818  17.564  0.00  0.00    +0.000 NA
ATOM      6  C   UNL     1       1.301   9.564  18.567  0.00  0.00    +0.000 C 
ATOM      7  C   UNL     1      -0.139   9.640  18.068  0.00  0.00    +0.000 C 
ATOM      8  C   UNL     1      -1.028  10.451  19.014  0.00  0.00    +0.000 C 
ATOM      9  N   UNL     1      -0.465  11.811  19.277  0.00  0.00    +0.000 NA
ATOM     10  C   UNL     1       0.971  11.773  19.718  0.00  0.00    +0.000 C 
ATOM     11  C   UNL     1       1.852  10.967  18.771  0.00  0.00    +0.000 C 
ATOM     12  H   UNL     1       2.424   6.911  20.126  0.00  0.00    +0.000 HD
ENDROOT
BRANCH   4  13
ATOM     13  C   UNL     1       3.404   6.696  17.580  0.00  0.00    +0.000 A 
ATOM     14  C   UNL     1       4.524   7.110  16.844  0.00  0.00    +0.000 A 
ATOM     15  C   UNL     1       5.384   6.167  16.267  0.00  0.00    +0.000 A 
ATOM     16  C   UNL     1       5.120   4.807  16.414  0.00  0.00    +0.000 A 
ATOM     17 CL   UNL     1       6.173   3.647  15.707  0.00  0.00    +0.000 Cl
ATOM     18  C   UNL     1       4.006   4.379  17.129  0.00  0.00    +0.000 A 
ATOM     19  C   UNL     1       3.145   5.319  17.711  0.00  0.00    +0.000 A 
ATOM     20 CL   UNL     1       1.766   4.676  18.533  0.00  0.00    +0.000 Cl
ENDBRANCH   4  13
BRANCH   9  21
ATOM     21  S   UNL     1      -1.389  12.728  20.431  0.00  0.00    +0.000 S 
ATOM     22  O   UNL     1      -2.736  12.847  19.914  0.00  0.00    +0.000 OA
ATOM     23  O   UNL     1      -1.146  12.162  21.742  0.00  0.00    +0.000 OA
BRANCH  21  24
ATOM     24  C   UNL     1      -0.666  14.350  20.447  0.00  0.00    +0.000 A 
ATOM     25  C   UNL     1       0.096  14.762  21.548  0.00  0.00    +0.000 A 
ATOM     26  C   UNL     1       0.812  15.959  21.485  0.00  0.00    +0.000 A 
ATOM     27  C   UNL     1       0.770  16.734  20.325  0.00  0.00    +0.000 A 
ATOM     28  C   UNL     1       0.011  16.312  19.231  0.00  0.00    +0.000 A 
ATOM     29 CL   UNL     1       0.001  17.255  17.792  0.00  0.00    +0.000 Cl
ATOM     30  C   UNL     1      -0.710  15.120  19.283  0.00  0.00    +0.000 A 
ENDBRANCH  21  24
ENDBRANCH   9  21
TORSDOF 3
ENDMDL
MODEL 8
REMARK VINA RESULT:      -7.7      2.871      3.602
REMARK  Name = 
REMARK  3 active torsions:
REMARK  status: ('A' for Active; 'I' for Inactive)
REMARK    1  A    between atoms: C_4  and  C_5
REMARK    2  A    between atoms: N_17  and  S_18
REMARK    3  A    between atoms: S_18  and  C_21
REMARK                            x       y       z     vdW  Elec       q    Type
REMARK                         _______ _______ _______ _____ _____    ______ ____
ROOT
ATOM      1  O   UNL     1       0.926   8.984  20.858  0.00  0.00    +0.000 OA
ATOM      2  C   UNL     1       1.424   8.782  19.767  0.00  0.00    +0.000 C 
ATOM      3  N   UNL     1       2.197   7.721  19.450  0.00  0.00    +0.000 N 
ATOM      4  C   UNL     1       2.546   7.786  18.151  0.00  0.00    +0.000 C 
ATOM      5  N   UNL     1       2.139   8.841  17.508  0.00  0.00    +0.000 NA
ATOM      6  C   UNL     1       1.305   9.616  18.496  0.00  0.00    +0.000 C 
ATOM      7  C   UNL     1      -0.135   9.696  17.997  0.00  0.00    +0.000 C 
ATOM      8  C   UNL     1      -1.014  10.535  18.927  0.00  0.00    +0.000 C 
ATOM      9  N   UNL     1      -0.437  11.895  19.162  0.00  0.00    +0.000 NA
ATOM     10  C   UNL     1       0.999  11.852  19.602  0.00  0.00    +0.000 C 
ATOM     11  C   UNL     1       1.871  11.017  18.671  0.00  0.00    +0.000 C 
ATOM     12  H   UNL     1       2.403   6.984  20.107  0.00  0.00    +0.000 HD
ENDROOT
BRANCH   4  13
ATOM     13  C   UNL     1       3.378   6.707  17.566  0.00  0.00    +0.000 A 
ATOM     14  C   UNL     1       4.511   7.094  16.836  0.00  0.00    +0.000 A 
ATOM     15  C   UNL     1       5.361   6.130  16.278  0.00  0.00    +0.000 A 
ATOM     16  C   UNL     1       5.074   4.777  16.439  0.00  0.00    +0.000 A 
ATOM     17 CL   UNL     1       6.114   3.591  15.755  0.00  0.00    +0.000 Cl
ATOM     18  C   UNL     1       3.947   4.376  17.148  0.00  0.00    +0.000 A 
ATOM     19  C   UNL     1       3.096   5.336  17.710  0.00  0.00    +0.000 A 
ATOM     20 CL   UNL     1       1.698   4.725  18.527  0.00  0.00    +0.000 Cl
ENDBRANCH   4  13
BRANCH   9  21
ATOM     21  S   UNL     1      -1.350  12.845  20.297  0.00  0.00    +0.000 S 
ATOM     22  O   UNL     1      -2.743  12.763  19.912  0.00  0.00    +0.000 OA
ATOM     23  O   UNL     1      -0.927  12.466  21.631  0.00  0.00    +0.000 OA
BRANCH  21  24
ATOM     24  C   UNL     1      -0.816  14.522  20.063  0.00  0.00    +0.000 A 
ATOM     25  C   UNL     1      -0.441  14.961  18.786  0.00  0.00    +0.000 A 
ATOM     26  C   UNL     1      -0.197  16.319  18.565  0.00  0.00    +0.000 A 
ATOM     27  C   UNL     1      -0.335  17.229  19.615  0.00  0.00    +0.000 A 
ATOM     28  C   UNL     1      -0.714  16.781  20.882  0.00  0.00    +0.000 A 
ATOM     29 CL   UNL     1      -0.921  17.919  22.156  0.00  0.00    +0.000 Cl
ATOM     30  C   UNL     1      -0.957  15.428  21.115  0.00  0.00    +0.000 A 
ENDBRANCH  21  24
ENDBRANCH   9  21
TORSDOF 3
ENDMDL
MODEL 9
REMARK VINA RESULT:      -7.6      5.243     10.767
REMARK  Name = 
REMARK  3 active torsions:
REMARK  status: ('A' for Active; 'I' for Inactive)
REMARK    1  A    between atoms: C_4  and  C_5
REMARK    2  A    between atoms: N_17  and  S_18
REMARK    3  A    between atoms: S_18  and  C_21
REMARK                            x       y       z     vdW  Elec       q    Type
REMARK                         _______ _______ _______ _____ _____    ______ ____
ROOT
ATOM      1  O   UNL     1       4.115   5.487  20.138  0.00  0.00    +0.000 OA
ATOM      2  C   UNL     1       3.312   6.336  19.805  0.00  0.00    +0.000 C 
ATOM      3  N   UNL     1       2.525   7.036  20.650  0.00  0.00    +0.000 N 
ATOM      4  C   UNL     1       1.787   7.922  19.954  0.00  0.00    +0.000 C 
ATOM      5  N   UNL     1       1.927   7.884  18.662  0.00  0.00    +0.000 NA
ATOM      6  C   UNL     1       2.994   6.849  18.404  0.00  0.00    +0.000 C 
ATOM      7  C   UNL     1       4.201   7.512  17.749  0.00  0.00    +0.000 C 
ATOM      8  C   UNL     1       5.290   6.495  17.398  0.00  0.00    +0.000 C 
ATOM      9  N   UNL     1       4.756   5.376  16.561  0.00  0.00    +0.000 NA
ATOM     10  C   UNL     1       3.532   4.737  17.153  0.00  0.00    +0.000 C 
ATOM     11  C   UNL     1       2.450   5.754  17.499  0.00  0.00    +0.000 C 
ATOM     12  H   UNL     1       2.566   6.919  21.651  0.00  0.00    +0.000 HD
ENDROOT
BRANCH   4  13
ATOM     13  C   UNL     1       0.862   8.826  20.678  0.00  0.00    +0.000 A 
ATOM     14  C   UNL     1       0.582   8.519  22.018  0.00  0.00    +0.000 A 
ATOM     15  C   UNL     1      -0.261   9.343  22.776  0.00  0.00    +0.000 A 
ATOM     16  C   UNL     1      -0.834  10.470  22.192  0.00  0.00    +0.000 A 
ATOM     17 CL   UNL     1      -1.869  11.483  23.119  0.00  0.00    +0.000 Cl
ATOM     18  C   UNL     1      -0.579  10.781  20.861  0.00  0.00    +0.000 A 
ATOM     19  C   UNL     1       0.265   9.962  20.101  0.00  0.00    +0.000 A 
ATOM     20 CL   UNL     1       0.472  10.416  18.444  0.00  0.00    +0.000 Cl
ENDBRANCH   4  13
BRANCH   9  21
ATOM     21  S   UNL     1       5.935   4.141  16.228  0.00  0.00    +0.000 S 
ATOM     22  O   UNL     1       7.145   4.491  16.943  0.00  0.00    +0.000 OA
ATOM     23  O   UNL     1       5.299   2.856  16.434  0.00  0.00    +0.000 OA
BRANCH  21  24
ATOM     24  C   UNL     1       6.276   4.257  14.489  0.00  0.00    +0.000 A 
ATOM     25  C   UNL     1       7.306   5.090  14.036  0.00  0.00    +0.000 A 
ATOM     26  C   UNL     1       7.694   5.044  12.694  0.00  0.00    +0.000 A 
ATOM     27  C   UNL     1       7.058   4.164  11.817  0.00  0.00    +0.000 A 
ATOM     28  C   UNL     1       6.035   3.334  12.281  0.00  0.00    +0.000 A 
ATOM     29 CL   UNL     1       5.288   2.224  11.200  0.00  0.00    +0.000 Cl
ATOM     30  C   UNL     1       5.637   3.373  13.617  0.00  0.00    +0.000 A 
ENDBRANCH  21  24
ENDBRANCH   9  21
TORSDOF 3
ENDMDL
