MODEL 1
REMARK VINA RESULT:      -6.2      0.000      0.000
REMARK  Name = 
REMARK  5 active torsions:
REMARK  status: ('A' for Active; 'I' for Inactive)
REMARK    1  A    between atoms: C_1  and  C_2
REMARK    2  A    between atoms: C_2  and  C_4
REMARK    3  A    between atoms: N_15  and  C_16
REMARK    4  A    between atoms: C_16  and  C_17
REMARK    5  A    between atoms: C_23  and  C_24
REMARK                            x       y       z     vdW  Elec       q    Type
REMARK                         _______ _______ _______ _____ _____    ______ ____
ROOT
ATOM      1  C   UNL     1      -4.008  11.712  18.839  0.00  0.00    +0.000 A 
ATOM      2  C   UNL     1      -4.013  12.698  19.983  0.00  0.00    +0.000 A 
ATOM      3  N   UNL     1      -5.200  13.158  20.521  0.00  0.00    +0.000 N 
ATOM      4  C   UNL     1      -6.120  12.332  21.299  0.00  0.00    +0.000 C 
ATOM      5  C   UNL     1      -7.567  12.601  20.852  0.00  0.00    +0.000 C 
ATOM      6  O   UNL     1      -7.891  14.003  20.890  0.00  0.00    +0.000 OA
ATOM      7  C   UNL     1      -6.973  14.762  20.078  0.00  0.00    +0.000 C 
ATOM      8  C   UNL     1      -5.525  14.585  20.564  0.00  0.00    +0.000 C 
ATOM      9  N   UNL     1      -2.923  13.143  20.526  0.00  0.00    +0.000 NA
ATOM     10  C   UNL     1      -1.690  12.735  20.093  0.00  0.00    +0.000 A 
ATOM     11  S   UNL     1      -0.339  13.455  20.827  0.00  0.00    +0.000 S 
ATOM     12  N   UNL     1      -1.626  11.733  19.094  0.00  0.00    +0.000 N 
ATOM     13  C   UNL     1      -2.797  11.179  18.540  0.00  0.00    +0.000 A 
ATOM     14  C   UNL     1      -2.647   9.998  17.609  0.00  0.00    +0.000 C 
ENDROOT
BRANCH   1  16
ATOM     15  C   UNL     1      -5.800  12.546  17.048  0.00  0.00    +0.000 C 
ATOM     16  C   UNL     1      -5.287  11.539  18.038  0.00  0.00    +0.000 C 
ATOM     17  O   UNL     1      -6.030  10.578  18.263  0.00  0.00    +0.000 OA
ENDBRANCH   1  16
BRANCH  12  18
ATOM     18  C   UNL     1      -0.312  11.426  18.466  0.00  0.00    +0.000 C 
BRANCH  18  19
ATOM     19  C   UNL     1       0.387  10.169  18.947  0.00  0.00    +0.000 A 
ATOM     20  C   UNL     1       0.309   9.703  20.266  0.00  0.00    +0.000 A 
ATOM     21  C   UNL     1       1.089   8.621  20.680  0.00  0.00    +0.000 A 
ATOM     22  C   UNL     1       1.933   7.976  19.778  0.00  0.00    +0.000 A 
ATOM     23  C   UNL     1       1.970   8.387  18.449  0.00  0.00    +0.000 A 
ATOM     24  C   UNL     1       1.195   9.471  18.035  0.00  0.00    +0.000 A 
ENDBRANCH  18  19
ENDBRANCH  12  18
TORSDOF 3
ENDMDL
MODEL 2
REMARK VINA RESULT:      -6.0      1.838      2.970
REMARK  Name = 
REMARK  5 active torsions:
REMARK  status: ('A' for Active; 'I' for Inactive)
REMARK    1  A    between atoms: C_1  and  C_2
REMARK    2  A    between atoms: C_2  and  C_4
REMARK    3  A    between atoms: N_15  and  C_16
REMARK    4  A    between atoms: C_16  and  C_17
REMARK    5  A    between atoms: C_23  and  C_24
REMARK                            x       y       z     vdW  Elec       q    Type
REMARK                         _______ _______ _______ _____ _____    ______ ____
ROOT
ATOM      1  C   UNL     1      -2.991  12.960  20.416  0.00  0.00    +0.000 A 
ATOM      2  C   UNL     1      -4.036  12.328  19.529  0.00  0.00    +0.000 A 
ATOM      3  N   UNL     1      -5.382  12.569  19.733  0.00  0.00    +0.000 N 
ATOM      4  C   UNL     1      -6.028  13.856  19.488  0.00  0.00    +0.000 C 
ATOM      5  C   UNL     1      -6.984  14.189  20.647  0.00  0.00    +0.000 C 
ATOM      6  O   UNL     1      -7.917  13.123  20.899  0.00  0.00    +0.000 OA
ATOM      7  C   UNL     1      -7.222  11.888  21.169  0.00  0.00    +0.000 C 
ATOM      8  C   UNL     1      -6.331  11.482  19.983  0.00  0.00    +0.000 C 
ATOM      9  N   UNL     1      -3.734  11.554  18.535  0.00  0.00    +0.000 NA
ATOM     10  C   UNL     1      -2.432  11.266  18.222  0.00  0.00    +0.000 A 
ATOM     11  S   UNL     1      -2.168  10.172  16.951  0.00  0.00    +0.000 S 
ATOM     12  N   UNL     1      -1.407  11.915  18.953  0.00  0.00    +0.000 N 
ATOM     13  C   UNL     1      -1.710  12.818  19.991  0.00  0.00    +0.000 A 
ATOM     14  C   UNL     1      -0.569  13.596  20.605  0.00  0.00    +0.000 C 
ENDROOT
BRANCH   1  16
ATOM     15  C   UNL     1      -3.773  12.696  22.952  0.00  0.00    +0.000 C 
ATOM     16  C   UNL     1      -3.434  13.532  21.751  0.00  0.00    +0.000 C 
ATOM     17  O   UNL     1      -3.642  14.745  21.863  0.00  0.00    +0.000 OA
ENDBRANCH   1  16
BRANCH  12  18
ATOM     18  C   UNL     1       0.000  11.465  18.771  0.00  0.00    +0.000 C 
BRANCH  18  19
ATOM     19  C   UNL     1       0.392  10.178  19.471  0.00  0.00    +0.000 A 
ATOM     20  C   UNL     1      -0.077   9.821  20.743  0.00  0.00    +0.000 A 
ATOM     21  C   UNL     1       0.432   8.695  21.393  0.00  0.00    +0.000 A 
ATOM     22  C   UNL     1       1.391   7.898  20.772  0.00  0.00    +0.000 A 
ATOM     23  C   UNL     1       1.816   8.203  19.483  0.00  0.00    +0.000 A 
ATOM     24  C   UNL     1       1.313   9.331  18.834  0.00  0.00    +0.000 A 
ENDBRANCH  18  19
ENDBRANCH  12  18
TORSDOF 3
ENDMDL
MODEL 3
REMARK VINA RESULT:      -6.0      0.287      1.024
REMARK  Name = 
REMARK  5 active torsions:
REMARK  status: ('A' for Active; 'I' for Inactive)
REMARK    1  A    between atoms: C_1  and  C_2
REMARK    2  A    between atoms: C_2  and  C_4
REMARK    3  A    between atoms: N_15  and  C_16
REMARK    4  A    between atoms: C_16  and  C_17
REMARK    5  A    between atoms: C_23  and  C_24
REMARK                            x       y       z     vdW  Elec       q    Type
REMARK                         _______ _______ _______ _____ _____    ______ ____
ROOT
ATOM      1  C   UNL     1      -3.723  11.718  18.881  0.00  0.00    +0.000 A 
ATOM      2  C   UNL     1      -3.782  12.744  19.987  0.00  0.00    +0.000 A 
ATOM      3  N   UNL     1      -4.992  13.156  20.511  0.00  0.00    +0.000 N 
ATOM      4  C   UNL     1      -5.864  12.309  21.321  0.00  0.00    +0.000 C 
ATOM      5  C   UNL     1      -7.325  12.481  20.869  0.00  0.00    +0.000 C 
ATOM      6  O   UNL     1      -7.726  13.862  20.856  0.00  0.00    +0.000 OA
ATOM      7  C   UNL     1      -6.853  14.641  20.013  0.00  0.00    +0.000 C 
ATOM      8  C   UNL     1      -5.397  14.564  20.502  0.00  0.00    +0.000 C 
ATOM      9  N   UNL     1      -2.719  13.269  20.510  0.00  0.00    +0.000 NA
ATOM     10  C   UNL     1      -1.465  12.915  20.090  0.00  0.00    +0.000 A 
ATOM     11  S   UNL     1      -0.156  13.736  20.792  0.00  0.00    +0.000 S 
ATOM     12  N   UNL     1      -1.346  11.882  19.129  0.00  0.00    +0.000 N 
ATOM     13  C   UNL     1      -2.484  11.243  18.598  0.00  0.00    +0.000 A 
ATOM     14  C   UNL     1      -2.268  10.038  17.711  0.00  0.00    +0.000 C 
ENDROOT
BRANCH   1  16
ATOM     15  C   UNL     1      -5.531  12.358  17.026  0.00  0.00    +0.000 C 
ATOM     16  C   UNL     1      -4.991  11.444  18.090  0.00  0.00    +0.000 C 
ATOM     17  O   UNL     1      -5.703  10.477  18.382  0.00  0.00    +0.000 OA
ENDBRANCH   1  16
BRANCH  12  18
ATOM     18  C   UNL     1      -0.016  11.626  18.509  0.00  0.00    +0.000 C 
BRANCH  18  19
ATOM     19  C   UNL     1       0.712  10.379  18.970  0.00  0.00    +0.000 A 
ATOM     20  C   UNL     1       1.479   9.576  18.114  0.00  0.00    +0.000 A 
ATOM     21  C   UNL     1       2.007   8.364  18.567  0.00  0.00    +0.000 A 
ATOM     22  C   UNL     1       1.800   7.955  19.882  0.00  0.00    +0.000 A 
ATOM     23  C   UNL     1       1.097   8.774  20.760  0.00  0.00    +0.000 A 
ATOM     24  C   UNL     1       0.564   9.982  20.309  0.00  0.00    +0.000 A 
ENDBRANCH  18  19
ENDBRANCH  12  18
TORSDOF 3
ENDMDL
MODEL 4
REMARK VINA RESULT:      -6.0      4.430      6.943
REMARK  Name = 
REMARK  5 active torsions:
REMARK  status: ('A' for Active; 'I' for Inactive)
REMARK    1  A    between atoms: C_1  and  C_2
REMARK    2  A    between atoms: C_2  and  C_4
REMARK    3  A    between atoms: N_15  and  C_16
REMARK    4  A    between atoms: C_16  and  C_17
REMARK    5  A    between atoms: C_23  and  C_24
REMARK                            x       y       z     vdW  Elec       q    Type
REMARK                         _______ _______ _______ _____ _____    ______ ____
ROOT
ATOM      1  C   UNL     1       0.267  14.052  19.638  0.00  0.00    +0.000 A 
ATOM      2  C   UNL     1       1.643  13.715  19.115  0.00  0.00    +0.000 A 
ATOM      3  N   UNL     1       2.629  14.680  19.036  0.00  0.00    +0.000 N 
ATOM      4  C   UNL     1       3.278  15.283  20.198  0.00  0.00    +0.000 C 
ATOM      5  C   UNL     1       3.399  16.803  19.996  0.00  0.00    +0.000 C 
ATOM      6  O   UNL     1       4.042  17.132  18.752  0.00  0.00    +0.000 OA
ATOM      7  C   UNL     1       3.339  16.540  17.641  0.00  0.00    +0.000 C 
ATOM      8  C   UNL     1       3.287  15.009  17.770  0.00  0.00    +0.000 C 
ATOM      9  N   UNL     1       1.973  12.521  18.735  0.00  0.00    +0.000 NA
ATOM     10  C   UNL     1       1.085  11.480  18.794  0.00  0.00    +0.000 A 
ATOM     11  S   UNL     1       1.610   9.984  18.188  0.00  0.00    +0.000 S 
ATOM     12  N   UNL     1      -0.185  11.714  19.375  0.00  0.00    +0.000 N 
ATOM     13  C   UNL     1      -0.542  12.986  19.863  0.00  0.00    +0.000 A 
ATOM     14  C   UNL     1      -1.844  13.111  20.621  0.00  0.00    +0.000 C 
ENDROOT
BRANCH   1  16
ATOM     15  C   UNL     1      -0.220  16.307  20.977  0.00  0.00    +0.000 C 
ATOM     16  C   UNL     1      -0.137  15.514  19.703  0.00  0.00    +0.000 C 
ATOM     17  O   UNL     1      -0.528  16.091  18.683  0.00  0.00    +0.000 OA
ENDBRANCH   1  16
BRANCH  12  18
ATOM     18  C   UNL     1      -1.232  10.661  19.263  0.00  0.00    +0.000 C 
BRANCH  18  19
ATOM     19  C   UNL     1      -2.143  10.743  18.054  0.00  0.00    +0.000 A 
ATOM     20  C   UNL     1      -3.297  11.538  18.013  0.00  0.00    +0.000 A 
ATOM     21  C   UNL     1      -4.170  11.461  16.926  0.00  0.00    +0.000 A 
ATOM     22  C   UNL     1      -3.889  10.613  15.857  0.00  0.00    +0.000 A 
ATOM     23  C   UNL     1      -2.714   9.868  15.854  0.00  0.00    +0.000 A 
ATOM     24  C   UNL     1      -1.843   9.939  16.942  0.00  0.00    +0.000 A 
ENDBRANCH  18  19
ENDBRANCH  12  18
TORSDOF 3
ENDMDL
MODEL 5
REMARK VINA RESULT:      -6.0      5.122      8.913
REMARK  Name = 
REMARK  5 active torsions:
REMARK  status: ('A' for Active; 'I' for Inactive)
REMARK    1  A    between atoms: C_1  and  C_2
REMARK    2  A    between atoms: C_2  and  C_4
REMARK    3  A    between atoms: N_15  and  C_16
REMARK    4  A    between atoms: C_16  and  C_17
REMARK    5  A    between atoms: C_23  and  C_24
REMARK                            x       y       z     vdW  Elec       q    Type
REMARK                         _______ _______ _______ _____ _____    ______ ____
ROOT
ATOM      1  C   UNL     1       2.310   6.689  18.865  0.00  0.00    +0.000 A 
ATOM      2  C   UNL     1       1.918   6.154  20.221  0.00  0.00    +0.000 A 
ATOM      3  N   UNL     1       2.150   4.835  20.559  0.00  0.00    +0.000 N 
ATOM      4  C   UNL     1       3.479   4.269  20.780  0.00  0.00    +0.000 C 
ATOM      5  C   UNL     1       3.582   2.897  20.092  0.00  0.00    +0.000 C 
ATOM      6  O   UNL     1       2.516   2.015  20.487  0.00  0.00    +0.000 OA
ATOM      7  C   UNL     1       1.232   2.610  20.213  0.00  0.00    +0.000 C 
ATOM      8  C   UNL     1       1.065   3.940  20.967  0.00  0.00    +0.000 C 
ATOM      9  N   UNL     1       1.368   6.894  21.132  0.00  0.00    +0.000 NA
ATOM     10  C   UNL     1       1.115   8.223  20.918  0.00  0.00    +0.000 A 
ATOM     11  S   UNL     1       0.315   9.065  22.156  0.00  0.00    +0.000 S 
ATOM     12  N   UNL     1       1.558   8.803  19.704  0.00  0.00    +0.000 N 
ATOM     13  C   UNL     1       2.224   8.036  18.728  0.00  0.00    +0.000 A 
ATOM     14  C   UNL     1       2.815   8.763  17.542  0.00  0.00    +0.000 C 
ENDROOT
BRANCH   1  16
ATOM     15  C   UNL     1       1.604   4.668  17.274  0.00  0.00    +0.000 C 
ATOM     16  C   UNL     1       2.593   5.691  17.755  0.00  0.00    +0.000 C 
ATOM     17  O   UNL     1       3.727   5.616  17.269  0.00  0.00    +0.000 OA
ENDBRANCH   1  16
BRANCH  12  18
ATOM     18  C   UNL     1       1.115  10.184  19.364  0.00  0.00    +0.000 C 
BRANCH  18  19
ATOM     19  C   UNL     1      -0.286  10.322  18.801  0.00  0.00    +0.000 A 
ATOM     20  C   UNL     1      -0.728   9.635  17.662  0.00  0.00    +0.000 A 
ATOM     21  C   UNL     1      -1.981   9.913  17.112  0.00  0.00    +0.000 A 
ATOM     22  C   UNL     1      -2.816  10.857  17.705  0.00  0.00    +0.000 A 
ATOM     23  C   UNL     1      -2.417  11.498  18.874  0.00  0.00    +0.000 A 
ATOM     24  C   UNL     1      -1.163  11.226  19.423  0.00  0.00    +0.000 A 
ENDBRANCH  18  19
ENDBRANCH  12  18
TORSDOF 3
ENDMDL
MODEL 6
REMARK VINA RESULT:      -5.8      2.732      3.922
REMARK  Name = 
REMARK  5 active torsions:
REMARK  status: ('A' for Active; 'I' for Inactive)
REMARK    1  A    between atoms: C_1  and  C_2
REMARK    2  A    between atoms: C_2  and  C_4
REMARK    3  A    between atoms: N_15  and  C_16
REMARK    4  A    between atoms: C_16  and  C_17
REMARK    5  A    between atoms: C_23  and  C_24
REMARK                            x       y       z     vdW  Elec       q    Type
REMARK                         _______ _______ _______ _____ _____    ______ ____
ROOT
ATOM      1  C   UNL     1      -0.704  13.153  20.968  0.00  0.00    +0.000 A 
ATOM      2  C   UNL     1      -2.123  12.874  20.533  0.00  0.00    +0.000 A 
ATOM      3  N   UNL     1      -3.194  13.460  21.181  0.00  0.00    +0.000 N 
ATOM      4  C   UNL     1      -3.510  14.885  21.115  0.00  0.00    +0.000 C 
ATOM      5  C   UNL     1      -3.873  15.404  22.517  0.00  0.00    +0.000 C 
ATOM      6  O   UNL     1      -4.912  14.619  23.130  0.00  0.00    +0.000 OA
ATOM      7  C   UNL     1      -4.529  13.230  23.200  0.00  0.00    +0.000 C 
ATOM      8  C   UNL     1      -4.253  12.659  21.800  0.00  0.00    +0.000 C 
ATOM      9  N   UNL     1      -2.409  12.098  19.535  0.00  0.00    +0.000 NA
ATOM     10  C   UNL     1      -1.428  11.486  18.802  0.00  0.00    +0.000 A 
ATOM     11  S   UNL     1      -1.931  10.428  17.573  0.00  0.00    +0.000 S 
ATOM     12  N   UNL     1      -0.077  11.794  19.097  0.00  0.00    +0.000 N 
ATOM     13  C   UNL     1       0.258  12.691  20.131  0.00  0.00    +0.000 A 
ATOM     14  C   UNL     1       1.707  13.098  20.269  0.00  0.00    +0.000 C 
ENDROOT
BRANCH   1  16
ATOM     15  C   UNL     1      -0.096  15.188  22.582  0.00  0.00    +0.000 C 
ATOM     16  C   UNL     1      -0.482  13.755  22.345  0.00  0.00    +0.000 C 
ATOM     17  O   UNL     1      -0.507  13.031  23.345  0.00  0.00    +0.000 OA
ENDBRANCH   1  16
BRANCH  12  18
ATOM     18  C   UNL     1       1.000  10.989  18.458  0.00  0.00    +0.000 C 
BRANCH  18  19
ATOM     19  C   UNL     1       1.269   9.624  19.060  0.00  0.00    +0.000 A 
ATOM     20  C   UNL     1       0.909   9.277  20.369  0.00  0.00    +0.000 A 
ATOM     21  C   UNL     1       1.311   8.054  20.912  0.00  0.00    +0.000 A 
ATOM     22  C   UNL     1       2.050   7.154  20.147  0.00  0.00    +0.000 A 
ATOM     23  C   UNL     1       2.356   7.458  18.824  0.00  0.00    +0.000 A 
ATOM     24  C   UNL     1       1.961   8.681  18.282  0.00  0.00    +0.000 A 
ENDBRANCH  18  19
ENDBRANCH  12  18
TORSDOF 3
ENDMDL
MODEL 7
REMARK VINA RESULT:      -5.7      1.874      3.185
REMARK  Name = 
REMARK  5 active torsions:
REMARK  status: ('A' for Active; 'I' for Inactive)
REMARK    1  A    between atoms: C_1  and  C_2
REMARK    2  A    between atoms: C_2  and  C_4
REMARK    3  A    between atoms: N_15  and  C_16
REMARK    4  A    between atoms: C_16  and  C_17
REMARK    5  A    between atoms: C_23  and  C_24
REMARK                            x       y       z     vdW  Elec       q    Type
REMARK                         _______ _______ _______ _____ _____    ______ ____
ROOT
ATOM      1  C   UNL     1      -3.005  13.060  20.572  0.00  0.00    +0.000 A 
ATOM      2  C   UNL     1      -4.079  12.437  19.713  0.00  0.00    +0.000 A 
ATOM      3  N   UNL     1      -5.416  12.699  19.944  0.00  0.00    +0.000 N 
ATOM      4  C   UNL     1      -6.049  13.994  19.704  0.00  0.00    +0.000 C 
ATOM      5  C   UNL     1      -6.973  14.348  20.882  0.00  0.00    +0.000 C 
ATOM      6  O   UNL     1      -7.916  13.298  21.161  0.00  0.00    +0.000 OA
ATOM      7  C   UNL     1      -7.234  12.055  21.425  0.00  0.00    +0.000 C 
ATOM      8  C   UNL     1      -6.375  11.628  20.223  0.00  0.00    +0.000 C 
ATOM      9  N   UNL     1      -3.809  11.652  18.717  0.00  0.00    +0.000 NA
ATOM     10  C   UNL     1      -2.519  11.344  18.378  0.00  0.00    +0.000 A 
ATOM     11  S   UNL     1      -2.299  10.238  17.109  0.00  0.00    +0.000 S 
ATOM     12  N   UNL     1      -1.469  11.982  19.082  0.00  0.00    +0.000 N 
ATOM     13  C   UNL     1      -1.736  12.896  20.121  0.00  0.00    +0.000 A 
ATOM     14  C   UNL     1      -0.570  13.661  20.704  0.00  0.00    +0.000 C 
ENDROOT
BRANCH   1  16
ATOM     15  C   UNL     1      -3.741  12.823  23.125  0.00  0.00    +0.000 C 
ATOM     16  C   UNL     1      -3.411  13.647  21.913  0.00  0.00    +0.000 C 
ATOM     17  O   UNL     1      -3.594  14.864  22.023  0.00  0.00    +0.000 OA
ENDBRANCH   1  16
BRANCH  12  18
ATOM     18  C   UNL     1      -0.072  11.510  18.873  0.00  0.00    +0.000 C 
BRANCH  18  19
ATOM     19  C   UNL     1       0.364  10.313  19.694  0.00  0.00    +0.000 A 
ATOM     20  C   UNL     1       1.328   9.393  19.259  0.00  0.00    +0.000 A 
ATOM     21  C   UNL     1       1.582   8.234  19.997  0.00  0.00    +0.000 A 
ATOM     22  C   UNL     1       0.900   7.995  21.188  0.00  0.00    +0.000 A 
ATOM     23  C   UNL     1      -0.011   8.932  21.665  0.00  0.00    +0.000 A 
ATOM     24  C   UNL     1      -0.271  10.088  20.927  0.00  0.00    +0.000 A 
ENDBRANCH  18  19
ENDBRANCH  12  18
TORSDOF 3
ENDMDL
MODEL 8
REMARK VINA RESULT:      -5.6      2.231      3.405
REMARK  Name = 
REMARK  5 active torsions:
REMARK  status: ('A' for Active; 'I' for Inactive)
REMARK    1  A    between atoms: C_1  and  C_2
REMARK    2  A    between atoms: C_2  and  C_4
REMARK    3  A    between atoms: N_15  and  C_16
REMARK    4  A    between atoms: C_16  and  C_17
REMARK    5  A    between atoms: C_23  and  C_24
REMARK                            x       y       z     vdW  Elec       q    Type
REMARK                         _______ _______ _______ _____ _____    ______ ____
ROOT
ATOM      1  C   UNL     1      -2.970  13.171  21.991  0.00  0.00    +0.000 A 
ATOM      2  C   UNL     1      -4.020  12.910  20.938  0.00  0.00    +0.000 A 
ATOM      3  N   UNL     1      -5.353  13.182  21.180  0.00  0.00    +0.000 N 
ATOM      4  C   UNL     1      -5.901  14.529  21.317  0.00  0.00    +0.000 C 
ATOM      5  C   UNL     1      -6.877  14.577  22.505  0.00  0.00    +0.000 C 
ATOM      6  O   UNL     1      -7.889  13.558  22.412  0.00  0.00    +0.000 OA
ATOM      7  C   UNL     1      -7.291  12.250  22.316  0.00  0.00    +0.000 C 
ATOM      8  C   UNL     1      -6.383  12.145  21.079  0.00  0.00    +0.000 C 
ATOM      9  N   UNL     1      -3.732  12.443  19.764  0.00  0.00    +0.000 NA
ATOM     10  C   UNL     1      -2.441  12.162  19.403  0.00  0.00    +0.000 A 
ATOM     11  S   UNL     1      -2.201  11.475  17.869  0.00  0.00    +0.000 S 
ATOM     12  N   UNL     1      -1.404  12.486  20.312  0.00  0.00    +0.000 N 
ATOM     13  C   UNL     1      -1.687  13.063  21.566  0.00  0.00    +0.000 A 
ATOM     14  C   UNL     1      -0.520  13.536  22.403  0.00  0.00    +0.000 C 
ENDROOT
BRANCH   1  16
ATOM     15  C   UNL     1      -3.499  14.687  24.121  0.00  0.00    +0.000 C 
ATOM     16  C   UNL     1      -3.427  13.356  23.428  0.00  0.00    +0.000 C 
ATOM     17  O   UNL     1      -3.660  12.368  24.133  0.00  0.00    +0.000 OA
ENDBRANCH   1  16
BRANCH  12  18
ATOM     18  C   UNL     1      -0.024  12.004  20.030  0.00  0.00    +0.000 C 
BRANCH  18  19
ATOM     19  C   UNL     1       0.277  10.566  20.404  0.00  0.00    +0.000 A 
ATOM     20  C   UNL     1      -0.128   9.985  21.613  0.00  0.00    +0.000 A 
ATOM     21  C   UNL     1       0.302   8.702  21.960  0.00  0.00    +0.000 A 
ATOM     22  C   UNL     1       1.116   7.975  21.094  0.00  0.00    +0.000 A 
ATOM     23  C   UNL     1       1.471   8.514  19.861  0.00  0.00    +0.000 A 
ATOM     24  C   UNL     1       1.047   9.798  19.515  0.00  0.00    +0.000 A 
ENDBRANCH  18  19
ENDBRANCH  12  18
TORSDOF 3
ENDMDL
MODEL 9
REMARK VINA RESULT:      -5.6      4.822      8.756
REMARK  Name = 
REMARK  5 active torsions:
REMARK  status: ('A' for Active; 'I' for Inactive)
REMARK    1  A    between atoms: C_1  and  C_2
REMARK    2  A    between atoms: C_2  and  C_4
REMARK    3  A    between atoms: N_15  and  C_16
REMARK    4  A    between atoms: C_16  and  C_17
REMARK    5  A    between atoms: C_23  and  C_24
REMARK                            x       y       z     vdW  Elec       q    Type
REMARK                         _______ _______ _______ _____ _____    ______ ____
ROOT
ATOM      1  C   UNL     1       2.292   6.849  18.931  0.00  0.00    +0.000 A 
ATOM      2  C   UNL     1       1.779   6.258  20.222  0.00  0.00    +0.000 A 
ATOM      3  N   UNL     1       1.978   4.923  20.522  0.00  0.00    +0.000 N 
ATOM      4  C   UNL     1       3.281   4.342  20.836  0.00  0.00    +0.000 C 
ATOM      5  C   UNL     1       3.444   3.000  20.101  0.00  0.00    +0.000 C 
ATOM      6  O   UNL     1       2.346   2.107  20.360  0.00  0.00    +0.000 OA
ATOM      7  C   UNL     1       1.091   2.721  19.999  0.00  0.00    +0.000 C 
ATOM      8  C   UNL     1       0.859   4.017  20.792  0.00  0.00    +0.000 C 
ATOM      9  N   UNL     1       1.151   6.961  21.111  0.00  0.00    +0.000 NA
ATOM     10  C   UNL     1       0.920   8.298  20.933  0.00  0.00    +0.000 A 
ATOM     11  S   UNL     1       0.013   9.090  22.130  0.00  0.00    +0.000 S 
ATOM     12  N   UNL     1       1.471   8.928  19.791  0.00  0.00    +0.000 N 
ATOM     13  C   UNL     1       2.220   8.200  18.846  0.00  0.00    +0.000 A 
ATOM     14  C   UNL     1       2.916   8.975  17.750  0.00  0.00    +0.000 C 
ENDROOT
BRANCH   1  16
ATOM     15  C   UNL     1       4.034   5.848  17.176  0.00  0.00    +0.000 C 
ATOM     16  C   UNL     1       2.672   5.898  17.809  0.00  0.00    +0.000 C 
ATOM     17  O   UNL     1       1.809   5.183  17.288  0.00  0.00    +0.000 OA
ENDBRANCH   1  16
BRANCH  12  18
ATOM     18  C   UNL     1       1.062  10.324  19.472  0.00  0.00    +0.000 C 
BRANCH  18  19
ATOM     19  C   UNL     1      -0.308  10.498  18.846  0.00  0.00    +0.000 A 
ATOM     20  C   UNL     1      -1.297  11.334  19.381  0.00  0.00    +0.000 A 
ATOM     21  C   UNL     1      -2.585  11.342  18.839  0.00  0.00    +0.000 A 
ATOM     22  C   UNL     1      -2.891  10.539  17.744  0.00  0.00    +0.000 A 
ATOM     23  C   UNL     1      -1.901   9.754  17.161  0.00  0.00    +0.000 A 
ATOM     24  C   UNL     1      -0.615   9.740  17.704  0.00  0.00    +0.000 A 
ENDBRANCH  18  19
ENDBRANCH  12  18
TORSDOF 3
ENDMDL
