MODEL 1
REMARK VINA RESULT:      -7.8      0.000      0.000
REMARK  Name = 
REMARK  5 active torsions:
REMARK  status: ('A' for Active; 'I' for Inactive)
REMARK    1  A    between atoms: N_7  and  C_8
REMARK    2  A    between atoms: C_8  and  C_9
REMARK    3  A    between atoms: C_9  and  C_10
REMARK    4  A    between atoms: C_16  and  C_17
REMARK    5  A    between atoms: C_17  and  C_18
REMARK                            x       y       z     vdW  Elec       q    Type
REMARK                         _______ _______ _______ _____ _____    ______ ____
ROOT
ATOM      1  C   UNL     1       2.217   8.380  18.356  0.00  0.00    +0.000 C 
ATOM      2  O   UNL     1       2.426   8.641  17.173  0.00  0.00    +0.000 OA
ATOM      3  N   UNL     1       1.403   9.165  19.163  0.00  0.00    +0.000 N 
ATOM      4  C   UNL     1       1.275   9.053  20.620  0.00  0.00    +0.000 C 
ATOM      5  C   UNL     1      -0.195   9.125  21.017  0.00  0.00    +0.000 C 
ATOM      6  O   UNL     1      -0.767  10.357  20.563  0.00  0.00    +0.000 OA
ATOM      7  C   UNL     1      -0.724  10.453  19.120  0.00  0.00    +0.000 C 
ATOM      8  C   UNL     1       0.738  10.351  18.612  0.00  0.00    +0.000 C 
ENDROOT
BRANCH   1   9
ATOM      9  C   UNL     1       2.744   7.102  18.988  0.00  0.00    +0.000 C 
BRANCH   9  10
ATOM     10  C   UNL     1       2.309   5.844  18.246  0.00  0.00    +0.000 C 
BRANCH  10  17
ATOM     11  O   UNL     1       1.706   3.263  17.441  0.00  0.00    +0.000 OA
ATOM     12  C   UNL     1       1.783   3.476  18.653  0.00  0.00    +0.000 C 
ATOM     13  C   UNL     1       1.605   2.324  19.627  0.00  0.00    +0.000 C 
ATOM     14  C   UNL     1       1.244   2.739  21.039  0.00  0.00    +0.000 C 
ATOM     15  C   UNL     1       2.182   3.838  21.500  0.00  0.00    +0.000 C 
ATOM     16  C   UNL     1       2.017   5.040  20.587  0.00  0.00    +0.000 C 
ATOM     17  N   UNL     1       2.145   4.713  19.173  0.00  0.00    +0.000 N 
ENDBRANCH  10  17
ENDBRANCH   9  10
ENDBRANCH   1   9
BRANCH   7  18
ATOM     18  C   UNL     1      -1.331  11.804  18.723  0.00  0.00    +0.000 C 
BRANCH  18  19
ATOM     19  C   UNL     1      -2.830  11.760  18.496  0.00  0.00    +0.000 A 
ATOM     20  C   UNL     1      -3.686  12.214  19.517  0.00  0.00    +0.000 A 
ATOM     21  C   UNL     1      -5.066  12.264  19.328  0.00  0.00    +0.000 A 
ATOM     22  C   UNL     1      -5.622  11.845  18.123  0.00  0.00    +0.000 A 
ATOM     23  C   UNL     1      -4.794  11.353  17.115  0.00  0.00    +0.000 A 
ATOM     24  C   UNL     1      -3.407  11.301  17.301  0.00  0.00    +0.000 A 
ATOM     25 CL   UNL     1      -2.449  10.659  16.014  0.00  0.00    +0.000 Cl
ENDBRANCH  18  19
ENDBRANCH   7  18
TORSDOF 5
ENDMDL
MODEL 2
REMARK VINA RESULT:      -7.6      1.182      1.530
REMARK  Name = 
REMARK  5 active torsions:
REMARK  status: ('A' for Active; 'I' for Inactive)
REMARK    1  A    between atoms: N_7  and  C_8
REMARK    2  A    between atoms: C_8  and  C_9
REMARK    3  A    between atoms: C_9  and  C_10
REMARK    4  A    between atoms: C_16  and  C_17
REMARK    5  A    between atoms: C_17  and  C_18
REMARK                            x       y       z     vdW  Elec       q    Type
REMARK                         _______ _______ _______ _____ _____    ______ ____
ROOT
ATOM      1  C   UNL     1       2.116   8.453  18.595  0.00  0.00    +0.000 C 
ATOM      2  O   UNL     1       2.258   8.724  17.404  0.00  0.00    +0.000 OA
ATOM      3  N   UNL     1       1.342   9.227  19.451  0.00  0.00    +0.000 N 
ATOM      4  C   UNL     1       1.294   9.103  20.912  0.00  0.00    +0.000 C 
ATOM      5  C   UNL     1      -0.153   9.163  21.389  0.00  0.00    +0.000 C 
ATOM      6  O   UNL     1      -0.756  10.394  20.977  0.00  0.00    +0.000 OA
ATOM      7  C   UNL     1      -0.792  10.501  19.534  0.00  0.00    +0.000 C 
ATOM      8  C   UNL     1       0.640  10.412  18.947  0.00  0.00    +0.000 C 
ENDROOT
BRANCH   1   9
ATOM      9  C   UNL     1       2.684   7.174  19.187  0.00  0.00    +0.000 C 
BRANCH   9  10
ATOM     10  C   UNL     1       2.564   5.977  18.253  0.00  0.00    +0.000 C 
BRANCH  10  17
ATOM     11  O   UNL     1       0.975   3.937  17.258  0.00  0.00    +0.000 OA
ATOM     12  C   UNL     1       1.380   3.827  18.416  0.00  0.00    +0.000 C 
ATOM     13  C   UNL     1       1.044   2.575  19.210  0.00  0.00    +0.000 C 
ATOM     14  C   UNL     1       1.158   2.729  20.713  0.00  0.00    +0.000 C 
ATOM     15  C   UNL     1       2.486   3.377  21.057  0.00  0.00    +0.000 C 
ATOM     16  C   UNL     1       2.536   4.757  20.426  0.00  0.00    +0.000 C 
ATOM     17  N   UNL     1       2.238   4.752  19.000  0.00  0.00    +0.000 N 
ENDBRANCH  10  17
ENDBRANCH   9  10
ENDBRANCH   1   9
BRANCH   7  18
ATOM     18  C   UNL     1      -1.428  11.851  19.182  0.00  0.00    +0.000 C 
BRANCH  18  19
ATOM     19  C   UNL     1      -2.757  11.733  18.459  0.00  0.00    +0.000 A 
ATOM     20  C   UNL     1      -2.771  11.245  17.139  0.00  0.00    +0.000 A 
ATOM     21  C   UNL     1      -3.972  11.047  16.459  0.00  0.00    +0.000 A 
ATOM     22  C   UNL     1      -5.182  11.348  17.076  0.00  0.00    +0.000 A 
ATOM     23  C   UNL     1      -5.186  11.872  18.369  0.00  0.00    +0.000 A 
ATOM     24  C   UNL     1      -3.982  12.073  19.054  0.00  0.00    +0.000 A 
ATOM     25 CL   UNL     1      -4.067  12.745  20.644  0.00  0.00    +0.000 Cl
ENDBRANCH  18  19
ENDBRANCH   7  18
TORSDOF 5
ENDMDL
MODEL 3
REMARK VINA RESULT:      -7.6      1.610      2.226
REMARK  Name = 
REMARK  5 active torsions:
REMARK  status: ('A' for Active; 'I' for Inactive)
REMARK    1  A    between atoms: N_7  and  C_8
REMARK    2  A    between atoms: C_8  and  C_9
REMARK    3  A    between atoms: C_9  and  C_10
REMARK    4  A    between atoms: C_16  and  C_17
REMARK    5  A    between atoms: C_17  and  C_18
REMARK                            x       y       z     vdW  Elec       q    Type
REMARK                         _______ _______ _______ _____ _____    ______ ____
ROOT
ATOM      1  C   UNL     1       2.156   7.081  19.706  0.00  0.00    +0.000 C 
ATOM      2  O   UNL     1       2.524   6.983  18.537  0.00  0.00    +0.000 OA
ATOM      3  N   UNL     1       1.467   8.190  20.182  0.00  0.00    +0.000 N 
ATOM      4  C   UNL     1       1.184   8.484  21.592  0.00  0.00    +0.000 C 
ATOM      5  C   UNL     1      -0.263   8.940  21.745  0.00  0.00    +0.000 C 
ATOM      6  O   UNL     1      -0.501  10.099  20.940  0.00  0.00    +0.000 OA
ATOM      7  C   UNL     1      -0.305   9.810  19.536  0.00  0.00    +0.000 C 
ATOM      8  C   UNL     1       1.136   9.299  19.281  0.00  0.00    +0.000 C 
ENDROOT
BRANCH   1   9
ATOM      9  C   UNL     1       2.324   5.932  20.686  0.00  0.00    +0.000 C 
BRANCH   9  10
ATOM     10  C   UNL     1       1.510   4.700  20.309  0.00  0.00    +0.000 C 
BRANCH  10  17
ATOM     11  O   UNL     1       1.134   3.997  17.656  0.00  0.00    +0.000 OA
ATOM     12  C   UNL     1       2.014   3.403  18.281  0.00  0.00    +0.000 C 
ATOM     13  C   UNL     1       2.874   2.375  17.565  0.00  0.00    +0.000 C 
ATOM     14  C   UNL     1       3.570   1.386  18.479  0.00  0.00    +0.000 C 
ATOM     15  C   UNL     1       4.257   2.133  19.606  0.00  0.00    +0.000 C 
ATOM     16  C   UNL     1       3.208   2.878  20.411  0.00  0.00    +0.000 C 
ATOM     17  N   UNL     1       2.340   3.716  19.596  0.00  0.00    +0.000 N 
ENDBRANCH  10  17
ENDBRANCH   9  10
ENDBRANCH   1   9
BRANCH   7  18
ATOM     18  C   UNL     1      -0.556  11.104  18.753  0.00  0.00    +0.000 C 
BRANCH  18  19
ATOM     19  C   UNL     1      -1.915  11.161  18.081  0.00  0.00    +0.000 A 
ATOM     20  C   UNL     1      -2.075  10.557  16.819  0.00  0.00    +0.000 A 
ATOM     21  C   UNL     1      -3.320  10.516  16.194  0.00  0.00    +0.000 A 
ATOM     22  C   UNL     1      -4.428  11.093  16.807  0.00  0.00    +0.000 A 
ATOM     23  C   UNL     1      -4.281  11.733  18.038  0.00  0.00    +0.000 A 
ATOM     24  C   UNL     1      -3.032  11.776  18.668  0.00  0.00    +0.000 A 
ATOM     25 CL   UNL     1      -2.925  12.605  20.180  0.00  0.00    +0.000 Cl
ENDBRANCH  18  19
ENDBRANCH   7  18
TORSDOF 5
ENDMDL
MODEL 4
REMARK VINA RESULT:      -7.5      2.454      3.299
REMARK  Name = 
REMARK  5 active torsions:
REMARK  status: ('A' for Active; 'I' for Inactive)
REMARK    1  A    between atoms: N_7  and  C_8
REMARK    2  A    between atoms: C_8  and  C_9
REMARK    3  A    between atoms: C_9  and  C_10
REMARK    4  A    between atoms: C_16  and  C_17
REMARK    5  A    between atoms: C_17  and  C_18
REMARK                            x       y       z     vdW  Elec       q    Type
REMARK                         _______ _______ _______ _____ _____    ______ ____
ROOT
ATOM      1  C   UNL     1       2.224   8.214  18.432  0.00  0.00    +0.000 C 
ATOM      2  O   UNL     1       2.413   8.590  17.276  0.00  0.00    +0.000 OA
ATOM      3  N   UNL     1       1.452   8.934  19.335  0.00  0.00    +0.000 N 
ATOM      4  C   UNL     1       1.353   8.676  20.776  0.00  0.00    +0.000 C 
ATOM      5  C   UNL     1      -0.105   8.748  21.215  0.00  0.00    +0.000 C 
ATOM      6  O   UNL     1      -0.649  10.035  20.905  0.00  0.00    +0.000 OA
ATOM      7  C   UNL     1      -0.635  10.279  19.479  0.00  0.00    +0.000 C 
ATOM      8  C   UNL     1       0.811  10.189  18.927  0.00  0.00    +0.000 C 
ENDROOT
BRANCH   1   9
ATOM      9  C   UNL     1       2.725   6.863  18.915  0.00  0.00    +0.000 C 
BRANCH   9  10
ATOM     10  C   UNL     1       3.375   6.037  17.813  0.00  0.00    +0.000 C 
BRANCH  10  17
ATOM     11  O   UNL     1       5.169   6.861  15.869  0.00  0.00    +0.000 OA
ATOM     12  C   UNL     1       5.635   6.380  16.903  0.00  0.00    +0.000 C 
ATOM     13  C   UNL     1       7.142   6.317  17.085  0.00  0.00    +0.000 C 
ATOM     14  C   UNL     1       7.613   5.313  18.118  0.00  0.00    +0.000 C 
ATOM     15  C   UNL     1       6.814   5.486  19.395  0.00  0.00    +0.000 C 
ATOM     16  C   UNL     1       5.349   5.220  19.097  0.00  0.00    +0.000 C 
ATOM     17  N   UNL     1       4.837   5.995  17.975  0.00  0.00    +0.000 N 
ENDBRANCH  10  17
ENDBRANCH   9  10
ENDBRANCH   1   9
BRANCH   7  18
ATOM     18  C   UNL     1      -1.209  11.680  19.239  0.00  0.00    +0.000 C 
BRANCH  18  19
ATOM     19  C   UNL     1      -2.557  11.680  18.544  0.00  0.00    +0.000 A 
ATOM     20  C   UNL     1      -2.634  11.239  17.209  0.00  0.00    +0.000 A 
ATOM     21  C   UNL     1      -3.858  11.149  16.551  0.00  0.00    +0.000 A 
ATOM     22  C   UNL     1      -5.031  11.513  17.205  0.00  0.00    +0.000 A 
ATOM     23  C   UNL     1      -4.972  11.992  18.514  0.00  0.00    +0.000 A 
ATOM     24  C   UNL     1      -3.743  12.084  19.178  0.00  0.00    +0.000 A 
ATOM     25 CL   UNL     1      -3.747  12.707  20.790  0.00  0.00    +0.000 Cl
ENDBRANCH  18  19
ENDBRANCH   7  18
TORSDOF 5
ENDMDL
MODEL 5
REMARK VINA RESULT:      -7.5      1.390      1.780
REMARK  Name = 
REMARK  5 active torsions:
REMARK  status: ('A' for Active; 'I' for Inactive)
REMARK    1  A    between atoms: N_7  and  C_8
REMARK    2  A    between atoms: C_8  and  C_9
REMARK    3  A    between atoms: C_9  and  C_10
REMARK    4  A    between atoms: C_16  and  C_17
REMARK    5  A    between atoms: C_17  and  C_18
REMARK                            x       y       z     vdW  Elec       q    Type
REMARK                         _______ _______ _______ _____ _____    ______ ____
ROOT
ATOM      1  C   UNL     1       2.140   8.294  18.581  0.00  0.00    +0.000 C 
ATOM      2  O   UNL     1       2.316   8.594  17.401  0.00  0.00    +0.000 OA
ATOM      3  N   UNL     1       1.371   9.066  19.443  0.00  0.00    +0.000 N 
ATOM      4  C   UNL     1       1.287   8.902  20.898  0.00  0.00    +0.000 C 
ATOM      5  C   UNL     1      -0.167   8.992  21.346  0.00  0.00    +0.000 C 
ATOM      6  O   UNL     1      -0.724  10.252  20.957  0.00  0.00    +0.000 OA
ATOM      7  C   UNL     1      -0.726  10.401  19.518  0.00  0.00    +0.000 C 
ATOM      8  C   UNL     1       0.716  10.286  18.958  0.00  0.00    +0.000 C 
ENDROOT
BRANCH   1   9
ATOM      9  C   UNL     1       2.657   6.982  19.147  0.00  0.00    +0.000 C 
BRANCH   9  10
ATOM     10  C   UNL     1       3.040   5.975  18.071  0.00  0.00    +0.000 C 
BRANCH  10  17
ATOM     11  O   UNL     1       3.751   3.685  16.681  0.00  0.00    +0.000 OA
ATOM     12  C   UNL     1       2.942   3.561  17.603  0.00  0.00    +0.000 C 
ATOM     13  C   UNL     1       2.428   2.178  17.966  0.00  0.00    +0.000 C 
ATOM     14  C   UNL     1       1.129   2.171  18.748  0.00  0.00    +0.000 C 
ATOM     15  C   UNL     1       1.228   3.148  19.903  0.00  0.00    +0.000 C 
ATOM     16  C   UNL     1       1.448   4.544  19.347  0.00  0.00    +0.000 C 
ATOM     17  N   UNL     1       2.563   4.625  18.414  0.00  0.00    +0.000 N 
ENDBRANCH  10  17
ENDBRANCH   9  10
ENDBRANCH   1   9
BRANCH   7  18
ATOM     18  C   UNL     1      -1.314  11.780  19.191  0.00  0.00    +0.000 C 
BRANCH  18  19
ATOM     19  C   UNL     1      -2.661  11.723  18.496  0.00  0.00    +0.000 A 
ATOM     20  C   UNL     1      -2.721  11.263  17.167  0.00  0.00    +0.000 A 
ATOM     21  C   UNL     1      -3.941  11.121  16.510  0.00  0.00    +0.000 A 
ATOM     22  C   UNL     1      -5.127  11.452  17.160  0.00  0.00    +0.000 A 
ATOM     23  C   UNL     1      -5.085  11.948  18.463  0.00  0.00    +0.000 A 
ATOM     24  C   UNL     1      -3.860  12.093  19.125  0.00  0.00    +0.000 A 
ATOM     25 CL   UNL     1      -3.887  12.734  20.729  0.00  0.00    +0.000 Cl
ENDBRANCH  18  19
ENDBRANCH   7  18
TORSDOF 5
ENDMDL
MODEL 6
REMARK VINA RESULT:      -7.4      2.298      3.449
REMARK  Name = 
REMARK  5 active torsions:
REMARK  status: ('A' for Active; 'I' for Inactive)
REMARK    1  A    between atoms: N_7  and  C_8
REMARK    2  A    between atoms: C_8  and  C_9
REMARK    3  A    between atoms: C_9  and  C_10
REMARK    4  A    between atoms: C_16  and  C_17
REMARK    5  A    between atoms: C_17  and  C_18
REMARK                            x       y       z     vdW  Elec       q    Type
REMARK                         _______ _______ _______ _____ _____    ______ ____
ROOT
ATOM      1  C   UNL     1       4.567   5.708  17.172  0.00  0.00    +0.000 C 
ATOM      2  O   UNL     1       4.850   6.009  16.014  0.00  0.00    +0.000 OA
ATOM      3  N   UNL     1       3.885   6.568  18.023  0.00  0.00    +0.000 N 
ATOM      4  C   UNL     1       3.700   6.380  19.466  0.00  0.00    +0.000 C 
ATOM      5  C   UNL     1       2.256   6.687  19.847  0.00  0.00    +0.000 C 
ATOM      6  O   UNL     1       1.925   8.030  19.477  0.00  0.00    +0.000 OA
ATOM      7  C   UNL     1       2.024   8.217  18.046  0.00  0.00    +0.000 C 
ATOM      8  C   UNL     1       3.456   7.890  17.552  0.00  0.00    +0.000 C 
ENDROOT
BRANCH   1   9
ATOM      9  C   UNL     1       4.841   4.315  17.715  0.00  0.00    +0.000 C 
BRANCH   9  10
ATOM     10  C   UNL     1       3.721   3.326  17.418  0.00  0.00    +0.000 C 
BRANCH  10  17
ATOM     11  O   UNL     1       0.998   3.838  17.476  0.00  0.00    +0.000 OA
ATOM     12  C   UNL     1       1.528   3.468  18.525  0.00  0.00    +0.000 C 
ATOM     13  C   UNL     1       0.671   3.257  19.762  0.00  0.00    +0.000 C 
ATOM     14  C   UNL     1       1.433   3.277  21.071  0.00  0.00    +0.000 C 
ATOM     15  C   UNL     1       2.648   2.374  20.964  0.00  0.00    +0.000 C 
ATOM     16  C   UNL     1       3.557   2.903  19.869  0.00  0.00    +0.000 C 
ATOM     17  N   UNL     1       2.871   3.117  18.602  0.00  0.00    +0.000 N 
ENDBRANCH  10  17
ENDBRANCH   9  10
ENDBRANCH   1   9
BRANCH   7  18
ATOM     18  C   UNL     1       1.678   9.680  17.741  0.00  0.00    +0.000 C 
BRANCH  18  19
ATOM     19  C   UNL     1       0.720  10.304  18.737  0.00  0.00    +0.000 A 
ATOM     20  C   UNL     1       1.239  10.862  19.921  0.00  0.00    +0.000 A 
ATOM     21  C   UNL     1       0.410  11.513  20.833  0.00  0.00    +0.000 A 
ATOM     22  C   UNL     1      -0.957  11.607  20.590  0.00  0.00    +0.000 A 
ATOM     23  C   UNL     1      -1.496  11.025  19.443  0.00  0.00    +0.000 A 
ATOM     24  C   UNL     1      -0.666  10.369  18.526  0.00  0.00    +0.000 A 
ATOM     25 CL   UNL     1      -1.411   9.654  17.140  0.00  0.00    +0.000 Cl
ENDBRANCH  18  19
ENDBRANCH   7  18
TORSDOF 5
ENDMDL
MODEL 7
REMARK VINA RESULT:      -7.4      6.449      9.752
REMARK  Name = 
REMARK  5 active torsions:
REMARK  status: ('A' for Active; 'I' for Inactive)
REMARK    1  A    between atoms: N_7  and  C_8
REMARK    2  A    between atoms: C_8  and  C_9
REMARK    3  A    between atoms: C_9  and  C_10
REMARK    4  A    between atoms: C_16  and  C_17
REMARK    5  A    between atoms: C_17  and  C_18
REMARK                            x       y       z     vdW  Elec       q    Type
REMARK                         _______ _______ _______ _____ _____    ______ ____
ROOT
ATOM      1  C   UNL     1       8.111   7.698  18.269  0.00  0.00    +0.000 C 
ATOM      2  O   UNL     1       8.774   7.465  19.278  0.00  0.00    +0.000 OA
ATOM      3  N   UNL     1       7.112   6.845  17.817  0.00  0.00    +0.000 N 
ATOM      4  C   UNL     1       6.429   6.933  16.521  0.00  0.00    +0.000 C 
ATOM      5  C   UNL     1       4.929   6.743  16.714  0.00  0.00    +0.000 C 
ATOM      6  O   UNL     1       4.668   5.475  17.324  0.00  0.00    +0.000 OA
ATOM      7  C   UNL     1       5.266   5.395  18.640  0.00  0.00    +0.000 C 
ATOM      8  C   UNL     1       6.798   5.615  18.554  0.00  0.00    +0.000 C 
ENDROOT
BRANCH   1   9
ATOM      9  C   UNL     1       8.258   9.007  17.512  0.00  0.00    +0.000 C 
BRANCH   9  10
ATOM     10  C   UNL     1       8.103  10.234  18.402  0.00  0.00    +0.000 C 
BRANCH  10  17
ATOM     11  O   UNL     1       8.982  10.721  20.984  0.00  0.00    +0.000 OA
ATOM     12  C   UNL     1       9.716  11.074  20.059  0.00  0.00    +0.000 C 
ATOM     13  C   UNL     1      11.067  11.694  20.372  0.00  0.00    +0.000 C 
ATOM     14  C   UNL     1      11.666  12.509  19.243  0.00  0.00    +0.000 C 
ATOM     15  C   UNL     1      11.602  11.713  17.954  0.00  0.00    +0.000 C 
ATOM     16  C   UNL     1      10.147  11.430  17.624  0.00  0.00    +0.000 C 
ATOM     17  N   UNL     1       9.413  10.822  18.726  0.00  0.00    +0.000 N 
ENDBRANCH  10  17
ENDBRANCH   9  10
ENDBRANCH   1   9
BRANCH   7  18
ATOM     18  C   UNL     1       4.960   4.004  19.209  0.00  0.00    +0.000 C 
BRANCH  18  19
ATOM     19  C   UNL     1       3.503   3.799  19.576  0.00  0.00    +0.000 A 
ATOM     20  C   UNL     1       2.830   4.815  20.282  0.00  0.00    +0.000 A 
ATOM     21  C   UNL     1       1.473   4.706  20.577  0.00  0.00    +0.000 A 
ATOM     22  C   UNL     1       0.762   3.575  20.190  0.00  0.00    +0.000 A 
ATOM     23  C   UNL     1       1.420   2.539  19.527  0.00  0.00    +0.000 A 
ATOM     24  C   UNL     1       2.784   2.644  19.229  0.00  0.00    +0.000 A 
ATOM     25 CL   UNL     1       3.534   1.311  18.425  0.00  0.00    +0.000 Cl
ENDBRANCH  18  19
ENDBRANCH   7  18
TORSDOF 5
ENDMDL
MODEL 8
REMARK VINA RESULT:      -7.3      2.488      8.107
REMARK  Name = 
REMARK  5 active torsions:
REMARK  status: ('A' for Active; 'I' for Inactive)
REMARK    1  A    between atoms: N_7  and  C_8
REMARK    2  A    between atoms: C_8  and  C_9
REMARK    3  A    between atoms: C_9  and  C_10
REMARK    4  A    between atoms: C_16  and  C_17
REMARK    5  A    between atoms: C_17  and  C_18
REMARK                            x       y       z     vdW  Elec       q    Type
REMARK                         _______ _______ _______ _____ _____    ______ ____
ROOT
ATOM      1  C   UNL     1      -0.068  10.501  20.437  0.00  0.00    +0.000 C 
ATOM      2  O   UNL     1      -0.533  10.137  21.516  0.00  0.00    +0.000 OA
ATOM      3  N   UNL     1       0.973   9.831  19.807  0.00  0.00    +0.000 N 
ATOM      4  C   UNL     1       1.724  10.312  18.643  0.00  0.00    +0.000 C 
ATOM      5  C   UNL     1       1.899   9.181  17.636  0.00  0.00    +0.000 C 
ATOM      6  O   UNL     1       2.584   8.082  18.245  0.00  0.00    +0.000 OA
ATOM      7  C   UNL     1       1.821   7.538  19.348  0.00  0.00    +0.000 C 
ATOM      8  C   UNL     1       1.557   8.630  20.417  0.00  0.00    +0.000 C 
ENDROOT
BRANCH   1   9
ATOM      9  C   UNL     1      -0.690  11.646  19.655  0.00  0.00    +0.000 C 
BRANCH   9  10
ATOM     10  C   UNL     1      -2.210  11.675  19.744  0.00  0.00    +0.000 C 
BRANCH  10  17
ATOM     11  O   UNL     1      -4.876  12.208  19.206  0.00  0.00    +0.000 OA
ATOM     12  C   UNL     1      -4.185  11.780  18.280  0.00  0.00    +0.000 C 
ATOM     13  C   UNL     1      -4.799  11.624  16.899  0.00  0.00    +0.000 C 
ATOM     14  C   UNL     1      -4.056  10.676  15.979  0.00  0.00    +0.000 C 
ATOM     15  C   UNL     1      -2.576  11.010  15.995  0.00  0.00    +0.000 C 
ATOM     16  C   UNL     1      -2.048  10.826  17.406  0.00  0.00    +0.000 C 
ATOM     17  N   UNL     1      -2.821  11.542  18.412  0.00  0.00    +0.000 N 
ENDBRANCH  10  17
ENDBRANCH   9  10
ENDBRANCH   1   9
BRANCH   7  18
ATOM     18  C   UNL     1       2.633   6.387  19.955  0.00  0.00    +0.000 C 
BRANCH  18  19
ATOM     19  C   UNL     1       2.138   5.010  19.556  0.00  0.00    +0.000 A 
ATOM     20  C   UNL     1       1.220   4.349  20.395  0.00  0.00    +0.000 A 
ATOM     21  C   UNL     1       0.678   3.116  20.037  0.00  0.00    +0.000 A 
ATOM     22  C   UNL     1       1.053   2.509  18.842  0.00  0.00    +0.000 A 
ATOM     23  C   UNL     1       1.992   3.129  18.017  0.00  0.00    +0.000 A 
ATOM     24  C   UNL     1       2.539   4.367  18.375  0.00  0.00    +0.000 A 
ATOM     25 CL   UNL     1       3.712   5.062  17.313  0.00  0.00    +0.000 Cl
ENDBRANCH  18  19
ENDBRANCH   7  18
TORSDOF 5
ENDMDL
MODEL 9
REMARK VINA RESULT:      -7.3      1.778      2.187
REMARK  Name = 
REMARK  5 active torsions:
REMARK  status: ('A' for Active; 'I' for Inactive)
REMARK    1  A    between atoms: N_7  and  C_8
REMARK    2  A    between atoms: C_8  and  C_9
REMARK    3  A    between atoms: C_9  and  C_10
REMARK    4  A    between atoms: C_16  and  C_17
REMARK    5  A    between atoms: C_17  and  C_18
REMARK                            x       y       z     vdW  Elec       q    Type
REMARK                         _______ _______ _______ _____ _____    ______ ____
ROOT
ATOM      1  C   UNL     1       2.186   8.178  18.466  0.00  0.00    +0.000 C 
ATOM      2  O   UNL     1       2.437   8.383  17.280  0.00  0.00    +0.000 OA
ATOM      3  N   UNL     1       1.384   9.027  19.219  0.00  0.00    +0.000 N 
ATOM      4  C   UNL     1       1.211   8.978  20.675  0.00  0.00    +0.000 C 
ATOM      5  C   UNL     1      -0.265   9.127  21.026  0.00  0.00    +0.000 C 
ATOM      6  O   UNL     1      -0.772  10.362  20.509  0.00  0.00    +0.000 OA
ATOM      7  C   UNL     1      -0.685  10.398  19.065  0.00  0.00    +0.000 C 
ATOM      8  C   UNL     1       0.784  10.217  18.604  0.00  0.00    +0.000 C 
ENDROOT
BRANCH   1   9
ATOM      9  C   UNL     1       2.641   6.905  19.161  0.00  0.00    +0.000 C 
BRANCH   9  10
ATOM     10  C   UNL     1       3.581   6.062  18.310  0.00  0.00    +0.000 C 
BRANCH  10  17
ATOM     11  O   UNL     1       5.411   4.238  19.312  0.00  0.00    +0.000 OA
ATOM     12  C   UNL     1       4.323   3.801  18.933  0.00  0.00    +0.000 C 
ATOM     13  C   UNL     1       4.020   2.320  19.086  0.00  0.00    +0.000 C 
ATOM     14  C   UNL     1       2.909   1.806  18.191  0.00  0.00    +0.000 C 
ATOM     15  C   UNL     1       1.708   2.727  18.294  0.00  0.00    +0.000 C 
ATOM     16  C   UNL     1       2.110   4.111  17.817  0.00  0.00    +0.000 C 
ATOM     17  N   UNL     1       3.302   4.626  18.476  0.00  0.00    +0.000 N 
ENDBRANCH  10  17
ENDBRANCH   9  10
ENDBRANCH   1   9
BRANCH   7  18
ATOM     18  C   UNL     1      -1.224  11.757  18.600  0.00  0.00    +0.000 C 
BRANCH  18  19
ATOM     19  C   UNL     1      -2.731  11.795  18.433  0.00  0.00    +0.000 A 
ATOM     20  C   UNL     1      -3.295  11.317  17.235  0.00  0.00    +0.000 A 
ATOM     21  C   UNL     1      -4.676  11.261  17.063  0.00  0.00    +0.000 A 
ATOM     22  C   UNL     1      -5.525  11.697  18.076  0.00  0.00    +0.000 A 
ATOM     23  C   UNL     1      -4.985  12.212  19.255  0.00  0.00    +0.000 A 
ATOM     24  C   UNL     1      -3.597  12.270  19.430  0.00  0.00    +0.000 A 
ATOM     25 CL   UNL     1      -3.004  12.941  20.908  0.00  0.00    +0.000 Cl
ENDBRANCH  18  19
ENDBRANCH   7  18
TORSDOF 5
ENDMDL
