MODEL 1
REMARK VINA RESULT:      -7.2      0.000      0.000
REMARK  Name = 
REMARK  3 active torsions:
REMARK  status: ('A' for Active; 'I' for Inactive)
REMARK    1  A    between atoms: C_2  and  C_3
REMARK    2  A    between atoms: C_3  and  C_4
REMARK    3  A    between atoms: N_13  and  O_14
REMARK                            x       y       z     vdW  Elec       q    Type
REMARK                         _______ _______ _______ _____ _____    ______ ____
ROOT
ATOM      1  C   UNL     1       3.932   5.001  18.134  0.00  0.00    +0.000 C 
ATOM      2  C   UNL     1       4.341   4.387  16.756  0.00  0.00    +0.000 C 
ATOM      3  C   UNL     1       5.624   4.970  16.169  0.00  0.00    +0.000 C 
ATOM      4  C   UNL     1       6.725   4.828  17.192  0.00  0.00    +0.000 C 
ATOM      5  N   UNL     1       7.805   4.203  16.841  0.00  0.00    +0.000 NA
ATOM      6  C   UNL     1       6.444   5.446  18.546  0.00  0.00    +0.000 C 
ATOM      7  C   UNL     1       5.134   4.876  19.110  0.00  0.00    +0.000 C 
ENDROOT
BRANCH   1   8
ATOM      8  C   UNL     1       2.657   4.352  18.714  0.00  0.00    +0.000 A 
ATOM      9  C   UNL     1       2.066   4.779  19.920  0.00  0.00    +0.000 A 
ATOM     10  C   UNL     1       0.984   4.096  20.481  0.00  0.00    +0.000 A 
ATOM     11  C   UNL     1       0.459   2.976  19.848  0.00  0.00    +0.000 A 
ATOM     12  C   UNL     1       1.004   2.549  18.642  0.00  0.00    +0.000 A 
ATOM     13  C   UNL     1       2.087   3.230  18.079  0.00  0.00    +0.000 A 
ENDBRANCH   1   8
BRANCH   1  15
ATOM     14  N   UNL     1       3.389   7.693  17.697  0.00  0.00    +0.000 NA
ATOM     15  C   UNL     1       3.635   6.472  17.895  0.00  0.00    +0.000 C 
ENDBRANCH   1  15
BRANCH   5  16
ATOM     16  O   UNL     1       8.737   4.146  17.882  0.00  0.00    +0.000 OA
ATOM     17  H   UNL     1       9.406   3.530  17.528  0.00  0.00    +0.000 HD
ENDBRANCH   5  16
TORSDOF 3
ENDMDL
MODEL 2
REMARK VINA RESULT:      -7.2      3.032      5.418
REMARK  Name = 
REMARK  3 active torsions:
REMARK  status: ('A' for Active; 'I' for Inactive)
REMARK    1  A    between atoms: C_2  and  C_3
REMARK    2  A    between atoms: C_3  and  C_4
REMARK    3  A    between atoms: N_13  and  O_14
REMARK                            x       y       z     vdW  Elec       q    Type
REMARK                         _______ _______ _______ _____ _____    ______ ____
ROOT
ATOM      1  C   UNL     1       3.550   5.603  18.528  0.00  0.00    +0.000 C 
ATOM      2  C   UNL     1       3.171   5.126  19.967  0.00  0.00    +0.000 C 
ATOM      3  C   UNL     1       1.687   4.816  20.151  0.00  0.00    +0.000 C 
ATOM      4  C   UNL     1       1.276   3.809  19.104  0.00  0.00    +0.000 C 
ATOM      5  N   UNL     1       0.731   2.703  19.503  0.00  0.00    +0.000 NA
ATOM      6  C   UNL     1       1.550   4.209  17.669  0.00  0.00    +0.000 C 
ATOM      7  C   UNL     1       3.038   4.551  17.505  0.00  0.00    +0.000 C 
ENDROOT
BRANCH   1   8
ATOM      8  C   UNL     1       5.064   5.862  18.371  0.00  0.00    +0.000 A 
ATOM      9  C   UNL     1       6.024   5.325  19.251  0.00  0.00    +0.000 A 
ATOM     10  C   UNL     1       7.373   5.674  19.156  0.00  0.00    +0.000 A 
ATOM     11  C   UNL     1       7.799   6.561  18.174  0.00  0.00    +0.000 A 
ATOM     12  C   UNL     1       6.878   7.085  17.274  0.00  0.00    +0.000 A 
ATOM     13  C   UNL     1       5.527   6.738  17.368  0.00  0.00    +0.000 A 
ENDBRANCH   1   8
BRANCH   1  15
ATOM     14  N   UNL     1       2.229   8.012  18.093  0.00  0.00    +0.000 NA
ATOM     15  C   UNL     1       2.828   6.920  18.290  0.00  0.00    +0.000 C 
ENDBRANCH   1  15
BRANCH   5  16
ATOM     16  O   UNL     1       0.401   1.868  18.432  0.00  0.00    +0.000 OA
ATOM     17  H   UNL     1      -0.321   2.361  17.997  0.00  0.00    +0.000 HD
ENDBRANCH   5  16
TORSDOF 3
ENDMDL
MODEL 3
REMARK VINA RESULT:      -7.0      2.332      3.617
REMARK  Name = 
REMARK  3 active torsions:
REMARK  status: ('A' for Active; 'I' for Inactive)
REMARK    1  A    between atoms: C_2  and  C_3
REMARK    2  A    between atoms: C_3  and  C_4
REMARK    3  A    between atoms: N_13  and  O_14
REMARK                            x       y       z     vdW  Elec       q    Type
REMARK                         _______ _______ _______ _____ _____    ______ ____
ROOT
ATOM      1  C   UNL     1       3.391   5.985  18.264  0.00  0.00    +0.000 C 
ATOM      2  C   UNL     1       4.220   5.397  19.452  0.00  0.00    +0.000 C 
ATOM      3  C   UNL     1       5.028   4.152  19.092  0.00  0.00    +0.000 C 
ATOM      4  C   UNL     1       5.905   4.477  17.907  0.00  0.00    +0.000 C 
ATOM      5  N   UNL     1       7.182   4.287  18.024  0.00  0.00    +0.000 NA
ATOM      6  C   UNL     1       5.183   5.000  16.683  0.00  0.00    +0.000 C 
ATOM      7  C   UNL     1       4.347   6.231  17.064  0.00  0.00    +0.000 C 
ENDROOT
BRANCH   1   8
ATOM      8  C   UNL     1       2.625   7.267  18.656  0.00  0.00    +0.000 A 
ATOM      9  C   UNL     1       2.089   7.471  19.942  0.00  0.00    +0.000 A 
ATOM     10  C   UNL     1       1.298   8.586  20.232  0.00  0.00    +0.000 A 
ATOM     11  C   UNL     1       1.032   9.529  19.247  0.00  0.00    +0.000 A 
ATOM     12  C   UNL     1       1.572   9.368  17.976  0.00  0.00    +0.000 A 
ATOM     13  C   UNL     1       2.362   8.253  17.684  0.00  0.00    +0.000 A 
ENDBRANCH   1   8
BRANCH   1  15
ATOM     14  N   UNL     1       1.513   4.062  17.551  0.00  0.00    +0.000 NA
ATOM     15  C   UNL     1       2.364   4.934  17.874  0.00  0.00    +0.000 C 
ENDBRANCH   1  15
BRANCH   5  16
ATOM     16  O   UNL     1       7.869   4.628  16.856  0.00  0.00    +0.000 OA
ATOM     17  H   UNL     1       7.387   5.422  16.554  0.00  0.00    +0.000 HD
ENDBRANCH   5  16
TORSDOF 3
ENDMDL
MODEL 4
REMARK VINA RESULT:      -7.0      2.382      3.745
REMARK  Name = 
REMARK  3 active torsions:
REMARK  status: ('A' for Active; 'I' for Inactive)
REMARK    1  A    between atoms: C_2  and  C_3
REMARK    2  A    between atoms: C_3  and  C_4
REMARK    3  A    between atoms: N_13  and  O_14
REMARK                            x       y       z     vdW  Elec       q    Type
REMARK                         _______ _______ _______ _____ _____    ______ ____
ROOT
ATOM      1  C   UNL     1       3.252   5.972  18.307  0.00  0.00    +0.000 C 
ATOM      2  C   UNL     1       4.065   5.409  19.518  0.00  0.00    +0.000 C 
ATOM      3  C   UNL     1       4.925   4.194  19.181  0.00  0.00    +0.000 C 
ATOM      4  C   UNL     1       5.826   4.552  18.023  0.00  0.00    +0.000 C 
ATOM      5  N   UNL     1       7.104   4.405  18.178  0.00  0.00    +0.000 NA
ATOM      6  C   UNL     1       5.123   5.053  16.778  0.00  0.00    +0.000 C 
ATOM      7  C   UNL     1       4.235   6.253  17.136  0.00  0.00    +0.000 C 
ENDROOT
BRANCH   1   8
ATOM      8  C   UNL     1       2.432   7.226  18.677  0.00  0.00    +0.000 A 
ATOM      9  C   UNL     1       2.164   8.259  17.758  0.00  0.00    +0.000 A 
ATOM     10  C   UNL     1       1.523   9.436  18.154  0.00  0.00    +0.000 A 
ATOM     11  C   UNL     1       1.126   9.607  19.475  0.00  0.00    +0.000 A 
ATOM     12  C   UNL     1       1.353   8.591  20.398  0.00  0.00    +0.000 A 
ATOM     13  C   UNL     1       1.994   7.413  20.004  0.00  0.00    +0.000 A 
ENDBRANCH   1   8
BRANCH   1  15
ATOM     14  N   UNL     1       1.463   3.988  17.534  0.00  0.00    +0.000 NA
ATOM     15  C   UNL     1       2.274   4.887  17.884  0.00  0.00    +0.000 C 
ENDBRANCH   1  15
BRANCH   5  16
ATOM     16  O   UNL     1       7.814   4.772  17.031  0.00  0.00    +0.000 OA
ATOM     17  H   UNL     1       8.647   5.119  17.404  0.00  0.00    +0.000 HD
ENDBRANCH   5  16
TORSDOF 3
ENDMDL
MODEL 5
REMARK VINA RESULT:      -7.0      0.198      1.218
REMARK  Name = 
REMARK  3 active torsions:
REMARK  status: ('A' for Active; 'I' for Inactive)
REMARK    1  A    between atoms: C_2  and  C_3
REMARK    2  A    between atoms: C_3  and  C_4
REMARK    3  A    between atoms: N_13  and  O_14
REMARK                            x       y       z     vdW  Elec       q    Type
REMARK                         _______ _______ _______ _____ _____    ______ ____
ROOT
ATOM      1  C   UNL     1       3.974   4.776  18.210  0.00  0.00    +0.000 C 
ATOM      2  C   UNL     1       4.391   4.184  16.824  0.00  0.00    +0.000 C 
ATOM      3  C   UNL     1       5.634   4.830  16.218  0.00  0.00    +0.000 C 
ATOM      4  C   UNL     1       6.757   4.740  17.222  0.00  0.00    +0.000 C 
ATOM      5  N   UNL     1       7.861   4.169  16.853  0.00  0.00    +0.000 NA
ATOM      6  C   UNL     1       6.469   5.342  18.582  0.00  0.00    +0.000 C 
ATOM      7  C   UNL     1       5.197   4.709  19.166  0.00  0.00    +0.000 C 
ENDROOT
BRANCH   1   8
ATOM      8  C   UNL     1       2.742   4.066  18.809  0.00  0.00    +0.000 A 
ATOM      9  C   UNL     1       2.075   3.014  18.152  0.00  0.00    +0.000 A 
ATOM     10  C   UNL     1       0.892   2.472  18.662  0.00  0.00    +0.000 A 
ATOM     11  C   UNL     1       0.351   2.961  19.845  0.00  0.00    +0.000 A 
ATOM     12  C   UNL     1       1.004   3.981  20.529  0.00  0.00    +0.000 A 
ATOM     13  C   UNL     1       2.186   4.525  20.020  0.00  0.00    +0.000 A 
ENDBRANCH   1   8
BRANCH   1  15
ATOM     14  N   UNL     1       3.295   7.440  17.787  0.00  0.00    +0.000 NA
ATOM     15  C   UNL     1       3.603   6.232  17.979  0.00  0.00    +0.000 C 
ENDBRANCH   1  15
BRANCH   5  16
ATOM     16  O   UNL     1       8.810   4.156  17.878  0.00  0.00    +0.000 OA
ATOM     17  H   UNL     1       9.621   3.882  17.408  0.00  0.00    +0.000 HD
ENDBRANCH   5  16
TORSDOF 3
ENDMDL
MODEL 6
REMARK VINA RESULT:      -6.9      2.948      6.046
REMARK  Name = 
REMARK  3 active torsions:
REMARK  status: ('A' for Active; 'I' for Inactive)
REMARK    1  A    between atoms: C_2  and  C_3
REMARK    2  A    between atoms: C_3  and  C_4
REMARK    3  A    between atoms: N_13  and  O_14
REMARK                            x       y       z     vdW  Elec       q    Type
REMARK                         _______ _______ _______ _____ _____    ______ ____
ROOT
ATOM      1  C   UNL     1       5.804   4.851  15.945  0.00  0.00    +0.000 C 
ATOM      2  C   UNL     1       4.650   3.895  16.389  0.00  0.00    +0.000 C 
ATOM      3  C   UNL     1       4.085   4.200  17.774  0.00  0.00    +0.000 C 
ATOM      4  C   UNL     1       3.654   5.647  17.806  0.00  0.00    +0.000 C 
ATOM      5  N   UNL     1       2.427   5.910  18.132  0.00  0.00    +0.000 NA
ATOM      6  C   UNL     1       4.724   6.656  17.446  0.00  0.00    +0.000 C 
ATOM      7  C   UNL     1       5.308   6.319  16.067  0.00  0.00    +0.000 C 
ENDROOT
BRANCH   1   8
ATOM      8  C   UNL     1       6.316   4.538  14.522  0.00  0.00    +0.000 A 
ATOM      9  C   UNL     1       7.423   5.195  13.950  0.00  0.00    +0.000 A 
ATOM     10  C   UNL     1       7.789   4.978  12.618  0.00  0.00    +0.000 A 
ATOM     11  C   UNL     1       7.065   4.092  11.830  0.00  0.00    +0.000 A 
ATOM     12  C   UNL     1       5.985   3.408  12.377  0.00  0.00    +0.000 A 
ATOM     13  C   UNL     1       5.617   3.625  13.708  0.00  0.00    +0.000 A 
ENDBRANCH   1   8
BRANCH   1  15
ATOM     14  N   UNL     1       7.916   4.455  17.711  0.00  0.00    +0.000 NA
ATOM     15  C   UNL     1       6.958   4.634  16.910  0.00  0.00    +0.000 C 
ENDBRANCH   1  15
BRANCH   5  16
ATOM     16  O   UNL     1       2.167   7.283  18.121  0.00  0.00    +0.000 OA
ATOM     17  H   UNL     1       1.271   7.328  18.507  0.00  0.00    +0.000 HD
ENDBRANCH   5  16
TORSDOF 3
ENDMDL
MODEL 7
REMARK VINA RESULT:      -6.9      2.966      6.094
REMARK  Name = 
REMARK  3 active torsions:
REMARK  status: ('A' for Active; 'I' for Inactive)
REMARK    1  A    between atoms: C_2  and  C_3
REMARK    2  A    between atoms: C_3  and  C_4
REMARK    3  A    between atoms: N_13  and  O_14
REMARK                            x       y       z     vdW  Elec       q    Type
REMARK                         _______ _______ _______ _____ _____    ______ ____
ROOT
ATOM      1  C   UNL     1       5.730   4.839  15.832  0.00  0.00    +0.000 C 
ATOM      2  C   UNL     1       4.620   3.872  16.358  0.00  0.00    +0.000 C 
ATOM      3  C   UNL     1       4.173   4.156  17.790  0.00  0.00    +0.000 C 
ATOM      4  C   UNL     1       3.742   5.600  17.879  0.00  0.00    +0.000 C 
ATOM      5  N   UNL     1       2.547   5.854  18.312  0.00  0.00    +0.000 NA
ATOM      6  C   UNL     1       4.775   6.619  17.445  0.00  0.00    +0.000 C 
ATOM      7  C   UNL     1       5.242   6.303  16.017  0.00  0.00    +0.000 C 
ENDROOT
BRANCH   1   8
ATOM      8  C   UNL     1       6.121   4.548  14.367  0.00  0.00    +0.000 A 
ATOM      9  C   UNL     1       5.416   3.636  13.558  0.00  0.00    +0.000 A 
ATOM     10  C   UNL     1       5.865   3.303  12.277  0.00  0.00    +0.000 A 
ATOM     11  C   UNL     1       7.023   3.880  11.769  0.00  0.00    +0.000 A 
ATOM     12  C   UNL     1       7.724   4.805  12.536  0.00  0.00    +0.000 A 
ATOM     13  C   UNL     1       7.277   5.138  13.818  0.00  0.00    +0.000 A 
ENDBRANCH   1   8
BRANCH   1  15
ATOM     14  N   UNL     1       7.984   4.426  17.408  0.00  0.00    +0.000 NA
ATOM     15  C   UNL     1       6.962   4.613  16.694  0.00  0.00    +0.000 C 
ENDBRANCH   1  15
BRANCH   5  16
ATOM     16  O   UNL     1       2.283   7.226  18.342  0.00  0.00    +0.000 OA
ATOM     17  H   UNL     1       2.858   7.532  19.070  0.00  0.00    +0.000 HD
ENDBRANCH   5  16
TORSDOF 3
ENDMDL
MODEL 8
REMARK VINA RESULT:      -6.9      3.043      5.428
REMARK  Name = 
REMARK  3 active torsions:
REMARK  status: ('A' for Active; 'I' for Inactive)
REMARK    1  A    between atoms: C_2  and  C_3
REMARK    2  A    between atoms: C_3  and  C_4
REMARK    3  A    between atoms: N_13  and  O_14
REMARK                            x       y       z     vdW  Elec       q    Type
REMARK                         _______ _______ _______ _____ _____    ______ ____
ROOT
ATOM      1  C   UNL     1       3.464   5.642  18.559  0.00  0.00    +0.000 C 
ATOM      2  C   UNL     1       3.081   5.151  19.993  0.00  0.00    +0.000 C 
ATOM      3  C   UNL     1       1.605   4.799  20.158  0.00  0.00    +0.000 C 
ATOM      4  C   UNL     1       1.234   3.784  19.104  0.00  0.00    +0.000 C 
ATOM      5  N   UNL     1       0.715   2.663  19.494  0.00  0.00    +0.000 NA
ATOM      6  C   UNL     1       1.514   4.195  17.673  0.00  0.00    +0.000 C 
ATOM      7  C   UNL     1       2.994   4.579  17.528  0.00  0.00    +0.000 C 
ENDROOT
BRANCH   1   8
ATOM      8  C   UNL     1       4.972   5.943  18.421  0.00  0.00    +0.000 A 
ATOM      9  C   UNL     1       5.501   6.715  17.368  0.00  0.00    +0.000 A 
ATOM     10  C   UNL     1       6.880   6.870  17.202  0.00  0.00    +0.000 A 
ATOM     11  C   UNL     1       7.764   6.266  18.088  0.00  0.00    +0.000 A 
ATOM     12  C   UNL     1       7.268   5.521  19.153  0.00  0.00    +0.000 A 
ATOM     13  C   UNL     1       5.890   5.364  19.320  0.00  0.00    +0.000 A 
ENDBRANCH   1   8
BRANCH   1  15
ATOM     14  N   UNL     1       2.082   8.014  18.114  0.00  0.00    +0.000 NA
ATOM     15  C   UNL     1       2.709   6.939  18.316  0.00  0.00    +0.000 C 
ENDBRANCH   1  15
BRANCH   5  16
ATOM     16  O   UNL     1       0.421   1.821  18.418  0.00  0.00    +0.000 OA
ATOM     17  H   UNL     1       0.148   2.454  17.726  0.00  0.00    +0.000 HD
ENDBRANCH   5  16
TORSDOF 3
ENDMDL
MODEL 9
REMARK VINA RESULT:      -6.9      2.780      3.862
REMARK  Name = 
REMARK  3 active torsions:
REMARK  status: ('A' for Active; 'I' for Inactive)
REMARK    1  A    between atoms: C_2  and  C_3
REMARK    2  A    between atoms: C_3  and  C_4
REMARK    3  A    between atoms: N_13  and  O_14
REMARK                            x       y       z     vdW  Elec       q    Type
REMARK                         _______ _______ _______ _____ _____    ______ ____
ROOT
ATOM      1  C   UNL     1       3.521   6.043  18.200  0.00  0.00    +0.000 C 
ATOM      2  C   UNL     1       2.596   4.868  17.746  0.00  0.00    +0.000 C 
ATOM      3  C   UNL     1       3.346   3.593  17.371  0.00  0.00    +0.000 C 
ATOM      4  C   UNL     1       4.222   3.194  18.534  0.00  0.00    +0.000 C 
ATOM      5  N   UNL     1       4.078   2.004  19.026  0.00  0.00    +0.000 NA
ATOM      6  C   UNL     1       5.198   4.250  19.011  0.00  0.00    +0.000 C 
ATOM      7  C   UNL     1       4.436   5.539  19.351  0.00  0.00    +0.000 C 
ENDROOT
BRANCH   1   8
ATOM      8  C   UNL     1       2.723   7.298  18.614  0.00  0.00    +0.000 A 
ATOM      9  C   UNL     1       2.148   7.449  19.891  0.00  0.00    +0.000 A 
ATOM     10  C   UNL     1       1.330   8.540  20.196  0.00  0.00    +0.000 A 
ATOM     11  C   UNL     1       1.074   9.512  19.238  0.00  0.00    +0.000 A 
ATOM     12  C   UNL     1       1.652   9.404  17.977  0.00  0.00    +0.000 A 
ATOM     13  C   UNL     1       2.469   8.313  17.669  0.00  0.00    +0.000 A 
ENDBRANCH   1   8
BRANCH   1  15
ATOM     14  N   UNL     1       5.102   6.727  16.017  0.00  0.00    +0.000 NA
ATOM     15  C   UNL     1       4.385   6.417  17.007  0.00  0.00    +0.000 C 
ENDBRANCH   1  15
BRANCH   5  16
ATOM     16  O   UNL     1       4.949   1.771  20.094  0.00  0.00    +0.000 OA
ATOM     17  H   UNL     1       4.917   2.618  20.578  0.00  0.00    +0.000 HD
ENDBRANCH   5  16
TORSDOF 3
ENDMDL
