MODEL 1
REMARK VINA RESULT:      -5.9      0.000      0.000
REMARK  Name = 
REMARK  7 active torsions:
REMARK  status: ('A' for Active; 'I' for Inactive)
REMARK    1  A    between atoms: C_1  and  C_2
REMARK    2  A    between atoms: C_2  and  C_3
REMARK    3  A    between atoms: C_3  and  C_4
REMARK    4  A    between atoms: C_4  and  C_5
REMARK    5  A    between atoms: C_4  and  C_11
REMARK    6  A    between atoms: C_11  and  C_12
REMARK    7  A    between atoms: C_11  and  C_13
REMARK                            x       y       z     vdW  Elec       q    Type
REMARK                         _______ _______ _______ _____ _____    ______ ____
ROOT
ATOM      1  C   UNL     1       5.116   4.698  19.028  0.00  0.00    +0.000 C 
ATOM      2  O   UNL     1       5.158   5.828  19.523  0.00  0.00    +0.000 OA
ATOM      3  N   UNL     1       6.155   4.147  18.304  0.00  0.00    +0.000 N 
ATOM      4  C   UNL     1       7.286   4.756  17.839  0.00  0.00    +0.000 C 
ATOM      5  N   UNL     1       7.401   6.082  18.054  0.00  0.00    +0.000 N 
ATOM      6  O   UNL     1       8.135   4.127  17.220  0.00  0.00    +0.000 OA
ATOM      7  H   UNL     1       6.106   3.181  18.022  0.00  0.00    +0.000 HD
ATOM      8  H   UNL     1       6.812   6.520  18.760  0.00  0.00    +0.000 HD
ATOM      9  H   UNL     1       8.264   6.537  17.794  0.00  0.00    +0.000 HD
ENDROOT
BRANCH   1  10
ATOM     10  C   UNL     1       3.875   3.812  19.200  0.00  0.00    +0.000 C 
BRANCH  10  11
ATOM     11  C   UNL     1       3.107   3.502  17.886  0.00  0.00    +0.000 C 
ATOM     12  C   UNL     1       2.682   2.047  17.684  0.00  0.00    +0.000 C 
ATOM     13  C   UNL     1       1.888   4.417  17.718  0.00  0.00    +0.000 C 
ENDBRANCH  10  11
BRANCH  10  14
ATOM     14  C   UNL     1       3.006   4.358  20.354  0.00  0.00    +0.000 C 
BRANCH  14  16
ATOM     15  C   UNL     1       1.135   2.808  21.048  0.00  0.00    +0.000 C 
ATOM     16  C   UNL     1       2.555   3.275  21.341  0.00  0.00    +0.000 C 
ENDBRANCH  14  16
ENDBRANCH  10  14
ENDBRANCH   1  10
TORSDOF 4
ENDMDL
MODEL 2
REMARK VINA RESULT:      -5.8      1.765      2.503
REMARK  Name = 
REMARK  7 active torsions:
REMARK  status: ('A' for Active; 'I' for Inactive)
REMARK    1  A    between atoms: C_1  and  C_2
REMARK    2  A    between atoms: C_2  and  C_3
REMARK    3  A    between atoms: C_3  and  C_4
REMARK    4  A    between atoms: C_4  and  C_5
REMARK    5  A    between atoms: C_4  and  C_11
REMARK    6  A    between atoms: C_11  and  C_12
REMARK    7  A    between atoms: C_11  and  C_13
REMARK                            x       y       z     vdW  Elec       q    Type
REMARK                         _______ _______ _______ _____ _____    ______ ____
ROOT
ATOM      1  C   UNL     1       5.055   4.018  18.469  0.00  0.00    +0.000 C 
ATOM      2  O   UNL     1       5.654   3.718  19.505  0.00  0.00    +0.000 OA
ATOM      3  N   UNL     1       5.691   4.267  17.269  0.00  0.00    +0.000 N 
ATOM      4  C   UNL     1       7.027   4.426  17.030  0.00  0.00    +0.000 C 
ATOM      5  N   UNL     1       7.849   4.393  18.098  0.00  0.00    +0.000 N 
ATOM      6  O   UNL     1       7.448   4.628  15.897  0.00  0.00    +0.000 OA
ATOM      7  H   UNL     1       5.143   4.397  16.434  0.00  0.00    +0.000 HD
ATOM      8  H   UNL     1       7.508   3.996  18.971  0.00  0.00    +0.000 HD
ATOM      9  H   UNL     1       8.845   4.425  17.937  0.00  0.00    +0.000 HD
ENDROOT
BRANCH   1  10
ATOM     10  C   UNL     1       3.525   4.125  18.451  0.00  0.00    +0.000 C 
BRANCH  10  11
ATOM     11  C   UNL     1       2.787   2.853  17.950  0.00  0.00    +0.000 C 
ATOM     12  C   UNL     1       3.453   1.517  18.283  0.00  0.00    +0.000 C 
ATOM     13  C   UNL     1       1.328   2.826  18.422  0.00  0.00    +0.000 C 
ENDBRANCH  10  11
BRANCH  10  14
ATOM     14  C   UNL     1       3.106   5.441  17.758  0.00  0.00    +0.000 C 
BRANCH  14  16
ATOM     15  C   UNL     1       2.407   7.851  18.043  0.00  0.00    +0.000 C 
ATOM     16  C   UNL     1       3.033   6.636  18.714  0.00  0.00    +0.000 C 
ENDBRANCH  14  16
ENDBRANCH  10  14
ENDBRANCH   1  10
TORSDOF 4
ENDMDL
MODEL 3
REMARK VINA RESULT:      -5.8      2.081      2.951
REMARK  Name = 
REMARK  7 active torsions:
REMARK  status: ('A' for Active; 'I' for Inactive)
REMARK    1  A    between atoms: C_1  and  C_2
REMARK    2  A    between atoms: C_2  and  C_3
REMARK    3  A    between atoms: C_3  and  C_4
REMARK    4  A    between atoms: C_4  and  C_5
REMARK    5  A    between atoms: C_4  and  C_11
REMARK    6  A    between atoms: C_11  and  C_12
REMARK    7  A    between atoms: C_11  and  C_13
REMARK                            x       y       z     vdW  Elec       q    Type
REMARK                         _______ _______ _______ _____ _____    ______ ____
ROOT
ATOM      1  C   UNL     1       5.002   4.687  18.700  0.00  0.00    +0.000 C 
ATOM      2  O   UNL     1       5.458   3.763  19.378  0.00  0.00    +0.000 OA
ATOM      3  N   UNL     1       5.683   5.264  17.646  0.00  0.00    +0.000 N 
ATOM      4  C   UNL     1       6.988   5.092  17.280  0.00  0.00    +0.000 C 
ATOM      5  N   UNL     1       7.748   4.304  18.068  0.00  0.00    +0.000 N 
ATOM      6  O   UNL     1       7.452   5.665  16.301  0.00  0.00    +0.000 OA
ATOM      7  H   UNL     1       5.215   5.936  17.060  0.00  0.00    +0.000 HD
ATOM      8  H   UNL     1       7.289   3.669  18.718  0.00  0.00    +0.000 HD
ATOM      9  H   UNL     1       8.690   4.097  17.772  0.00  0.00    +0.000 HD
ENDROOT
BRANCH   1  10
ATOM     10  C   UNL     1       3.608   5.260  18.990  0.00  0.00    +0.000 C 
BRANCH  10  11
ATOM     11  C   UNL     1       2.467   4.207  19.035  0.00  0.00    +0.000 C 
ATOM     12  C   UNL     1       1.502   4.315  20.217  0.00  0.00    +0.000 C 
ATOM     13  C   UNL     1       1.669   4.186  17.726  0.00  0.00    +0.000 C 
ENDBRANCH  10  11
BRANCH  10  14
ATOM     14  C   UNL     1       3.345   6.472  18.070  0.00  0.00    +0.000 C 
BRANCH  14  16
ATOM     15  C   UNL     1       2.227   8.719  17.775  0.00  0.00    +0.000 C 
ATOM     16  C   UNL     1       2.503   7.568  18.734  0.00  0.00    +0.000 C 
ENDBRANCH  14  16
ENDBRANCH  10  14
ENDBRANCH   1  10
TORSDOF 4
ENDMDL
MODEL 4
REMARK VINA RESULT:      -5.6      0.913      1.291
REMARK  Name = 
REMARK  7 active torsions:
REMARK  status: ('A' for Active; 'I' for Inactive)
REMARK    1  A    between atoms: C_1  and  C_2
REMARK    2  A    between atoms: C_2  and  C_3
REMARK    3  A    between atoms: C_3  and  C_4
REMARK    4  A    between atoms: C_4  and  C_5
REMARK    5  A    between atoms: C_4  and  C_11
REMARK    6  A    between atoms: C_11  and  C_12
REMARK    7  A    between atoms: C_11  and  C_13
REMARK                            x       y       z     vdW  Elec       q    Type
REMARK                         _______ _______ _______ _____ _____    ______ ____
ROOT
ATOM      1  C   UNL     1       5.087   4.820  18.636  0.00  0.00    +0.000 C 
ATOM      2  O   UNL     1       4.850   5.983  18.301  0.00  0.00    +0.000 OA
ATOM      3  N   UNL     1       6.321   4.221  18.477  0.00  0.00    +0.000 N 
ATOM      4  C   UNL     1       7.406   4.677  17.783  0.00  0.00    +0.000 C 
ATOM      5  N   UNL     1       7.261   5.837  17.111  0.00  0.00    +0.000 N 
ATOM      6  O   UNL     1       8.449   4.035  17.745  0.00  0.00    +0.000 OA
ATOM      7  H   UNL     1       6.485   3.308  18.871  0.00  0.00    +0.000 HD
ATOM      8  H   UNL     1       6.484   6.450  17.348  0.00  0.00    +0.000 HD
ATOM      9  H   UNL     1       8.072   6.234  16.660  0.00  0.00    +0.000 HD
ENDROOT
BRANCH   1  10
ATOM     10  C   UNL     1       3.997   3.949  19.275  0.00  0.00    +0.000 C 
BRANCH  10  11
ATOM     11  C   UNL     1       3.209   3.055  18.279  0.00  0.00    +0.000 C 
ATOM     12  C   UNL     1       3.291   3.457  16.806  0.00  0.00    +0.000 C 
ATOM     13  C   UNL     1       3.592   1.578  18.426  0.00  0.00    +0.000 C 
ENDBRANCH  10  11
BRANCH  10  14
ATOM     14  C   UNL     1       3.124   4.816  20.209  0.00  0.00    +0.000 C 
BRANCH  14  16
ATOM     15  C   UNL     1       1.853   3.192  21.668  0.00  0.00    +0.000 C 
ATOM     16  C   UNL     1       1.761   4.191  20.522  0.00  0.00    +0.000 C 
ENDBRANCH  14  16
ENDBRANCH  10  14
ENDBRANCH   1  10
TORSDOF 4
ENDMDL
MODEL 5
REMARK VINA RESULT:      -5.6      1.619      2.328
REMARK  Name = 
REMARK  7 active torsions:
REMARK  status: ('A' for Active; 'I' for Inactive)
REMARK    1  A    between atoms: C_1  and  C_2
REMARK    2  A    between atoms: C_2  and  C_3
REMARK    3  A    between atoms: C_3  and  C_4
REMARK    4  A    between atoms: C_4  and  C_5
REMARK    5  A    between atoms: C_4  and  C_11
REMARK    6  A    between atoms: C_11  and  C_12
REMARK    7  A    between atoms: C_11  and  C_13
REMARK                            x       y       z     vdW  Elec       q    Type
REMARK                         _______ _______ _______ _____ _____    ______ ____
ROOT
ATOM      1  C   UNL     1       4.993   4.212  17.989  0.00  0.00    +0.000 C 
ATOM      2  O   UNL     1       5.393   3.848  19.098  0.00  0.00    +0.000 OA
ATOM      3  N   UNL     1       5.831   4.425  16.912  0.00  0.00    +0.000 N 
ATOM      4  C   UNL     1       7.196   4.475  16.892  0.00  0.00    +0.000 C 
ATOM      5  N   UNL     1       7.832   4.358  18.076  0.00  0.00    +0.000 N 
ATOM      6  O   UNL     1       7.808   4.657  15.847  0.00  0.00    +0.000 OA
ATOM      7  H   UNL     1       5.436   4.611  16.005  0.00  0.00    +0.000 HD
ATOM      8  H   UNL     1       7.324   3.979  18.873  0.00  0.00    +0.000 HD
ATOM      9  H   UNL     1       8.839   4.309  18.076  0.00  0.00    +0.000 HD
ENDROOT
BRANCH   1  10
ATOM     10  C   UNL     1       3.499   4.447  17.732  0.00  0.00    +0.000 C 
BRANCH  10  11
ATOM     11  C   UNL     1       2.930   5.756  18.344  0.00  0.00    +0.000 C 
ATOM     12  C   UNL     1       3.053   5.896  19.862  0.00  0.00    +0.000 C 
ATOM     13  C   UNL     1       3.524   6.998  17.668  0.00  0.00    +0.000 C 
ENDBRANCH  10  11
BRANCH  10  14
ATOM     14  C   UNL     1       2.707   3.166  18.074  0.00  0.00    +0.000 C 
BRANCH  14  16
ATOM     15  C   UNL     1       0.811   2.947  19.729  0.00  0.00    +0.000 C 
ATOM     16  C   UNL     1       1.220   3.423  18.342  0.00  0.00    +0.000 C 
ENDBRANCH  14  16
ENDBRANCH  10  14
ENDBRANCH   1  10
TORSDOF 4
ENDMDL
MODEL 6
REMARK VINA RESULT:      -5.6      1.064      1.258
REMARK  Name = 
REMARK  7 active torsions:
REMARK  status: ('A' for Active; 'I' for Inactive)
REMARK    1  A    between atoms: C_1  and  C_2
REMARK    2  A    between atoms: C_2  and  C_3
REMARK    3  A    between atoms: C_3  and  C_4
REMARK    4  A    between atoms: C_4  and  C_5
REMARK    5  A    between atoms: C_4  and  C_11
REMARK    6  A    between atoms: C_11  and  C_12
REMARK    7  A    between atoms: C_11  and  C_13
REMARK                            x       y       z     vdW  Elec       q    Type
REMARK                         _______ _______ _______ _____ _____    ______ ____
ROOT
ATOM      1  C   UNL     1       5.298   4.256  18.933  0.00  0.00    +0.000 C 
ATOM      2  O   UNL     1       5.819   4.539  20.016  0.00  0.00    +0.000 OA
ATOM      3  N   UNL     1       6.004   4.171  17.750  0.00  0.00    +0.000 N 
ATOM      4  C   UNL     1       7.292   4.549  17.498  0.00  0.00    +0.000 C 
ATOM      5  N   UNL     1       7.968   5.138  18.506  0.00  0.00    +0.000 N 
ATOM      6  O   UNL     1       7.792   4.395  16.390  0.00  0.00    +0.000 OA
ATOM      7  H   UNL     1       5.546   3.827  16.922  0.00  0.00    +0.000 HD
ATOM      8  H   UNL     1       7.618   5.039  19.457  0.00  0.00    +0.000 HD
ATOM      9  H   UNL     1       8.944   5.350  18.369  0.00  0.00    +0.000 HD
ENDROOT
BRANCH   1  10
ATOM     10  C   UNL     1       3.794   3.966  18.839  0.00  0.00    +0.000 C 
BRANCH  10  11
ATOM     11  C   UNL     1       3.038   4.785  17.757  0.00  0.00    +0.000 C 
ATOM     12  C   UNL     1       1.564   4.431  17.556  0.00  0.00    +0.000 C 
ATOM     13  C   UNL     1       3.171   6.293  17.999  0.00  0.00    +0.000 C 
ENDBRANCH  10  11
BRANCH  10  14
ATOM     14  C   UNL     1       3.169   4.011  20.251  0.00  0.00    +0.000 C 
BRANCH  14  16
ATOM     15  C   UNL     1       1.390   2.729  21.505  0.00  0.00    +0.000 C 
ATOM     16  C   UNL     1       2.714   2.639  20.760  0.00  0.00    +0.000 C 
ENDBRANCH  14  16
ENDBRANCH  10  14
ENDBRANCH   1  10
TORSDOF 4
ENDMDL
MODEL 7
REMARK VINA RESULT:      -5.6      1.935      2.847
REMARK  Name = 
REMARK  7 active torsions:
REMARK  status: ('A' for Active; 'I' for Inactive)
REMARK    1  A    between atoms: C_1  and  C_2
REMARK    2  A    between atoms: C_2  and  C_3
REMARK    3  A    between atoms: C_3  and  C_4
REMARK    4  A    between atoms: C_4  and  C_5
REMARK    5  A    between atoms: C_4  and  C_11
REMARK    6  A    between atoms: C_11  and  C_12
REMARK    7  A    between atoms: C_11  and  C_13
REMARK                            x       y       z     vdW  Elec       q    Type
REMARK                         _______ _______ _______ _____ _____    ______ ____
ROOT
ATOM      1  C   UNL     1       5.209   4.463  18.462  0.00  0.00    +0.000 C 
ATOM      2  O   UNL     1       5.821   3.916  19.385  0.00  0.00    +0.000 OA
ATOM      3  N   UNL     1       5.771   4.722  17.228  0.00  0.00    +0.000 N 
ATOM      4  C   UNL     1       7.081   4.626  16.851  0.00  0.00    +0.000 C 
ATOM      5  N   UNL     1       7.971   4.288  17.806  0.00  0.00    +0.000 N 
ATOM      6  O   UNL     1       7.429   4.876  15.704  0.00  0.00    +0.000 OA
ATOM      7  H   UNL     1       5.190   5.066  16.481  0.00  0.00    +0.000 HD
ATOM      8  H   UNL     1       7.632   3.865  18.668  0.00  0.00    +0.000 HD
ATOM      9  H   UNL     1       8.929   4.131  17.534  0.00  0.00    +0.000 HD
ENDROOT
BRANCH   1  10
ATOM     10  C   UNL     1       3.746   4.889  18.636  0.00  0.00    +0.000 C 
BRANCH  10  11
ATOM     11  C   UNL     1       2.706   3.753  18.431  0.00  0.00    +0.000 C 
ATOM     12  C   UNL     1       1.438   4.135  17.666  0.00  0.00    +0.000 C 
ATOM     13  C   UNL     1       3.342   2.520  17.780  0.00  0.00    +0.000 C 
ENDBRANCH  10  11
BRANCH  10  14
ATOM     14  C   UNL     1       3.481   6.174  17.820  0.00  0.00    +0.000 C 
BRANCH  14  16
ATOM     15  C   UNL     1       2.380   8.446  17.731  0.00  0.00    +0.000 C 
ATOM     16  C   UNL     1       2.723   7.249  18.607  0.00  0.00    +0.000 C 
ENDBRANCH  14  16
ENDBRANCH  10  14
ENDBRANCH   1  10
TORSDOF 4
ENDMDL
MODEL 8
REMARK VINA RESULT:      -5.5      2.968      4.568
REMARK  Name = 
REMARK  7 active torsions:
REMARK  status: ('A' for Active; 'I' for Inactive)
REMARK    1  A    between atoms: C_1  and  C_2
REMARK    2  A    between atoms: C_2  and  C_3
REMARK    3  A    between atoms: C_3  and  C_4
REMARK    4  A    between atoms: C_4  and  C_5
REMARK    5  A    between atoms: C_4  and  C_11
REMARK    6  A    between atoms: C_11  and  C_12
REMARK    7  A    between atoms: C_11  and  C_13
REMARK                            x       y       z     vdW  Elec       q    Type
REMARK                         _______ _______ _______ _____ _____    ______ ____
ROOT
ATOM      1  C   UNL     1       5.897   4.957  16.163  0.00  0.00    +0.000 C 
ATOM      2  O   UNL     1       5.100   4.025  16.023  0.00  0.00    +0.000 OA
ATOM      3  N   UNL     1       6.732   5.400  15.157  0.00  0.00    +0.000 N 
ATOM      4  C   UNL     1       6.988   4.822  13.945  0.00  0.00    +0.000 C 
ATOM      5  N   UNL     1       6.402   3.633  13.697  0.00  0.00    +0.000 N 
ATOM      6  O   UNL     1       7.748   5.347  13.141  0.00  0.00    +0.000 OA
ATOM      7  H   UNL     1       7.279   6.235  15.296  0.00  0.00    +0.000 HD
ATOM      8  H   UNL     1       5.610   3.345  14.269  0.00  0.00    +0.000 HD
ATOM      9  H   UNL     1       6.509   3.228  12.780  0.00  0.00    +0.000 HD
ENDROOT
BRANCH   1  10
ATOM     10  C   UNL     1       6.003   5.703  17.499  0.00  0.00    +0.000 C 
BRANCH  10  11
ATOM     11  C   UNL     1       7.426   6.219  17.848  0.00  0.00    +0.000 C 
ATOM     12  C   UNL     1       7.649   7.725  17.703  0.00  0.00    +0.000 C 
ATOM     13  C   UNL     1       7.858   5.773  19.250  0.00  0.00    +0.000 C 
ENDBRANCH  10  11
BRANCH  10  14
ATOM     14  C   UNL     1       5.315   4.878  18.609  0.00  0.00    +0.000 C 
BRANCH  14  16
ATOM     15  C   UNL     1       3.030   5.905  18.283  0.00  0.00    +0.000 C 
ATOM     16  C   UNL     1       4.146   5.611  19.277  0.00  0.00    +0.000 C 
ENDBRANCH  14  16
ENDBRANCH  10  14
ENDBRANCH   1  10
TORSDOF 4
ENDMDL
MODEL 9
REMARK VINA RESULT:      -5.5      3.725      5.364
REMARK  Name = 
REMARK  7 active torsions:
REMARK  status: ('A' for Active; 'I' for Inactive)
REMARK    1  A    between atoms: C_1  and  C_2
REMARK    2  A    between atoms: C_2  and  C_3
REMARK    3  A    between atoms: C_3  and  C_4
REMARK    4  A    between atoms: C_4  and  C_5
REMARK    5  A    between atoms: C_4  and  C_11
REMARK    6  A    between atoms: C_11  and  C_12
REMARK    7  A    between atoms: C_11  and  C_13
REMARK                            x       y       z     vdW  Elec       q    Type
REMARK                         _______ _______ _______ _____ _____    ______ ____
ROOT
ATOM      1  C   UNL     1       6.798   4.832  14.434  0.00  0.00    +0.000 C 
ATOM      2  O   UNL     1       7.813   5.400  14.023  0.00  0.00    +0.000 OA
ATOM      3  N   UNL     1       6.128   3.861  13.717  0.00  0.00    +0.000 N 
ATOM      4  C   UNL     1       6.306   3.489  12.414  0.00  0.00    +0.000 C 
ATOM      5  N   UNL     1       7.211   4.184  11.696  0.00  0.00    +0.000 N 
ATOM      6  O   UNL     1       5.640   2.589  11.916  0.00  0.00    +0.000 OA
ATOM      7  H   UNL     1       5.373   3.355  14.151  0.00  0.00    +0.000 HD
ATOM      8  H   UNL     1       7.900   4.751  12.187  0.00  0.00    +0.000 HD
ATOM      9  H   UNL     1       7.419   3.874  10.759  0.00  0.00    +0.000 HD
ENDROOT
BRANCH   1  10
ATOM     10  C   UNL     1       6.209   5.176  15.809  0.00  0.00    +0.000 C 
BRANCH  10  11
ATOM     11  C   UNL     1       7.223   5.779  16.820  0.00  0.00    +0.000 C 
ATOM     12  C   UNL     1       6.819   7.106  17.464  0.00  0.00    +0.000 C 
ATOM     13  C   UNL     1       7.590   4.772  17.916  0.00  0.00    +0.000 C 
ENDBRANCH  10  11
BRANCH  10  14
ATOM     14  C   UNL     1       5.392   3.976  16.337  0.00  0.00    +0.000 C 
BRANCH  14  16
ATOM     15  C   UNL     1       3.386   3.203  17.662  0.00  0.00    +0.000 C 
ATOM     16  C   UNL     1       4.055   4.380  16.967  0.00  0.00    +0.000 C 
ENDBRANCH  14  16
ENDBRANCH  10  14
ENDBRANCH   1  10
TORSDOF 4
ENDMDL
