MODEL 1
REMARK VINA RESULT:      -6.6      0.000      0.000
REMARK  Name = 
REMARK  5 active torsions:
REMARK  status: ('A' for Active; 'I' for Inactive)
REMARK    1  A    between atoms: C_1  and  C_2
REMARK    2  A    between atoms: C_5  and  C_6
REMARK    3  A    between atoms: N_8  and  C_9
REMARK    4  A    between atoms: C_9  and  C_10
REMARK    5  A    between atoms: C_10  and  O_12
REMARK                            x       y       z     vdW  Elec       q    Type
REMARK                         _______ _______ _______ _____ _____    ______ ____
ROOT
ATOM      1  C   UNL     1       5.093   4.248  17.596  0.00  0.00    +0.000 C 
ATOM      2  O   UNL     1       4.833   5.211  16.889  0.00  0.00    +0.000 OA
ATOM      3  N   UNL     1       6.345   4.086  18.151  0.00  0.00    +0.000 N 
ATOM      4  H   UNL     1       6.518   3.376  18.857  0.00  0.00    +0.000 HD
ENDROOT
BRANCH   1   9
ATOM      5  C   UNL     1       0.746   3.300  19.785  0.00  0.00    +0.000 C 
ATOM      6  C   UNL     1       1.790   4.373  19.465  0.00  0.00    +0.000 C 
ATOM      7  C   UNL     1       3.131   4.066  20.143  0.00  0.00    +0.000 C 
ATOM      8  C   UNL     1       3.897   2.929  19.461  0.00  0.00    +0.000 C 
ATOM      9  C   UNL     1       4.085   3.145  17.947  0.00  0.00    +0.000 C 
ATOM     10  C   UNL     1       2.725   3.406  17.286  0.00  0.00    +0.000 C 
ATOM     11  C   UNL     1       1.973   4.560  17.953  0.00  0.00    +0.000 C 
ENDBRANCH   1   9
BRANCH   3  12
ATOM     12  C   UNL     1       7.430   5.011  17.873  0.00  0.00    +0.000 C 
BRANCH  12  13
ATOM     13  C   UNL     1       7.778   5.785  19.139  0.00  0.00    +0.000 C 
ATOM     14  O   UNL     1       7.557   5.379  20.269  0.00  0.00    +0.000 OA
BRANCH  13  15
ATOM     15  O   UNL     1       8.355   6.986  18.899  0.00  0.00    +0.000 OA
ATOM     16  H   UNL     1       7.758   7.749  19.012  0.00  0.00    +0.000 HD
ENDBRANCH  13  15
ENDBRANCH  12  13
ENDBRANCH   3  12
TORSDOF 4
ENDMDL
MODEL 2
REMARK VINA RESULT:      -6.6      1.609      2.566
REMARK  Name = 
REMARK  5 active torsions:
REMARK  status: ('A' for Active; 'I' for Inactive)
REMARK    1  A    between atoms: C_1  and  C_2
REMARK    2  A    between atoms: C_5  and  C_6
REMARK    3  A    between atoms: N_8  and  C_9
REMARK    4  A    between atoms: C_9  and  C_10
REMARK    5  A    between atoms: C_10  and  O_12
REMARK                            x       y       z     vdW  Elec       q    Type
REMARK                         _______ _______ _______ _____ _____    ______ ____
ROOT
ATOM      1  C   UNL     1       5.235   4.657  18.815  0.00  0.00    +0.000 C 
ATOM      2  O   UNL     1       5.059   5.851  18.619  0.00  0.00    +0.000 OA
ATOM      3  N   UNL     1       6.361   4.013  18.348  0.00  0.00    +0.000 N 
ATOM      4  H   UNL     1       6.583   3.066  18.640  0.00  0.00    +0.000 HD
ENDROOT
BRANCH   1   9
ATOM      5  C   UNL     1       0.722   2.600  18.751  0.00  0.00    +0.000 C 
ATOM      6  C   UNL     1       1.697   3.527  18.019  0.00  0.00    +0.000 C 
ATOM      7  C   UNL     1       2.017   4.773  18.855  0.00  0.00    +0.000 C 
ATOM      8  C   UNL     1       2.963   4.480  20.022  0.00  0.00    +0.000 C 
ATOM      9  C   UNL     1       4.257   3.763  19.591  0.00  0.00    +0.000 C 
ATOM     10  C   UNL     1       3.910   2.498  18.796  0.00  0.00    +0.000 C 
ATOM     11  C   UNL     1       2.985   2.797  17.614  0.00  0.00    +0.000 C 
ENDBRANCH   1   9
BRANCH   3  12
ATOM     12  C   UNL     1       7.358   4.702  17.547  0.00  0.00    +0.000 C 
BRANCH  12  13
ATOM     13  C   UNL     1       7.011   4.564  16.069  0.00  0.00    +0.000 C 
ATOM     14  O   UNL     1       7.392   5.338  15.204  0.00  0.00    +0.000 OA
BRANCH  13  15
ATOM     15  O   UNL     1       6.224   3.498  15.794  0.00  0.00    +0.000 OA
ATOM     16  H   UNL     1       5.309   3.727  15.545  0.00  0.00    +0.000 HD
ENDBRANCH  13  15
ENDBRANCH  12  13
ENDBRANCH   3  12
TORSDOF 4
ENDMDL
MODEL 3
REMARK VINA RESULT:      -6.4      1.356      1.667
REMARK  Name = 
REMARK  5 active torsions:
REMARK  status: ('A' for Active; 'I' for Inactive)
REMARK    1  A    between atoms: C_1  and  C_2
REMARK    2  A    between atoms: C_5  and  C_6
REMARK    3  A    between atoms: N_8  and  C_9
REMARK    4  A    between atoms: C_9  and  C_10
REMARK    5  A    between atoms: C_10  and  O_12
REMARK                            x       y       z     vdW  Elec       q    Type
REMARK                         _______ _______ _______ _____ _____    ______ ____
ROOT
ATOM      1  C   UNL     1       4.114   4.270  17.095  0.00  0.00    +0.000 C 
ATOM      2  O   UNL     1       3.998   5.482  16.988  0.00  0.00    +0.000 OA
ATOM      3  N   UNL     1       5.314   3.641  16.842  0.00  0.00    +0.000 N 
ATOM      4  H   UNL     1       5.455   2.664  17.078  0.00  0.00    +0.000 HD
ENDROOT
BRANCH   1   9
ATOM      5  C   UNL     1       1.257   2.858  20.895  0.00  0.00    +0.000 C 
ATOM      6  C   UNL     1       2.424   3.746  20.456  0.00  0.00    +0.000 C 
ATOM      7  C   UNL     1       3.612   2.907  19.970  0.00  0.00    +0.000 C 
ATOM      8  C   UNL     1       3.382   2.296  18.584  0.00  0.00    +0.000 C 
ATOM      9  C   UNL     1       2.974   3.334  17.522  0.00  0.00    +0.000 C 
ATOM     10  C   UNL     1       1.758   4.130  18.014  0.00  0.00    +0.000 C 
ATOM     11  C   UNL     1       1.999   4.761  19.387  0.00  0.00    +0.000 C 
ENDBRANCH   1   9
BRANCH   3  12
ATOM     12  C   UNL     1       6.478   4.375  16.375  0.00  0.00    +0.000 C 
BRANCH  12  13
ATOM     13  C   UNL     1       7.340   4.779  17.566  0.00  0.00    +0.000 C 
ATOM     14  O   UNL     1       7.105   5.741  18.282  0.00  0.00    +0.000 OA
BRANCH  13  15
ATOM     15  O   UNL     1       8.409   3.973  17.760  0.00  0.00    +0.000 OA
ATOM     16  H   UNL     1       9.073   4.328  18.380  0.00  0.00    +0.000 HD
ENDBRANCH  13  15
ENDBRANCH  12  13
ENDBRANCH   3  12
TORSDOF 4
ENDMDL
MODEL 4
REMARK VINA RESULT:      -6.4      1.481      1.925
REMARK  Name = 
REMARK  5 active torsions:
REMARK  status: ('A' for Active; 'I' for Inactive)
REMARK    1  A    between atoms: C_1  and  C_2
REMARK    2  A    between atoms: C_5  and  C_6
REMARK    3  A    between atoms: N_8  and  C_9
REMARK    4  A    between atoms: C_9  and  C_10
REMARK    5  A    between atoms: C_10  and  O_12
REMARK                            x       y       z     vdW  Elec       q    Type
REMARK                         _______ _______ _______ _____ _____    ______ ____
ROOT
ATOM      1  C   UNL     1       5.240   4.353  18.876  0.00  0.00    +0.000 C 
ATOM      2  O   UNL     1       4.883   5.457  19.263  0.00  0.00    +0.000 OA
ATOM      3  N   UNL     1       6.473   4.166  18.289  0.00  0.00    +0.000 N 
ATOM      4  H   UNL     1       6.833   3.234  18.109  0.00  0.00    +0.000 HD
ENDROOT
BRANCH   1   9
ATOM      5  C   UNL     1       0.614   2.569  18.789  0.00  0.00    +0.000 C 
ATOM      6  C   UNL     1       1.483   3.827  18.712  0.00  0.00    +0.000 C 
ATOM      7  C   UNL     1       2.245   4.060  20.023  0.00  0.00    +0.000 C 
ATOM      8  C   UNL     1       3.422   3.098  20.205  0.00  0.00    +0.000 C 
ATOM      9  C   UNL     1       4.388   3.083  19.005  0.00  0.00    +0.000 C 
ATOM     10  C   UNL     1       3.607   2.806  17.713  0.00  0.00    +0.000 C 
ATOM     11  C   UNL     1       2.447   3.785  17.520  0.00  0.00    +0.000 C 
ENDBRANCH   1   9
BRANCH   3  12
ATOM     12  C   UNL     1       7.379   5.276  18.043  0.00  0.00    +0.000 C 
BRANCH  12  13
ATOM     13  C   UNL     1       7.029   5.936  16.714  0.00  0.00    +0.000 C 
ATOM     14  O   UNL     1       7.410   5.526  15.628  0.00  0.00    +0.000 OA
BRANCH  13  15
ATOM     15  O   UNL     1       6.254   7.037  16.843  0.00  0.00    +0.000 OA
ATOM     16  H   UNL     1       6.719   7.878  16.679  0.00  0.00    +0.000 HD
ENDBRANCH  13  15
ENDBRANCH  12  13
ENDBRANCH   3  12
TORSDOF 4
ENDMDL
MODEL 5
REMARK VINA RESULT:      -6.3      1.902      3.181
REMARK  Name = 
REMARK  5 active torsions:
REMARK  status: ('A' for Active; 'I' for Inactive)
REMARK    1  A    between atoms: C_1  and  C_2
REMARK    2  A    between atoms: C_5  and  C_6
REMARK    3  A    between atoms: N_8  and  C_9
REMARK    4  A    between atoms: C_9  and  C_10
REMARK    5  A    between atoms: C_10  and  O_12
REMARK                            x       y       z     vdW  Elec       q    Type
REMARK                         _______ _______ _______ _____ _____    ______ ____
ROOT
ATOM      1  C   UNL     1       5.183   4.544  18.436  0.00  0.00    +0.000 C 
ATOM      2  O   UNL     1       5.984   4.188  19.289  0.00  0.00    +0.000 OA
ATOM      3  N   UNL     1       5.563   4.709  17.122  0.00  0.00    +0.000 N 
ATOM      4  H   UNL     1       4.874   4.852  16.390  0.00  0.00    +0.000 HD
ENDROOT
BRANCH   1   9
ATOM      5  C   UNL     1       0.707   2.481  18.987  0.00  0.00    +0.000 C 
ATOM      6  C   UNL     1       2.181   2.228  18.660  0.00  0.00    +0.000 C 
ATOM      7  C   UNL     1       2.597   2.947  17.370  0.00  0.00    +0.000 C 
ATOM      8  C   UNL     1       2.761   4.458  17.557  0.00  0.00    +0.000 C 
ATOM      9  C   UNL     1       3.701   4.829  18.719  0.00  0.00    +0.000 C 
ATOM     10  C   UNL     1       3.238   4.133  20.006  0.00  0.00    +0.000 C 
ATOM     11  C   UNL     1       3.100   2.619  19.824  0.00  0.00    +0.000 C 
ENDBRANCH   1   9
BRANCH   3  12
ATOM     12  C   UNL     1       6.942   4.533  16.697  0.00  0.00    +0.000 C 
BRANCH  12  13
ATOM     13  C   UNL     1       7.013   4.549  15.174  0.00  0.00    +0.000 C 
ATOM     14  O   UNL     1       7.603   5.402  14.528  0.00  0.00    +0.000 OA
BRANCH  13  15
ATOM     15  O   UNL     1       6.349   3.525  14.590  0.00  0.00    +0.000 OA
ATOM     16  H   UNL     1       5.455   3.754  14.273  0.00  0.00    +0.000 HD
ENDBRANCH  13  15
ENDBRANCH  12  13
ENDBRANCH   3  12
TORSDOF 4
ENDMDL
MODEL 6
REMARK VINA RESULT:      -6.2      1.625      2.557
REMARK  Name = 
REMARK  5 active torsions:
REMARK  status: ('A' for Active; 'I' for Inactive)
REMARK    1  A    between atoms: C_1  and  C_2
REMARK    2  A    between atoms: C_5  and  C_6
REMARK    3  A    between atoms: N_8  and  C_9
REMARK    4  A    between atoms: C_9  and  C_10
REMARK    5  A    between atoms: C_10  and  O_12
REMARK                            x       y       z     vdW  Elec       q    Type
REMARK                         _______ _______ _______ _____ _____    ______ ____
ROOT
ATOM      1  C   UNL     1       5.269   4.298  18.792  0.00  0.00    +0.000 C 
ATOM      2  O   UNL     1       5.383   5.408  19.293  0.00  0.00    +0.000 OA
ATOM      3  N   UNL     1       6.003   3.936  17.683  0.00  0.00    +0.000 N 
ATOM      4  H   UNL     1       6.027   2.973  17.360  0.00  0.00    +0.000 HD
ENDROOT
BRANCH   1   9
ATOM      5  C   UNL     1       0.611   2.597  18.761  0.00  0.00    +0.000 C 
ATOM      6  C   UNL     1       1.555   3.701  18.276  0.00  0.00    +0.000 C 
ATOM      7  C   UNL     1       2.124   4.504  19.452  0.00  0.00    +0.000 C 
ATOM      8  C   UNL     1       3.201   3.741  20.228  0.00  0.00    +0.000 C 
ATOM      9  C   UNL     1       4.334   3.207  19.330  0.00  0.00    +0.000 C 
ATOM     10  C   UNL     1       3.741   2.371  18.188  0.00  0.00    +0.000 C 
ATOM     11  C   UNL     1       2.683   3.144  17.398  0.00  0.00    +0.000 C 
ENDBRANCH   1   9
BRANCH   3  12
ATOM     12  C   UNL     1       6.894   4.871  17.017  0.00  0.00    +0.000 C 
BRANCH  12  13
ATOM     13  C   UNL     1       6.717   4.759  15.507  0.00  0.00    +0.000 C 
ATOM     14  O   UNL     1       5.783   4.181  14.971  0.00  0.00    +0.000 OA
BRANCH  13  15
ATOM     15  O   UNL     1       7.703   5.356  14.799  0.00  0.00    +0.000 OA
ATOM     16  H   UNL     1       8.600   5.206  15.153  0.00  0.00    +0.000 HD
ENDBRANCH  13  15
ENDBRANCH  12  13
ENDBRANCH   3  12
TORSDOF 4
ENDMDL
MODEL 7
REMARK VINA RESULT:      -6.2      0.696      1.200
REMARK  Name = 
REMARK  5 active torsions:
REMARK  status: ('A' for Active; 'I' for Inactive)
REMARK    1  A    between atoms: C_1  and  C_2
REMARK    2  A    between atoms: C_5  and  C_6
REMARK    3  A    between atoms: N_8  and  C_9
REMARK    4  A    between atoms: C_9  and  C_10
REMARK    5  A    between atoms: C_10  and  O_12
REMARK                            x       y       z     vdW  Elec       q    Type
REMARK                         _______ _______ _______ _____ _____    ______ ____
ROOT
ATOM      1  C   UNL     1       4.804   4.636  17.258  0.00  0.00    +0.000 C 
ATOM      2  O   UNL     1       4.799   5.733  16.717  0.00  0.00    +0.000 OA
ATOM      3  N   UNL     1       5.971   4.084  17.742  0.00  0.00    +0.000 N 
ATOM      4  H   UNL     1       5.957   3.252  18.324  0.00  0.00    +0.000 HD
ENDROOT
BRANCH   1   9
ATOM      5  C   UNL     1       1.180   3.488  20.442  0.00  0.00    +0.000 C 
ATOM      6  C   UNL     1       2.461   4.299  20.227  0.00  0.00    +0.000 C 
ATOM      7  C   UNL     1       3.670   3.383  19.999  0.00  0.00    +0.000 C 
ATOM      8  C   UNL     1       3.680   2.748  18.605  0.00  0.00    +0.000 C 
ATOM      9  C   UNL     1       3.550   3.777  17.467  0.00  0.00    +0.000 C 
ATOM     10  C   UNL     1       2.310   4.651  17.696  0.00  0.00    +0.000 C 
ATOM     11  C   UNL     1       2.315   5.306  19.079  0.00  0.00    +0.000 C 
ENDBRANCH   1   9
BRANCH   3  12
ATOM     12  C   UNL     1       7.256   4.743  17.575  0.00  0.00    +0.000 C 
BRANCH  12  13
ATOM     13  C   UNL     1       7.501   5.687  18.747  0.00  0.00    +0.000 C 
ATOM     14  O   UNL     1       8.039   6.779  18.642  0.00  0.00    +0.000 OA
BRANCH  13  15
ATOM     15  O   UNL     1       7.074   5.199  19.935  0.00  0.00    +0.000 OA
ATOM     16  H   UNL     1       6.178   4.815  19.913  0.00  0.00    +0.000 HD
ENDBRANCH  13  15
ENDBRANCH  12  13
ENDBRANCH   3  12
TORSDOF 4
ENDMDL
MODEL 8
REMARK VINA RESULT:      -6.2      1.770      2.793
REMARK  Name = 
REMARK  5 active torsions:
REMARK  status: ('A' for Active; 'I' for Inactive)
REMARK    1  A    between atoms: C_1  and  C_2
REMARK    2  A    between atoms: C_5  and  C_6
REMARK    3  A    between atoms: N_8  and  C_9
REMARK    4  A    between atoms: C_9  and  C_10
REMARK    5  A    between atoms: C_10  and  O_12
REMARK                            x       y       z     vdW  Elec       q    Type
REMARK                         _______ _______ _______ _____ _____    ______ ____
ROOT
ATOM      1  C   UNL     1       4.598   5.446  18.827  0.00  0.00    +0.000 C 
ATOM      2  O   UNL     1       5.444   5.291  19.696  0.00  0.00    +0.000 OA
ATOM      3  N   UNL     1       4.954   5.713  17.522  0.00  0.00    +0.000 N 
ATOM      4  H   UNL     1       4.266   5.689  16.775  0.00  0.00    +0.000 HD
ENDROOT
BRANCH   1   9
ATOM      5  C   UNL     1       0.693   2.390  18.887  0.00  0.00    +0.000 C 
ATOM      6  C   UNL     1       2.191   2.518  18.597  0.00  0.00    +0.000 C 
ATOM      7  C   UNL     1       2.454   3.486  17.437  0.00  0.00    +0.000 C 
ATOM      8  C   UNL     1       2.270   4.953  17.833  0.00  0.00    +0.000 C 
ATOM      9  C   UNL     1       3.086   5.355  19.077  0.00  0.00    +0.000 C 
ATOM     10  C   UNL     1       2.772   4.398  20.235  0.00  0.00    +0.000 C 
ATOM     11  C   UNL     1       2.981   2.933  19.845  0.00  0.00    +0.000 C 
ENDBRANCH   1   9
BRANCH   3  12
ATOM     12  C   UNL     1       6.341   5.887  17.128  0.00  0.00    +0.000 C 
BRANCH  12  13
ATOM     13  C   UNL     1       6.960   4.527  16.822  0.00  0.00    +0.000 C 
ATOM     14  O   UNL     1       8.116   4.230  17.082  0.00  0.00    +0.000 OA
BRANCH  13  15
ATOM     15  O   UNL     1       6.107   3.667  16.220  0.00  0.00    +0.000 OA
ATOM     16  H   UNL     1       6.529   3.065  15.579  0.00  0.00    +0.000 HD
ENDBRANCH  13  15
ENDBRANCH  12  13
ENDBRANCH   3  12
TORSDOF 4
ENDMDL
MODEL 9
REMARK VINA RESULT:      -6.1      1.999      2.795
REMARK  Name = 
REMARK  5 active torsions:
REMARK  status: ('A' for Active; 'I' for Inactive)
REMARK    1  A    between atoms: C_1  and  C_2
REMARK    2  A    between atoms: C_5  and  C_6
REMARK    3  A    between atoms: N_8  and  C_9
REMARK    4  A    between atoms: C_9  and  C_10
REMARK    5  A    between atoms: C_10  and  O_12
REMARK                            x       y       z     vdW  Elec       q    Type
REMARK                         _______ _______ _______ _____ _____    ______ ____
ROOT
ATOM      1  C   UNL     1       4.921   4.004  17.412  0.00  0.00    +0.000 C 
ATOM      2  O   UNL     1       5.799   4.485  18.114  0.00  0.00    +0.000 OA
ATOM      3  N   UNL     1       4.770   4.386  16.096  0.00  0.00    +0.000 N 
ATOM      4  H   UNL     1       4.148   3.882  15.471  0.00  0.00    +0.000 HD
ENDROOT
BRANCH   1   9
ATOM      5  C   UNL     1       0.730   3.270  19.959  0.00  0.00    +0.000 C 
ATOM      6  C   UNL     1       1.767   4.301  19.507  0.00  0.00    +0.000 C 
ATOM      7  C   UNL     1       3.149   4.001  20.101  0.00  0.00    +0.000 C 
ATOM      8  C   UNL     1       3.841   2.813  19.427  0.00  0.00    +0.000 C 
ATOM      9  C   UNL     1       3.921   2.945  17.894  0.00  0.00    +0.000 C 
ATOM     10  C   UNL     1       2.521   3.201  17.321  0.00  0.00    +0.000 C 
ATOM     11  C   UNL     1       1.841   4.405  17.978  0.00  0.00    +0.000 C 
ENDBRANCH   1   9
BRANCH   3  12
ATOM     12  C   UNL     1       5.599   5.420  15.500  0.00  0.00    +0.000 C 
BRANCH  12  13
ATOM     13  C   UNL     1       6.605   4.782  14.548  0.00  0.00    +0.000 C 
ATOM     14  O   UNL     1       6.403   3.743  13.938  0.00  0.00    +0.000 OA
BRANCH  13  15
ATOM     15  O   UNL     1       7.765   5.472  14.442  0.00  0.00    +0.000 OA
ATOM     16  H   UNL     1       8.538   4.925  14.208  0.00  0.00    +0.000 HD
ENDBRANCH  13  15
ENDBRANCH  12  13
ENDBRANCH   3  12
TORSDOF 4
ENDMDL
