MODEL 1
REMARK VINA RESULT:      -7.6      0.000      0.000
REMARK  Name = 
REMARK  13 active torsions:
REMARK  status: ('A' for Active; 'I' for Inactive)
REMARK    1  A    between atoms: C_1  and  C_2
REMARK    2  A    between atoms: C_6  and  C_7
REMARK    3  A    between atoms: C_8  and  N_9
REMARK    4  A    between atoms: C_10  and  C_12
REMARK    5  A    between atoms: C_12  and  N_13
REMARK    6  A    between atoms: N_13  and  C_14
REMARK    7  A    between atoms: N_13  and  C_26
REMARK    8  A    between atoms: C_14  and  C_15
REMARK    9  A    between atoms: N_17  and  C_18
REMARK   10  A    between atoms: C_19  and  C_20
REMARK   11  A    between atoms: C_24  and  C_25
REMARK   12  A    between atoms: C_26  and  C_27
REMARK   13  A    between atoms: C_29  and  C_30
REMARK                            x       y       z     vdW  Elec       q    Type
REMARK                         _______ _______ _______ _____ _____    ______ ____
ROOT
ATOM      1  N   UNL     1       1.031   9.060  19.324  0.00  0.00    +0.000 NA
ENDROOT
BRANCH   1   2
ATOM      2  C   UNL     1       0.519  10.317  18.715  0.00  0.00    +0.000 C 
BRANCH   2   4
ATOM      3  N   UNL     1      -1.520  11.402  17.872  0.00  0.00    +0.000 N 
ATOM      4  C   UNL     1      -1.007  10.242  18.438  0.00  0.00    +0.000 C 
ATOM      5  O   UNL     1      -1.662   9.254  18.767  0.00  0.00    +0.000 OA
ATOM      6  H   UNL     1      -0.947  12.215  18.068  0.00  0.00    +0.000 HD
BRANCH   3  14
ATOM      7  C   UNL     1      -3.134  12.673  20.031  0.00  0.00    +0.000 C 
ATOM      8  C   UNL     1      -3.697  12.190  18.727  0.00  0.00    +0.000 A 
ATOM      9  C   UNL     1      -5.101  12.182  18.600  0.00  0.00    +0.000 A 
ATOM     10  C   UNL     1      -5.725  11.626  17.489  0.00  0.00    +0.000 A 
ATOM     11  C   UNL     1      -4.946  11.131  16.450  0.00  0.00    +0.000 A 
ATOM     12  C   UNL     1      -3.542  11.159  16.521  0.00  0.00    +0.000 A 
ATOM     13  C   UNL     1      -2.783  10.647  15.329  0.00  0.00    +0.000 C 
ATOM     14  C   UNL     1      -2.903  11.663  17.678  0.00  0.00    +0.000 A 
ENDBRANCH   3  14
ENDBRANCH   2   4
ENDBRANCH   1   2
BRANCH   1  15
ATOM     15  C   UNL     1       2.344   8.646  18.757  0.00  0.00    +0.000 C 
BRANCH  15  16
ATOM     16  C   UNL     1       2.513   7.134  18.564  0.00  0.00    +0.000 C 
ATOM     17  O   UNL     1       2.117   6.570  17.558  0.00  0.00    +0.000 OA
ATOM     18  N   UNL     1       3.128   6.526  19.661  0.00  0.00    +0.000 N 
ATOM     19  H   UNL     1       2.936   6.969  20.553  0.00  0.00    +0.000 HD
BRANCH  18  20
ATOM     20  C   UNL     1       3.365   5.133  19.691  0.00  0.00    +0.000 A 
ATOM     21  C   UNL     1       4.600   4.575  19.294  0.00  0.00    +0.000 A 
ATOM     22  C   UNL     1       5.860   5.378  19.101  0.00  0.00    +0.000 C 
ATOM     23  C   UNL     1       4.707   3.182  19.166  0.00  0.00    +0.000 A 
ATOM     24  C   UNL     1       3.629   2.355  19.459  0.00  0.00    +0.000 A 
ATOM     25  C   UNL     1       2.447   2.900  19.949  0.00  0.00    +0.000 A 
ATOM     26  C   UNL     1       2.312   4.290  20.105  0.00  0.00    +0.000 A 
ATOM     27  C   UNL     1       1.011   4.819  20.644  0.00  0.00    +0.000 C 
ENDBRANCH  18  20
ENDBRANCH  15  16
ENDBRANCH   1  15
BRANCH   1  28
ATOM     28  C   UNL     1       1.139   9.179  20.807  0.00  0.00    +0.000 C 
BRANCH  28  29
ATOM     29  C   UNL     1       0.581  10.457  21.340  0.00  0.00    +0.000 A 
ATOM     30  N   UNL     1      -0.525  10.640  22.022  0.00  0.00    +0.000 NA
ATOM     31  C   UNL     1      -0.481  11.983  22.316  0.00  0.00    +0.000 A 
ATOM     32  N   UNL     1       0.605  12.611  21.831  0.00  0.00    +0.000 NA
ATOM     33  O   UNL     1       1.312  11.596  21.180  0.00  0.00    +0.000 OA
BRANCH  31  34
ATOM     34  C   UNL     1      -1.533  12.611  23.091  0.00  0.00    +0.000 A 
ATOM     35  C   UNL     1      -2.700  11.905  23.409  0.00  0.00    +0.000 A 
ATOM     36  C   UNL     1      -3.717  12.527  24.131  0.00  0.00    +0.000 A 
ATOM     37  C   UNL     1      -3.529  13.841  24.521  0.00  0.00    +0.000 A 
ATOM     38  N   UNL     1      -2.414  14.553  24.248  0.00  0.00    +0.000 NA
ATOM     39  C   UNL     1      -1.442  13.923  23.539  0.00  0.00    +0.000 A 
ENDBRANCH  31  34
ENDBRANCH  28  29
ENDBRANCH   1  28
TORSDOF 9
ENDMDL
MODEL 2
REMARK VINA RESULT:      -7.6      1.448      2.566
REMARK  Name = 
REMARK  13 active torsions:
REMARK  status: ('A' for Active; 'I' for Inactive)
REMARK    1  A    between atoms: C_1  and  C_2
REMARK    2  A    between atoms: C_6  and  C_7
REMARK    3  A    between atoms: C_8  and  N_9
REMARK    4  A    between atoms: C_10  and  C_12
REMARK    5  A    between atoms: C_12  and  N_13
REMARK    6  A    between atoms: N_13  and  C_14
REMARK    7  A    between atoms: N_13  and  C_26
REMARK    8  A    between atoms: C_14  and  C_15
REMARK    9  A    between atoms: N_17  and  C_18
REMARK   10  A    between atoms: C_19  and  C_20
REMARK   11  A    between atoms: C_24  and  C_25
REMARK   12  A    between atoms: C_26  and  C_27
REMARK   13  A    between atoms: C_29  and  C_30
REMARK                            x       y       z     vdW  Elec       q    Type
REMARK                         _______ _______ _______ _____ _____    ______ ____
ROOT
ATOM      1  N   UNL     1       0.847  10.005  19.097  0.00  0.00    +0.000 NA
ENDROOT
BRANCH   1   2
ATOM      2  C   UNL     1       0.841  11.468  18.824  0.00  0.00    +0.000 C 
BRANCH   2   4
ATOM      3  N   UNL     1      -1.583  11.070  18.701  0.00  0.00    +0.000 N 
ATOM      4  C   UNL     1      -0.567  11.969  18.402  0.00  0.00    +0.000 C 
ATOM      5  O   UNL     1      -0.706  13.035  17.806  0.00  0.00    +0.000 OA
ATOM      6  H   UNL     1      -1.245  10.118  18.788  0.00  0.00    +0.000 HD
BRANCH   3  14
ATOM      7  C   UNL     1      -2.483   9.824  16.147  0.00  0.00    +0.000 C 
ATOM      8  C   UNL     1      -3.348  10.685  17.020  0.00  0.00    +0.000 A 
ATOM      9  C   UNL     1      -4.603  11.064  16.501  0.00  0.00    +0.000 A 
ATOM     10  C   UNL     1      -5.420  11.969  17.169  0.00  0.00    +0.000 A 
ATOM     11  C   UNL     1      -5.021  12.458  18.406  0.00  0.00    +0.000 A 
ATOM     12  C   UNL     1      -3.795  12.072  18.977  0.00  0.00    +0.000 A 
ATOM     13  C   UNL     1      -3.470  12.613  20.341  0.00  0.00    +0.000 C 
ATOM     14  C   UNL     1      -2.931  11.202  18.271  0.00  0.00    +0.000 A 
ENDBRANCH   3  14
ENDBRANCH   2   4
ENDBRANCH   1   2
BRANCH   1  15
ATOM     15  C   UNL     1       1.602   9.237  18.069  0.00  0.00    +0.000 C 
BRANCH  15  16
ATOM     16  C   UNL     1       2.243   7.941  18.578  0.00  0.00    +0.000 C 
ATOM     17  O   UNL     1       2.187   7.617  19.753  0.00  0.00    +0.000 OA
ATOM     18  N   UNL     1       2.890   7.235  17.561  0.00  0.00    +0.000 N 
ATOM     19  H   UNL     1       3.283   7.817  16.827  0.00  0.00    +0.000 HD
BRANCH  18  20
ATOM     20  C   UNL     1       3.559   6.018  17.822  0.00  0.00    +0.000 A 
ATOM     21  C   UNL     1       2.859   4.816  18.064  0.00  0.00    +0.000 A 
ATOM     22  C   UNL     1       1.393   4.627  17.774  0.00  0.00    +0.000 C 
ATOM     23  C   UNL     1       3.572   3.691  18.503  0.00  0.00    +0.000 A 
ATOM     24  C   UNL     1       4.952   3.739  18.664  0.00  0.00    +0.000 A 
ATOM     25  C   UNL     1       5.651   4.892  18.326  0.00  0.00    +0.000 A 
ATOM     26  C   UNL     1       4.970   6.032  17.867  0.00  0.00    +0.000 A 
ATOM     27  C   UNL     1       5.782   7.248  17.512  0.00  0.00    +0.000 C 
ENDBRANCH  18  20
ENDBRANCH  15  16
ENDBRANCH   1  15
BRANCH   1  28
ATOM     28  C   UNL     1       1.395   9.707  20.452  0.00  0.00    +0.000 C 
BRANCH  28  29
ATOM     29  C   UNL     1       0.528  10.201  21.562  0.00  0.00    +0.000 A 
ATOM     30  N   UNL     1      -0.137  11.330  21.634  0.00  0.00    +0.000 NA
ATOM     31  C   UNL     1      -0.818  11.206  22.823  0.00  0.00    +0.000 A 
ATOM     32  N   UNL     1      -0.582  10.049  23.467  0.00  0.00    +0.000 NA
ATOM     33  O   UNL     1       0.315   9.380  22.629  0.00  0.00    +0.000 OA
BRANCH  31  34
ATOM     34  C   UNL     1      -1.704  12.254  23.287  0.00  0.00    +0.000 A 
ATOM     35  C   UNL     1      -3.003  11.951  23.715  0.00  0.00    +0.000 A 
ATOM     36  C   UNL     1      -3.857  12.970  24.133  0.00  0.00    +0.000 A 
ATOM     37  C   UNL     1      -3.378  14.268  24.118  0.00  0.00    +0.000 A 
ATOM     38  N   UNL     1      -2.130  14.603  23.726  0.00  0.00    +0.000 NA
ATOM     39  C   UNL     1      -1.321  13.589  23.319  0.00  0.00    +0.000 A 
ENDBRANCH  31  34
ENDBRANCH  28  29
ENDBRANCH   1  28
TORSDOF 9
ENDMDL
MODEL 3
REMARK VINA RESULT:      -7.5      6.724      9.705
REMARK  Name = 
REMARK  13 active torsions:
REMARK  status: ('A' for Active; 'I' for Inactive)
REMARK    1  A    between atoms: C_1  and  C_2
REMARK    2  A    between atoms: C_6  and  C_7
REMARK    3  A    between atoms: C_8  and  N_9
REMARK    4  A    between atoms: C_10  and  C_12
REMARK    5  A    between atoms: C_12  and  N_13
REMARK    6  A    between atoms: N_13  and  C_14
REMARK    7  A    between atoms: N_13  and  C_26
REMARK    8  A    between atoms: C_14  and  C_15
REMARK    9  A    between atoms: N_17  and  C_18
REMARK   10  A    between atoms: C_19  and  C_20
REMARK   11  A    between atoms: C_24  and  C_25
REMARK   12  A    between atoms: C_26  and  C_27
REMARK   13  A    between atoms: C_29  and  C_30
REMARK                            x       y       z     vdW  Elec       q    Type
REMARK                         _______ _______ _______ _____ _____    ______ ____
ROOT
ATOM      1  N   UNL     1       6.846   7.102  17.879  0.00  0.00    +0.000 NA
ENDROOT
BRANCH   1   2
ATOM      2  C   UNL     1       5.477   6.617  17.554  0.00  0.00    +0.000 C 
BRANCH   2   4
ATOM      3  N   UNL     1       3.716   5.075  18.304  0.00  0.00    +0.000 N 
ATOM      4  C   UNL     1       4.944   5.633  18.631  0.00  0.00    +0.000 C 
ATOM      5  O   UNL     1       5.558   5.454  19.682  0.00  0.00    +0.000 OA
ATOM      6  H   UNL     1       3.194   5.642  17.647  0.00  0.00    +0.000 HD
BRANCH   3  14
ATOM      7  C   UNL     1       3.722   2.103  18.076  0.00  0.00    +0.000 C 
ATOM      8  C   UNL     1       2.860   2.877  19.030  0.00  0.00    +0.000 A 
ATOM      9  C   UNL     1       1.872   2.153  19.730  0.00  0.00    +0.000 A 
ATOM     10  C   UNL     1       0.935   2.796  20.530  0.00  0.00    +0.000 A 
ATOM     11  C   UNL     1       1.017   4.173  20.699  0.00  0.00    +0.000 A 
ATOM     12  C   UNL     1       2.014   4.924  20.052  0.00  0.00    +0.000 A 
ATOM     13  C   UNL     1       2.055   6.400  20.333  0.00  0.00    +0.000 C 
ATOM     14  C   UNL     1       2.929   4.283  19.184  0.00  0.00    +0.000 A 
ENDBRANCH   3  14
ENDBRANCH   2   4
ENDBRANCH   1   2
BRANCH   1  15
ATOM     15  C   UNL     1       7.892   6.079  17.605  0.00  0.00    +0.000 C 
BRANCH  15  16
ATOM     16  C   UNL     1       7.544   5.086  16.490  0.00  0.00    +0.000 C 
ATOM     17  O   UNL     1       7.594   3.881  16.668  0.00  0.00    +0.000 OA
ATOM     18  N   UNL     1       7.206   5.728  15.296  0.00  0.00    +0.000 N 
ATOM     19  H   UNL     1       7.678   6.614  15.144  0.00  0.00    +0.000 HD
BRANCH  18  20
ATOM     20  C   UNL     1       6.866   4.993  14.138  0.00  0.00    +0.000 A 
ATOM     21  C   UNL     1       5.735   4.149  14.094  0.00  0.00    +0.000 A 
ATOM     22  C   UNL     1       4.630   4.171  15.118  0.00  0.00    +0.000 C 
ATOM     23  C   UNL     1       5.559   3.304  12.987  0.00  0.00    +0.000 A 
ATOM     24  C   UNL     1       6.461   3.320  11.929  0.00  0.00    +0.000 A 
ATOM     25  C   UNL     1       7.516   4.226  11.928  0.00  0.00    +0.000 A 
ATOM     26  C   UNL     1       7.711   5.097  13.013  0.00  0.00    +0.000 A 
ATOM     27  C   UNL     1       8.867   6.058  12.951  0.00  0.00    +0.000 C 
ENDBRANCH  18  20
ENDBRANCH  15  16
ENDBRANCH   1  15
BRANCH   1  28
ATOM     28  C   UNL     1       7.166   8.360  17.143  0.00  0.00    +0.000 C 
BRANCH  28  29
ATOM     29  C   UNL     1       8.112   9.250  17.877  0.00  0.00    +0.000 A 
ATOM     30  N   UNL     1       8.419  10.500  17.620  0.00  0.00    +0.000 NA
ATOM     31  C   UNL     1       9.256  10.827  18.662  0.00  0.00    +0.000 A 
ATOM     32  N   UNL     1       9.465   9.821  19.529  0.00  0.00    +0.000 NA
ATOM     33  O   UNL     1       8.705   8.770  19.006  0.00  0.00    +0.000 OA
BRANCH  31  34
ATOM     34  C   UNL     1       9.825  12.156  18.771  0.00  0.00    +0.000 A 
ATOM     35  C   UNL     1      10.801  12.589  17.864  0.00  0.00    +0.000 A 
ATOM     36  C   UNL     1      11.361  13.858  17.994  0.00  0.00    +0.000 A 
ATOM     37  C   UNL     1      10.919  14.662  19.030  0.00  0.00    +0.000 A 
ATOM     38  N   UNL     1       9.971  14.290  19.917  0.00  0.00    +0.000 NA
ATOM     39  C   UNL     1       9.446  13.045  19.768  0.00  0.00    +0.000 A 
ENDBRANCH  31  34
ENDBRANCH  28  29
ENDBRANCH   1  28
TORSDOF 9
ENDMDL
MODEL 4
REMARK VINA RESULT:      -7.5      3.259      8.755
REMARK  Name = 
REMARK  13 active torsions:
REMARK  status: ('A' for Active; 'I' for Inactive)
REMARK    1  A    between atoms: C_1  and  C_2
REMARK    2  A    between atoms: C_6  and  C_7
REMARK    3  A    between atoms: C_8  and  N_9
REMARK    4  A    between atoms: C_10  and  C_12
REMARK    5  A    between atoms: C_12  and  N_13
REMARK    6  A    between atoms: N_13  and  C_14
REMARK    7  A    between atoms: N_13  and  C_26
REMARK    8  A    between atoms: C_14  and  C_15
REMARK    9  A    between atoms: N_17  and  C_18
REMARK   10  A    between atoms: C_19  and  C_20
REMARK   11  A    between atoms: C_24  and  C_25
REMARK   12  A    between atoms: C_26  and  C_27
REMARK   13  A    between atoms: C_29  and  C_30
REMARK                            x       y       z     vdW  Elec       q    Type
REMARK                         _______ _______ _______ _____ _____    ______ ____
ROOT
ATOM      1  N   UNL     1       1.715  11.049  19.065  0.00  0.00    +0.000 NA
ENDROOT
BRANCH   1   2
ATOM      2  C   UNL     1       2.236  12.207  18.290  0.00  0.00    +0.000 C 
BRANCH   2   4
ATOM      3  N   UNL     1       1.239  14.420  18.679  0.00  0.00    +0.000 N 
ATOM      4  C   UNL     1       2.199  13.519  19.120  0.00  0.00    +0.000 C 
ATOM      5  O   UNL     1       3.007  13.717  20.025  0.00  0.00    +0.000 OA
ATOM      6  H   UNL     1       0.984  14.273  17.710  0.00  0.00    +0.000 HD
BRANCH   3  14
ATOM      7  C   UNL     1      -0.619  15.065  20.920  0.00  0.00    +0.000 C 
ATOM      8  C   UNL     1       0.170  16.086  20.153  0.00  0.00    +0.000 A 
ATOM      9  C   UNL     1      -0.129  17.442  20.401  0.00  0.00    +0.000 A 
ATOM     10  C   UNL     1       0.444  18.459  19.647  0.00  0.00    +0.000 A 
ATOM     11  C   UNL     1       1.383  18.137  18.675  0.00  0.00    +0.000 A 
ATOM     12  C   UNL     1       1.739  16.799  18.427  0.00  0.00    +0.000 A 
ATOM     13  C   UNL     1       2.800  16.550  17.392  0.00  0.00    +0.000 C 
ATOM     14  C   UNL     1       1.110  15.756  19.147  0.00  0.00    +0.000 A 
ENDBRANCH   3  14
ENDBRANCH   2   4
ENDBRANCH   1   2
BRANCH   1  15
ATOM     15  C   UNL     1       0.669  11.446  20.048  0.00  0.00    +0.000 C 
BRANCH  15  16
ATOM     16  C   UNL     1      -0.750  10.982  19.699  0.00  0.00    +0.000 C 
ATOM     17  O   UNL     1      -1.150   9.869  19.995  0.00  0.00    +0.000 OA
ATOM     18  N   UNL     1      -1.470  11.958  19.006  0.00  0.00    +0.000 N 
ATOM     19  H   UNL     1      -0.905  12.560  18.416  0.00  0.00    +0.000 HD
BRANCH  18  20
ATOM     20  C   UNL     1      -2.796  11.726  18.577  0.00  0.00    +0.000 A 
ATOM     21  C   UNL     1      -3.086  11.057  17.368  0.00  0.00    +0.000 A 
ATOM     22  C   UNL     1      -2.072  10.269  16.581  0.00  0.00    +0.000 C 
ATOM     23  C   UNL     1      -4.411  11.027  16.908  0.00  0.00    +0.000 A 
ATOM     24  C   UNL     1      -5.435  11.612  17.644  0.00  0.00    +0.000 A 
ATOM     25  C   UNL     1      -5.162  12.179  18.884  0.00  0.00    +0.000 A 
ATOM     26  C   UNL     1      -3.849  12.211  19.383  0.00  0.00    +0.000 A 
ATOM     27  C   UNL     1      -3.618  12.833  20.734  0.00  0.00    +0.000 C 
ENDBRANCH  18  20
ENDBRANCH  15  16
ENDBRANCH   1  15
BRANCH   1  28
ATOM     28  C   UNL     1       1.181   9.987  18.163  0.00  0.00    +0.000 C 
BRANCH  28  29
ATOM     29  C   UNL     1       1.964   8.718  18.217  0.00  0.00    +0.000 A 
ATOM     30  N   UNL     1       2.735   8.198  17.292  0.00  0.00    +0.000 NA
ATOM     31  C   UNL     1       3.258   7.091  17.919  0.00  0.00    +0.000 A 
ATOM     32  N   UNL     1       2.824   6.925  19.181  0.00  0.00    +0.000 NA
ATOM     33  O   UNL     1       1.961   8.007  19.380  0.00  0.00    +0.000 OA
BRANCH  31  34
ATOM     34  C   UNL     1       4.195   6.221  17.236  0.00  0.00    +0.000 A 
ATOM     35  C   UNL     1       4.053   4.829  17.303  0.00  0.00    +0.000 A 
ATOM     36  C   UNL     1       4.975   4.001  16.666  0.00  0.00    +0.000 A 
ATOM     37  C   UNL     1       6.013   4.596  15.971  0.00  0.00    +0.000 A 
ATOM     38  N   UNL     1       6.179   5.933  15.869  0.00  0.00    +0.000 NA
ATOM     39  C   UNL     1       5.267   6.715  16.505  0.00  0.00    +0.000 A 
ENDBRANCH  31  34
ENDBRANCH  28  29
ENDBRANCH   1  28
TORSDOF 9
ENDMDL
MODEL 5
REMARK VINA RESULT:      -7.5      3.253      8.897
REMARK  Name = 
REMARK  13 active torsions:
REMARK  status: ('A' for Active; 'I' for Inactive)
REMARK    1  A    between atoms: C_1  and  C_2
REMARK    2  A    between atoms: C_6  and  C_7
REMARK    3  A    between atoms: C_8  and  N_9
REMARK    4  A    between atoms: C_10  and  C_12
REMARK    5  A    between atoms: C_12  and  N_13
REMARK    6  A    between atoms: N_13  and  C_14
REMARK    7  A    between atoms: N_13  and  C_26
REMARK    8  A    between atoms: C_14  and  C_15
REMARK    9  A    between atoms: N_17  and  C_18
REMARK   10  A    between atoms: C_19  and  C_20
REMARK   11  A    between atoms: C_24  and  C_25
REMARK   12  A    between atoms: C_26  and  C_27
REMARK   13  A    between atoms: C_29  and  C_30
REMARK                            x       y       z     vdW  Elec       q    Type
REMARK                         _______ _______ _______ _____ _____    ______ ____
ROOT
ATOM      1  N   UNL     1       1.580  11.231  19.001  0.00  0.00    +0.000 NA
ENDROOT
BRANCH   1   2
ATOM      2  C   UNL     1       2.254  12.382  18.341  0.00  0.00    +0.000 C 
BRANCH   2   4
ATOM      3  N   UNL     1       1.423  14.614  18.954  0.00  0.00    +0.000 N 
ATOM      4  C   UNL     1       2.334  13.618  19.280  0.00  0.00    +0.000 C 
ATOM      5  O   UNL     1       3.183  13.684  20.167  0.00  0.00    +0.000 OA
ATOM      6  H   UNL     1       1.127  14.568  17.985  0.00  0.00    +0.000 HD
BRANCH   3  14
ATOM      7  C   UNL     1      -0.012  15.092  21.522  0.00  0.00    +0.000 C 
ATOM      8  C   UNL     1       0.653  16.166  20.712  0.00  0.00    +0.000 A 
ATOM      9  C   UNL     1       0.427  17.499  21.109  0.00  0.00    +0.000 A 
ATOM     10  C   UNL     1       0.881  18.569  20.347  0.00  0.00    +0.000 A 
ATOM     11  C   UNL     1       1.634  18.319  19.206  0.00  0.00    +0.000 A 
ATOM     12  C   UNL     1       1.917  17.002  18.800  0.00  0.00    +0.000 A 
ATOM     13  C   UNL     1       2.780  16.829  17.582  0.00  0.00    +0.000 C 
ATOM     14  C   UNL     1       1.401  15.910  19.536  0.00  0.00    +0.000 A 
ENDBRANCH   3  14
ENDBRANCH   2   4
ENDBRANCH   1   2
BRANCH   1  15
ATOM     15  C   UNL     1       0.385  11.645  19.787  0.00  0.00    +0.000 C 
BRANCH  15  16
ATOM     16  C   UNL     1      -0.839  12.022  18.946  0.00  0.00    +0.000 C 
ATOM     17  O   UNL     1      -0.820  12.966  18.174  0.00  0.00    +0.000 OA
ATOM     18  N   UNL     1      -1.932  11.188  19.198  0.00  0.00    +0.000 N 
ATOM     19  H   UNL     1      -1.980  10.829  20.146  0.00  0.00    +0.000 HD
BRANCH  18  20
ATOM     20  C   UNL     1      -3.166  11.375  18.535  0.00  0.00    +0.000 A 
ATOM     21  C   UNL     1      -3.415  10.838  17.253  0.00  0.00    +0.000 A 
ATOM     22  C   UNL     1      -2.555   9.787  16.601  0.00  0.00    +0.000 C 
ATOM     23  C   UNL     1      -4.582  11.217  16.572  0.00  0.00    +0.000 A 
ATOM     24  C   UNL     1      -5.502  12.078  17.160  0.00  0.00    +0.000 A 
ATOM     25  C   UNL     1      -5.304  12.522  18.463  0.00  0.00    +0.000 A 
ATOM     26  C   UNL     1      -4.155  12.149  19.179  0.00  0.00    +0.000 A 
ATOM     27  C   UNL     1      -4.000  12.657  20.587  0.00  0.00    +0.000 C 
ENDBRANCH  18  20
ENDBRANCH  15  16
ENDBRANCH   1  15
BRANCH   1  28
ATOM     28  C   UNL     1       1.192  10.187  18.008  0.00  0.00    +0.000 C 
BRANCH  28  29
ATOM     29  C   UNL     1       1.918   8.897  18.194  0.00  0.00    +0.000 A 
ATOM     30  N   UNL     1       2.844   8.367  17.430  0.00  0.00    +0.000 NA
ATOM     31  C   UNL     1       3.206   7.239  18.130  0.00  0.00    +0.000 A 
ATOM     32  N   UNL     1       2.529   7.071  19.280  0.00  0.00    +0.000 NA
ATOM     33  O   UNL     1       1.670   8.173  19.322  0.00  0.00    +0.000 OA
BRANCH  31  34
ATOM     34  C   UNL     1       4.238   6.352  17.631  0.00  0.00    +0.000 A 
ATOM     35  C   UNL     1       4.809   6.563  16.370  0.00  0.00    +0.000 A 
ATOM     36  C   UNL     1       5.782   5.689  15.888  0.00  0.00    +0.000 A 
ATOM     37  C   UNL     1       6.160   4.628  16.693  0.00  0.00    +0.000 A 
ATOM     38  N   UNL     1       5.646   4.397  17.920  0.00  0.00    +0.000 NA
ATOM     39  C   UNL     1       4.697   5.263  18.361  0.00  0.00    +0.000 A 
ENDBRANCH  31  34
ENDBRANCH  28  29
ENDBRANCH   1  28
TORSDOF 9
ENDMDL
MODEL 6
REMARK VINA RESULT:      -7.5      3.039      4.091
REMARK  Name = 
REMARK  13 active torsions:
REMARK  status: ('A' for Active; 'I' for Inactive)
REMARK    1  A    between atoms: C_1  and  C_2
REMARK    2  A    between atoms: C_6  and  C_7
REMARK    3  A    between atoms: C_8  and  N_9
REMARK    4  A    between atoms: C_10  and  C_12
REMARK    5  A    between atoms: C_12  and  N_13
REMARK    6  A    between atoms: N_13  and  C_14
REMARK    7  A    between atoms: N_13  and  C_26
REMARK    8  A    between atoms: C_14  and  C_15
REMARK    9  A    between atoms: N_17  and  C_18
REMARK   10  A    between atoms: C_19  and  C_20
REMARK   11  A    between atoms: C_24  and  C_25
REMARK   12  A    between atoms: C_26  and  C_27
REMARK   13  A    between atoms: C_29  and  C_30
REMARK                            x       y       z     vdW  Elec       q    Type
REMARK                         _______ _______ _______ _____ _____    ______ ____
ROOT
ATOM      1  N   UNL     1       1.146  10.042  19.603  0.00  0.00    +0.000 NA
ENDROOT
BRANCH   1   2
ATOM      2  C   UNL     1       1.765  11.291  20.125  0.00  0.00    +0.000 C 
BRANCH   2   4
ATOM      3  N   UNL     1       1.892  13.679  19.557  0.00  0.00    +0.000 N 
ATOM      4  C   UNL     1       1.844  12.394  19.035  0.00  0.00    +0.000 C 
ATOM      5  O   UNL     1       1.797  12.106  17.840  0.00  0.00    +0.000 OA
ATOM      6  H   UNL     1       1.502  13.734  20.491  0.00  0.00    +0.000 HD
BRANCH   3  14
ATOM      7  C   UNL     1       4.260  14.718  18.074  0.00  0.00    +0.000 C 
ATOM      8  C   UNL     1       2.933  15.415  18.146  0.00  0.00    +0.000 A 
ATOM      9  C   UNL     1       2.870  16.724  17.624  0.00  0.00    +0.000 A 
ATOM     10  C   UNL     1       1.730  17.506  17.765  0.00  0.00    +0.000 A 
ATOM     11  C   UNL     1       0.605  16.962  18.373  0.00  0.00    +0.000 A 
ATOM     12  C   UNL     1       0.615  15.646  18.868  0.00  0.00    +0.000 A 
ATOM     13  C   UNL     1      -0.663  15.126  19.465  0.00  0.00    +0.000 C 
ATOM     14  C   UNL     1       1.795  14.869  18.786  0.00  0.00    +0.000 A 
ENDBRANCH   3  14
ENDBRANCH   2   4
ENDBRANCH   1   2
BRANCH   1  15
ATOM     15  C   UNL     1       1.787   8.816  20.154  0.00  0.00    +0.000 C 
BRANCH  15  16
ATOM     16  C   UNL     1       2.004   7.691  19.135  0.00  0.00    +0.000 C 
ATOM     17  O   UNL     1       1.714   7.829  17.958  0.00  0.00    +0.000 OA
ATOM     18  N   UNL     1       2.527   6.537  19.724  0.00  0.00    +0.000 N 
ATOM     19  H   UNL     1       2.243   6.388  20.686  0.00  0.00    +0.000 HD
BRANCH  18  20
ATOM     20  C   UNL     1       2.788   5.377  18.960  0.00  0.00    +0.000 A 
ATOM     21  C   UNL     1       3.815   5.335  17.991  0.00  0.00    +0.000 A 
ATOM     22  C   UNL     1       4.908   6.365  17.881  0.00  0.00    +0.000 C 
ATOM     23  C   UNL     1       3.899   4.224  17.138  0.00  0.00    +0.000 A 
ATOM     24  C   UNL     1       3.012   3.161  17.262  0.00  0.00    +0.000 A 
ATOM     25  C   UNL     1       2.068   3.159  18.284  0.00  0.00    +0.000 A 
ATOM     26  C   UNL     1       1.968   4.248  19.166  0.00  0.00    +0.000 A 
ATOM     27  C   UNL     1       0.930   4.185  20.254  0.00  0.00    +0.000 C 
ENDBRANCH  18  20
ENDBRANCH  15  16
ENDBRANCH   1  15
BRANCH   1  28
ATOM     28  C   UNL     1      -0.320  10.009  19.872  0.00  0.00    +0.000 C 
BRANCH  28  29
ATOM     29  C   UNL     1      -0.697  10.636  21.173  0.00  0.00    +0.000 A 
ATOM     30  N   UNL     1      -1.264  11.801  21.381  0.00  0.00    +0.000 NA
ATOM     31  C   UNL     1      -1.451  11.809  22.744  0.00  0.00    +0.000 A 
ATOM     32  N   UNL     1      -1.012  10.697  23.360  0.00  0.00    +0.000 NA
ATOM     33  O   UNL     1      -0.508   9.916  22.315  0.00  0.00    +0.000 OA
BRANCH  31  34
ATOM     34  C   UNL     1      -2.078  12.937  23.403  0.00  0.00    +0.000 A 
ATOM     35  C   UNL     1      -1.353  14.110  23.651  0.00  0.00    +0.000 A 
ATOM     36  C   UNL     1      -1.958  15.178  24.310  0.00  0.00    +0.000 A 
ATOM     37  C   UNL     1      -3.280  15.042  24.695  0.00  0.00    +0.000 A 
ATOM     38  N   UNL     1      -4.019  13.936  24.463  0.00  0.00    +0.000 NA
ATOM     39  C   UNL     1      -3.402  12.908  23.823  0.00  0.00    +0.000 A 
ENDBRANCH  31  34
ENDBRANCH  28  29
ENDBRANCH   1  28
TORSDOF 9
ENDMDL
MODEL 7
REMARK VINA RESULT:      -7.4      2.328      9.170
REMARK  Name = 
REMARK  13 active torsions:
REMARK  status: ('A' for Active; 'I' for Inactive)
REMARK    1  A    between atoms: C_1  and  C_2
REMARK    2  A    between atoms: C_6  and  C_7
REMARK    3  A    between atoms: C_8  and  N_9
REMARK    4  A    between atoms: C_10  and  C_12
REMARK    5  A    between atoms: C_12  and  N_13
REMARK    6  A    between atoms: N_13  and  C_14
REMARK    7  A    between atoms: N_13  and  C_26
REMARK    8  A    between atoms: C_14  and  C_15
REMARK    9  A    between atoms: N_17  and  C_18
REMARK   10  A    between atoms: C_19  and  C_20
REMARK   11  A    between atoms: C_24  and  C_25
REMARK   12  A    between atoms: C_26  and  C_27
REMARK   13  A    between atoms: C_29  and  C_30
REMARK                            x       y       z     vdW  Elec       q    Type
REMARK                         _______ _______ _______ _____ _____    ______ ____
ROOT
ATOM      1  N   UNL     1      -0.284   9.859  18.872  0.00  0.00    +0.000 NA
ENDROOT
BRANCH   1   2
ATOM      2  C   UNL     1      -0.551  10.088  20.317  0.00  0.00    +0.000 C 
BRANCH   2   4
ATOM      3  N   UNL     1      -0.356  12.530  20.533  0.00  0.00    +0.000 N 
ATOM      4  C   UNL     1       0.231  11.315  20.861  0.00  0.00    +0.000 C 
ATOM      5  O   UNL     1       1.296  11.171  21.459  0.00  0.00    +0.000 OA
ATOM      6  H   UNL     1      -0.951  12.465  19.714  0.00  0.00    +0.000 HD
BRANCH   3  14
ATOM      7  C   UNL     1       1.542  13.676  18.541  0.00  0.00    +0.000 C 
ATOM      8  C   UNL     1       1.205  14.317  19.856  0.00  0.00    +0.000 A 
ATOM      9  C   UNL     1       1.972  15.437  20.236  0.00  0.00    +0.000 A 
ATOM     10  C   UNL     1       1.834  16.017  21.492  0.00  0.00    +0.000 A 
ATOM     11  C   UNL     1       0.871  15.525  22.364  0.00  0.00    +0.000 A 
ATOM     12  C   UNL     1       0.057  14.436  22.005  0.00  0.00    +0.000 A 
ATOM     13  C   UNL     1      -0.990  14.005  22.993  0.00  0.00    +0.000 C 
ATOM     14  C   UNL     1       0.239  13.801  20.754  0.00  0.00    +0.000 A 
ENDBRANCH   3  14
ENDBRANCH   2   4
ENDBRANCH   1   2
BRANCH   1  15
ATOM     15  C   UNL     1      -1.103  10.741  17.995  0.00  0.00    +0.000 C 
BRANCH  15  16
ATOM     16  C   UNL     1      -2.614  10.666  18.239  0.00  0.00    +0.000 C 
ATOM     17  O   UNL     1      -3.228   9.617  18.134  0.00  0.00    +0.000 OA
ATOM     18  N   UNL     1      -3.162  11.912  18.555  0.00  0.00    +0.000 N 
ATOM     19  H   UNL     1      -2.692  12.702  18.125  0.00  0.00    +0.000 HD
BRANCH  18  20
ATOM     20  C   UNL     1      -4.544  12.065  18.804  0.00  0.00    +0.000 A 
ATOM     21  C   UNL     1      -5.050  12.302  20.101  0.00  0.00    +0.000 A 
ATOM     22  C   UNL     1      -4.197  12.716  21.272  0.00  0.00    +0.000 C 
ATOM     23  C   UNL     1      -6.436  12.253  20.310  0.00  0.00    +0.000 A 
ATOM     24  C   UNL     1      -7.308  12.014  19.254  0.00  0.00    +0.000 A 
ATOM     25  C   UNL     1      -6.814  11.884  17.961  0.00  0.00    +0.000 A 
ATOM     26  C   UNL     1      -5.432  11.944  17.714  0.00  0.00    +0.000 A 
ATOM     27  C   UNL     1      -4.959  11.802  16.292  0.00  0.00    +0.000 C 
ENDBRANCH  18  20
ENDBRANCH  15  16
ENDBRANCH   1  15
BRANCH   1  28
ATOM     28  C   UNL     1       1.162  10.034  18.552  0.00  0.00    +0.000 C 
BRANCH  28  29
ATOM     29  C   UNL     1       1.914   8.746  18.493  0.00  0.00    +0.000 A 
ATOM     30  N   UNL     1       2.599   8.249  17.490  0.00  0.00    +0.000 NA
ATOM     31  C   UNL     1       3.139   7.105  18.029  0.00  0.00    +0.000 A 
ATOM     32  N   UNL     1       2.800   6.895  19.313  0.00  0.00    +0.000 NA
ATOM     33  O   UNL     1       1.983   7.986  19.622  0.00  0.00    +0.000 OA
BRANCH  31  34
ATOM     34  C   UNL     1       3.999   6.244  17.241  0.00  0.00    +0.000 A 
ATOM     35  C   UNL     1       3.852   4.851  17.292  0.00  0.00    +0.000 A 
ATOM     36  C   UNL     1       4.701   4.032  16.551  0.00  0.00    +0.000 A 
ATOM     37  C   UNL     1       5.672   4.635  15.771  0.00  0.00    +0.000 A 
ATOM     38  N   UNL     1       5.838   5.972  15.682  0.00  0.00    +0.000 NA
ATOM     39  C   UNL     1       4.999   6.746  16.419  0.00  0.00    +0.000 A 
ENDBRANCH  31  34
ENDBRANCH  28  29
ENDBRANCH   1  28
TORSDOF 9
ENDMDL
MODEL 8
REMARK VINA RESULT:      -7.4      3.063      8.251
REMARK  Name = 
REMARK  13 active torsions:
REMARK  status: ('A' for Active; 'I' for Inactive)
REMARK    1  A    between atoms: C_1  and  C_2
REMARK    2  A    between atoms: C_6  and  C_7
REMARK    3  A    between atoms: C_8  and  N_9
REMARK    4  A    between atoms: C_10  and  C_12
REMARK    5  A    between atoms: C_12  and  N_13
REMARK    6  A    between atoms: N_13  and  C_14
REMARK    7  A    between atoms: N_13  and  C_26
REMARK    8  A    between atoms: C_14  and  C_15
REMARK    9  A    between atoms: N_17  and  C_18
REMARK   10  A    between atoms: C_19  and  C_20
REMARK   11  A    between atoms: C_24  and  C_25
REMARK   12  A    between atoms: C_26  and  C_27
REMARK   13  A    between atoms: C_29  and  C_30
REMARK                            x       y       z     vdW  Elec       q    Type
REMARK                         _______ _______ _______ _____ _____    ______ ____
ROOT
ATOM      1  N   UNL     1       1.839  10.891  19.005  0.00  0.00    +0.000 NA
ENDROOT
BRANCH   1   2
ATOM      2  C   UNL     1       2.208  12.087  18.200  0.00  0.00    +0.000 C 
BRANCH   2   4
ATOM      3  N   UNL     1       1.308  14.344  18.575  0.00  0.00    +0.000 N 
ATOM      4  C   UNL     1       2.190  13.384  19.054  0.00  0.00    +0.000 C 
ATOM      5  O   UNL     1       2.950  13.521  20.010  0.00  0.00    +0.000 OA
ATOM      6  H   UNL     1       1.106  14.228  17.589  0.00  0.00    +0.000 HD
BRANCH   3  14
ATOM      7  C   UNL     1      -0.549  15.021  20.806  0.00  0.00    +0.000 C 
ATOM      8  C   UNL     1       0.284  16.025  20.064  0.00  0.00    +0.000 A 
ATOM      9  C   UNL     1       0.032  17.386  20.330  0.00  0.00    +0.000 A 
ATOM     10  C   UNL     1       0.649  18.394  19.597  0.00  0.00    +0.000 A 
ATOM     11  C   UNL     1       1.586  18.053  18.630  0.00  0.00    +0.000 A 
ATOM     12  C   UNL     1       1.896  16.706  18.365  0.00  0.00    +0.000 A 
ATOM     13  C   UNL     1       2.958  16.435  17.336  0.00  0.00    +0.000 C 
ATOM     14  C   UNL     1       1.222  15.676  19.062  0.00  0.00    +0.000 A 
ENDBRANCH   3  14
ENDBRANCH   2   4
ENDBRANCH   1   2
BRANCH   1  15
ATOM     15  C   UNL     1       0.838  11.203  20.062  0.00  0.00    +0.000 C 
BRANCH  15  16
ATOM     16  C   UNL     1      -0.600  10.789  19.728  0.00  0.00    +0.000 C 
ATOM     17  O   UNL     1      -1.048   9.706  20.066  0.00  0.00    +0.000 OA
ATOM     18  N   UNL     1      -1.276  11.769  18.997  0.00  0.00    +0.000 N 
ATOM     19  H   UNL     1      -0.685  12.323  18.386  0.00  0.00    +0.000 HD
BRANCH  18  20
ATOM     20  C   UNL     1      -2.611  11.579  18.575  0.00  0.00    +0.000 A 
ATOM     21  C   UNL     1      -2.929  10.872  17.394  0.00  0.00    +0.000 A 
ATOM     22  C   UNL     1      -1.951  10.006  16.645  0.00  0.00    +0.000 C 
ATOM     23  C   UNL     1      -4.254  10.883  16.932  0.00  0.00    +0.000 A 
ATOM     24  C   UNL     1      -5.251  11.545  17.639  0.00  0.00    +0.000 A 
ATOM     25  C   UNL     1      -4.954  12.152  18.855  0.00  0.00    +0.000 A 
ATOM     26  C   UNL     1      -3.641  12.146  19.355  0.00  0.00    +0.000 A 
ATOM     27  C   UNL     1      -3.384  12.814  20.679  0.00  0.00    +0.000 C 
ENDBRANCH  18  20
ENDBRANCH  15  16
ENDBRANCH   1  15
BRANCH   1  28
ATOM     28  C   UNL     1       1.329   9.789  18.139  0.00  0.00    +0.000 C 
BRANCH  28  29
ATOM     29  C   UNL     1       2.068   8.505  18.321  0.00  0.00    +0.000 A 
ATOM     30  N   UNL     1       1.806   7.526  19.155  0.00  0.00    +0.000 NA
ATOM     31  C   UNL     1       2.748   6.582  18.821  0.00  0.00    +0.000 A 
ATOM     32  N   UNL     1       3.567   6.959  17.823  0.00  0.00    +0.000 NA
ATOM     33  O   UNL     1       3.116   8.240  17.491  0.00  0.00    +0.000 OA
BRANCH  31  34
ATOM     34  C   UNL     1       2.802   5.307  19.509  0.00  0.00    +0.000 A 
ATOM     35  C   UNL     1       1.884   5.007  20.524  0.00  0.00    +0.000 A 
ATOM     36  C   UNL     1       1.961   3.789  21.197  0.00  0.00    +0.000 A 
ATOM     37  C   UNL     1       2.955   2.901  20.826  0.00  0.00    +0.000 A 
ATOM     38  N   UNL     1       3.850   3.145  19.844  0.00  0.00    +0.000 NA
ATOM     39  C   UNL     1       3.754   4.341  19.208  0.00  0.00    +0.000 A 
ENDBRANCH  31  34
ENDBRANCH  28  29
ENDBRANCH   1  28
TORSDOF 9
ENDMDL
MODEL 9
REMARK VINA RESULT:      -7.4      3.475      8.453
REMARK  Name = 
REMARK  13 active torsions:
REMARK  status: ('A' for Active; 'I' for Inactive)
REMARK    1  A    between atoms: C_1  and  C_2
REMARK    2  A    between atoms: C_6  and  C_7
REMARK    3  A    between atoms: C_8  and  N_9
REMARK    4  A    between atoms: C_10  and  C_12
REMARK    5  A    between atoms: C_12  and  N_13
REMARK    6  A    between atoms: N_13  and  C_14
REMARK    7  A    between atoms: N_13  and  C_26
REMARK    8  A    between atoms: C_14  and  C_15
REMARK    9  A    between atoms: N_17  and  C_18
REMARK   10  A    between atoms: C_19  and  C_20
REMARK   11  A    between atoms: C_24  and  C_25
REMARK   12  A    between atoms: C_26  and  C_27
REMARK   13  A    between atoms: C_29  and  C_30
REMARK                            x       y       z     vdW  Elec       q    Type
REMARK                         _______ _______ _______ _____ _____    ______ ____
ROOT
ATOM      1  N   UNL     1       0.967  11.979  20.151  0.00  0.00    +0.000 NA
ENDROOT
BRANCH   1   2
ATOM      2  C   UNL     1       2.202  12.800  20.032  0.00  0.00    +0.000 C 
BRANCH   2   4
ATOM      3  N   UNL     1       1.357  14.769  18.825  0.00  0.00    +0.000 N 
ATOM      4  C   UNL     1       1.885  14.321  20.029  0.00  0.00    +0.000 C 
ATOM      5  O   UNL     1       2.156  15.024  21.000  0.00  0.00    +0.000 OA
ATOM      6  H   UNL     1       1.601  14.168  18.047  0.00  0.00    +0.000 HD
BRANCH   3  14
ATOM      7  C   UNL     1      -1.139  16.154  19.684  0.00  0.00    +0.000 C 
ATOM      8  C   UNL     1      -0.077  16.778  18.828  0.00  0.00    +0.000 A 
ATOM      9  C   UNL     1      -0.372  18.033  18.257  0.00  0.00    +0.000 A 
ATOM     10  C   UNL     1       0.485  18.631  17.340  0.00  0.00    +0.000 A 
ATOM     11  C   UNL     1       1.690  18.011  17.033  0.00  0.00    +0.000 A 
ATOM     12  C   UNL     1       2.039  16.779  17.614  0.00  0.00    +0.000 A 
ATOM     13  C   UNL     1       3.384  16.208  17.260  0.00  0.00    +0.000 C 
ATOM     14  C   UNL     1       1.141  16.135  18.497  0.00  0.00    +0.000 A 
ENDBRANCH   3  14
ENDBRANCH   2   4
ENDBRANCH   1   2
BRANCH   1  15
ATOM     15  C   UNL     1      -0.197  12.769  20.637  0.00  0.00    +0.000 C 
BRANCH  15  16
ATOM     16  C   UNL     1      -1.554  12.069  20.493  0.00  0.00    +0.000 C 
ATOM     17  O   UNL     1      -1.775  10.989  21.015  0.00  0.00    +0.000 OA
ATOM     18  N   UNL     1      -2.442  12.794  19.696  0.00  0.00    +0.000 N 
ATOM     19  H   UNL     1      -2.002  13.342  18.963  0.00  0.00    +0.000 HD
BRANCH  18  20
ATOM     20  C   UNL     1      -3.744  12.316  19.425  0.00  0.00    +0.000 A 
ATOM     21  C   UNL     1      -4.832  12.581  20.285  0.00  0.00    +0.000 A 
ATOM     22  C   UNL     1      -4.807  13.619  21.376  0.00  0.00    +0.000 C 
ATOM     23  C   UNL     1      -6.051  11.922  20.062  0.00  0.00    +0.000 A 
ATOM     24  C   UNL     1      -6.203  11.049  18.991  0.00  0.00    +0.000 A 
ATOM     25  C   UNL     1      -5.163  10.870  18.086  0.00  0.00    +0.000 A 
ATOM     26  C   UNL     1      -3.935  11.528  18.270  0.00  0.00    +0.000 A 
ATOM     27  C   UNL     1      -2.849  11.298  17.254  0.00  0.00    +0.000 C 
ENDBRANCH  18  20
ENDBRANCH  15  16
ENDBRANCH   1  15
BRANCH   1  28
ATOM     28  C   UNL     1       0.625  11.321  18.857  0.00  0.00    +0.000 C 
BRANCH  28  29
ATOM     29  C   UNL     1       1.362  10.042  18.631  0.00  0.00    +0.000 A 
ATOM     30  N   UNL     1       1.450   9.003  19.427  0.00  0.00    +0.000 NA
ATOM     31  C   UNL     1       2.167   8.103  18.672  0.00  0.00    +0.000 A 
ATOM     32  N   UNL     1       2.515   8.566  17.458  0.00  0.00    +0.000 NA
ATOM     33  O   UNL     1       1.981   9.858  17.431  0.00  0.00    +0.000 OA
BRANCH  31  34
ATOM     34  C   UNL     1       2.481   6.785  19.186  0.00  0.00    +0.000 A 
ATOM     35  C   UNL     1       1.791   6.267  20.289  0.00  0.00    +0.000 A 
ATOM     36  C   UNL     1       2.120   5.009  20.791  0.00  0.00    +0.000 A 
ATOM     37  C   UNL     1       3.130   4.301  20.165  0.00  0.00    +0.000 A 
ATOM     38  N   UNL     1       3.811   4.757  19.091  0.00  0.00    +0.000 NA
ATOM     39  C   UNL     1       3.472   5.988  18.626  0.00  0.00    +0.000 A 
ENDBRANCH  31  34
ENDBRANCH  28  29
ENDBRANCH   1  28
TORSDOF 9
ENDMDL
