MODEL 1
REMARK VINA RESULT:      -7.8      0.000      0.000
REMARK  Name = 
REMARK  4 active torsions:
REMARK  status: ('A' for Active; 'I' for Inactive)
REMARK    1  A    between atoms: C_2  and  C_4
REMARK    2  A    between atoms: N_8  and  S_9
REMARK    3  A    between atoms: S_9  and  C_12
REMARK    4  A    between atoms: C_20  and  N_21
REMARK                            x       y       z     vdW  Elec       q    Type
REMARK                         _______ _______ _______ _____ _____    ______ ____
ROOT
ATOM      1  C   UNL     1       1.716   8.076  19.823  0.00  0.00    +0.000 A 
ATOM      2  C   UNL     1       2.239   8.583  18.637  0.00  0.00    +0.000 A 
ATOM      3  C   UNL     1       3.073   7.781  17.854  0.00  0.00    +0.000 A 
ATOM      4  C   UNL     1       3.417   6.460  18.237  0.00  0.00    +0.000 A 
ATOM      5  C   UNL     1       4.242   5.612  17.466  0.00  0.00    +0.000 A 
ATOM      6 CL   UNL     1       4.913   6.084  15.945  0.00  0.00    +0.000 Cl
ATOM      7  C   UNL     1       4.526   4.340  17.933  0.00  0.00    +0.000 A 
ATOM      8  N   UNL     1       4.065   3.840  19.103  0.00  0.00    +0.000 NA
ATOM      9  C   UNL     1       3.270   4.647  19.848  0.00  0.00    +0.000 A 
ATOM     10  C   UNL     1       2.906   5.961  19.464  0.00  0.00    +0.000 A 
ATOM     11  C   UNL     1       2.065   6.794  20.247  0.00  0.00    +0.000 A 
ENDROOT
BRANCH   9  12
ATOM     12  N   UNL     1       2.729   4.087  21.019  0.00  0.00    +0.000 NA
ATOM     13  C   UNL     1       1.996   3.026  20.994  0.00  0.00    +0.000 C 
ATOM     14  N   UNL     1       1.637   2.245  19.947  0.00  0.00    +0.000 N 
ATOM     15  N   UNL     1       1.465   2.528  22.135  0.00  0.00    +0.000 N 
ATOM     16  H   UNL     1       1.822   2.737  19.072  0.00  0.00    +0.000 HD
ATOM     17  H   UNL     1       0.660   1.979  19.989  0.00  0.00    +0.000 HD
ATOM     18  H   UNL     1       1.900   2.940  22.952  0.00  0.00    +0.000 HD
ATOM     19  H   UNL     1       1.482   1.516  22.170  0.00  0.00    +0.000 HD
ENDBRANCH   9  12
BRANCH   1  20
ATOM     20  S   UNL     1       0.759   9.159  20.878  0.00  0.00    +0.000 S 
ATOM     21  O   UNL     1       1.646   9.615  21.931  0.00  0.00    +0.000 OA
ATOM     22  O   UNL     1      -0.488   8.491  21.190  0.00  0.00    +0.000 OA
BRANCH  20  27
ATOM     23  C   UNL     1       0.974  11.805  20.456  0.00  0.00    +0.000 C 
ATOM     24  C   UNL     1      -0.146  12.355  21.330  0.00  0.00    +0.000 C 
ATOM     25  C   UNL     1      -1.411  11.984  20.574  0.00  0.00    +0.000 C 
ATOM     26  C   UNL     1      -1.054  10.786  19.699  0.00  0.00    +0.000 C 
ATOM     27  N   UNL     1       0.405  10.521  19.891  0.00  0.00    +0.000 NA
BRANCH  23  29
ATOM     28  N   UNL     1       1.874  12.283  18.216  0.00  0.00    +0.000 N 
ATOM     29  C   UNL     1       1.368  12.810  19.367  0.00  0.00    +0.000 C 
ATOM     30  O   UNL     1       1.317  14.031  19.504  0.00  0.00    +0.000 OA
ATOM     31  H   UNL     1       2.182  12.922  17.493  0.00  0.00    +0.000 HD
ATOM     32  H   UNL     1       1.977  11.286  18.091  0.00  0.00    +0.000 HD
ENDBRANCH  23  29
ENDBRANCH  20  27
ENDBRANCH   1  20
TORSDOF 4
ENDMDL
MODEL 2
REMARK VINA RESULT:      -7.4      2.463      4.019
REMARK  Name = 
REMARK  4 active torsions:
REMARK  status: ('A' for Active; 'I' for Inactive)
REMARK    1  A    between atoms: C_2  and  C_4
REMARK    2  A    between atoms: N_8  and  S_9
REMARK    3  A    between atoms: S_9  and  C_12
REMARK    4  A    between atoms: C_20  and  N_21
REMARK                            x       y       z     vdW  Elec       q    Type
REMARK                         _______ _______ _______ _____ _____    ______ ____
ROOT
ATOM      1  C   UNL     1       1.718   8.193  19.369  0.00  0.00    +0.000 A 
ATOM      2  C   UNL     1       1.217   7.641  20.544  0.00  0.00    +0.000 A 
ATOM      3  C   UNL     1       1.545   6.324  20.881  0.00  0.00    +0.000 A 
ATOM      4  C   UNL     1       2.369   5.523  20.052  0.00  0.00    +0.000 A 
ATOM      5  C   UNL     1       2.738   4.196  20.366  0.00  0.00    +0.000 A 
ATOM      6 CL   UNL     1       2.239   3.400  21.817  0.00  0.00    +0.000 Cl
ATOM      7  C   UNL     1       3.541   3.492  19.484  0.00  0.00    +0.000 A 
ATOM      8  N   UNL     1       4.006   3.992  18.316  0.00  0.00    +0.000 NA
ATOM      9  C   UNL     1       3.659   5.266  18.009  0.00  0.00    +0.000 A 
ATOM     10  C   UNL     1       2.851   6.081  18.840  0.00  0.00    +0.000 A 
ATOM     11  C   UNL     1       2.502   7.417  18.514  0.00  0.00    +0.000 A 
ENDROOT
BRANCH   9  12
ATOM     12  N   UNL     1       4.217   5.803  16.835  0.00  0.00    +0.000 NA
ATOM     13  C   UNL     1       5.484   5.759  16.598  0.00  0.00    +0.000 C 
ATOM     14  N   UNL     1       6.483   5.206  17.326  0.00  0.00    +0.000 N 
ATOM     15  N   UNL     1       5.994   6.311  15.472  0.00  0.00    +0.000 N 
ATOM     16  H   UNL     1       6.151   5.009  18.271  0.00  0.00    +0.000 HD
ATOM     17  H   UNL     1       7.299   5.805  17.369  0.00  0.00    +0.000 HD
ATOM     18  H   UNL     1       5.262   6.519  14.802  0.00  0.00    +0.000 HD
ATOM     19  H   UNL     1       6.734   5.756  15.060  0.00  0.00    +0.000 HD
ENDBRANCH   9  12
BRANCH   1  20
ATOM     20  S   UNL     1       1.183   9.830  18.886  0.00  0.00    +0.000 S 
ATOM     21  O   UNL     1      -0.131   9.686  18.291  0.00  0.00    +0.000 OA
ATOM     22  O   UNL     1       2.267  10.458  18.159  0.00  0.00    +0.000 OA
BRANCH  20  27
ATOM     23  C   UNL     1      -0.455  10.630  20.863  0.00  0.00    +0.000 C 
ATOM     24  C   UNL     1      -1.092  11.875  20.258  0.00  0.00    +0.000 C 
ATOM     25  C   UNL     1       0.024  12.906  20.293  0.00  0.00    +0.000 C 
ATOM     26  C   UNL     1       1.333  12.123  20.316  0.00  0.00    +0.000 C 
ATOM     27  N   UNL     1       0.976  10.672  20.371  0.00  0.00    +0.000 NA
BRANCH  23  29
ATOM     28  N   UNL     1      -1.614  11.329  22.918  0.00  0.00    +0.000 N 
ATOM     29  C   UNL     1      -0.558  10.644  22.391  0.00  0.00    +0.000 C 
ATOM     30  O   UNL     1       0.276  10.145  23.145  0.00  0.00    +0.000 OA
ATOM     31  H   UNL     1      -1.688  11.391  23.926  0.00  0.00    +0.000 HD
ATOM     32  H   UNL     1      -2.289  11.794  22.328  0.00  0.00    +0.000 HD
ENDBRANCH  23  29
ENDBRANCH  20  27
ENDBRANCH   1  20
TORSDOF 4
ENDMDL
MODEL 3
REMARK VINA RESULT:      -7.1      2.739      4.064
REMARK  Name = 
REMARK  4 active torsions:
REMARK  status: ('A' for Active; 'I' for Inactive)
REMARK    1  A    between atoms: C_2  and  C_4
REMARK    2  A    between atoms: N_8  and  S_9
REMARK    3  A    between atoms: S_9  and  C_12
REMARK    4  A    between atoms: C_20  and  N_21
REMARK                            x       y       z     vdW  Elec       q    Type
REMARK                         _______ _______ _______ _____ _____    ______ ____
ROOT
ATOM      1  C   UNL     1       1.826   8.405  19.359  0.00  0.00    +0.000 A 
ATOM      2  C   UNL     1       1.292   7.877  20.530  0.00  0.00    +0.000 A 
ATOM      3  C   UNL     1       1.545   6.543  20.863  0.00  0.00    +0.000 A 
ATOM      4  C   UNL     1       2.325   5.700  20.032  0.00  0.00    +0.000 A 
ATOM      5  C   UNL     1       2.619   4.354  20.341  0.00  0.00    +0.000 A 
ATOM      6 CL   UNL     1       2.074   3.581  21.788  0.00  0.00    +0.000 Cl
ATOM      7  C   UNL     1       3.384   3.610  19.458  0.00  0.00    +0.000 A 
ATOM      8  N   UNL     1       3.878   4.088  18.293  0.00  0.00    +0.000 NA
ATOM      9  C   UNL     1       3.603   5.381  17.990  0.00  0.00    +0.000 A 
ATOM     10  C   UNL     1       2.840   6.236  18.823  0.00  0.00    +0.000 A 
ATOM     11  C   UNL     1       2.567   7.591  18.501  0.00  0.00    +0.000 A 
ENDROOT
BRANCH   9  12
ATOM     12  N   UNL     1       4.192   5.890  16.819  0.00  0.00    +0.000 NA
ATOM     13  C   UNL     1       5.453   5.766  16.579  0.00  0.00    +0.000 C 
ATOM     14  N   UNL     1       6.416   5.144  17.300  0.00  0.00    +0.000 N 
ATOM     15  N   UNL     1       5.997   6.293  15.457  0.00  0.00    +0.000 N 
ATOM     16  H   UNL     1       6.074   4.961  18.245  0.00  0.00    +0.000 HD
ATOM     17  H   UNL     1       7.269   5.689  17.346  0.00  0.00    +0.000 HD
ATOM     18  H   UNL     1       5.279   6.554  14.790  0.00  0.00    +0.000 HD
ATOM     19  H   UNL     1       6.698   5.696  15.039  0.00  0.00    +0.000 HD
ENDBRANCH   9  12
BRANCH   1  20
ATOM     20  S   UNL     1       1.383  10.071  18.881  0.00  0.00    +0.000 S 
ATOM     21  O   UNL     1       1.910  10.283  17.547  0.00  0.00    +0.000 OA
ATOM     22  O   UNL     1       1.736  10.957  19.972  0.00  0.00    +0.000 OA
BRANCH  20  27
ATOM     23  C   UNL     1      -0.842  10.983  17.679  0.00  0.00    +0.000 C 
ATOM     24  C   UNL     1      -1.087  12.291  18.421  0.00  0.00    +0.000 C 
ATOM     25  C   UNL     1      -1.587  11.845  19.785  0.00  0.00    +0.000 C 
ATOM     26  C   UNL     1      -1.056  10.430  19.996  0.00  0.00    +0.000 C 
ATOM     27  N   UNL     1      -0.330  10.042  18.749  0.00  0.00    +0.000 NA
BRANCH  23  29
ATOM     28  N   UNL     1      -2.558  11.190  15.927  0.00  0.00    +0.000 N 
ATOM     29  C   UNL     1      -2.125  10.480  17.009  0.00  0.00    +0.000 C 
ATOM     30  O   UNL     1      -2.800   9.541  17.427  0.00  0.00    +0.000 OA
ATOM     31  H   UNL     1      -3.425  10.907  15.487  0.00  0.00    +0.000 HD
ATOM     32  H   UNL     1      -2.055  11.997  15.589  0.00  0.00    +0.000 HD
ENDBRANCH  23  29
ENDBRANCH  20  27
ENDBRANCH   1  20
TORSDOF 4
ENDMDL
MODEL 4
REMARK VINA RESULT:      -6.9      3.555      7.890
REMARK  Name = 
REMARK  4 active torsions:
REMARK  status: ('A' for Active; 'I' for Inactive)
REMARK    1  A    between atoms: C_2  and  C_4
REMARK    2  A    between atoms: N_8  and  S_9
REMARK    3  A    between atoms: S_9  and  C_12
REMARK    4  A    between atoms: C_20  and  N_21
REMARK                            x       y       z     vdW  Elec       q    Type
REMARK                         _______ _______ _______ _____ _____    ______ ____
ROOT
ATOM      1  C   UNL     1       2.057   7.392  19.232  0.00  0.00    +0.000 A 
ATOM      2  C   UNL     1       1.697   6.839  20.457  0.00  0.00    +0.000 A 
ATOM      3  C   UNL     1       1.113   7.651  21.434  0.00  0.00    +0.000 A 
ATOM      4  C   UNL     1       0.883   9.033  21.219  0.00  0.00    +0.000 A 
ATOM      5  C   UNL     1       0.279   9.882  22.172  0.00  0.00    +0.000 A 
ATOM      6 CL   UNL     1      -0.272   9.323  23.713  0.00  0.00    +0.000 Cl
ATOM      7  C   UNL     1       0.106  11.222  21.870  0.00  0.00    +0.000 A 
ATOM      8  N   UNL     1       0.486  11.792  20.703  0.00  0.00    +0.000 NA
ATOM      9  C   UNL     1       1.064  10.983  19.781  0.00  0.00    +0.000 A 
ATOM     10  C   UNL     1       1.281   9.597  19.979  0.00  0.00    +0.000 A 
ATOM     11  C   UNL     1       1.878   8.757  19.004  0.00  0.00    +0.000 A 
ENDROOT
BRANCH   9  12
ATOM     12  N   UNL     1       1.377  11.568  18.541  0.00  0.00    +0.000 NA
ATOM     13  C   UNL     1       2.095  12.635  18.450  0.00  0.00    +0.000 C 
ATOM     14  N   UNL     1       2.698  13.359  19.423  0.00  0.00    +0.000 N 
ATOM     15  N   UNL     1       2.355  13.191  17.244  0.00  0.00    +0.000 N 
ATOM     16  H   UNL     1       2.315  13.098  20.333  0.00  0.00    +0.000 HD
ATOM     17  H   UNL     1       2.586  14.356  19.280  0.00  0.00    +0.000 HD
ATOM     18  H   UNL     1       2.124  12.555  16.489  0.00  0.00    +0.000 HD
ATOM     19  H   UNL     1       3.301  13.540  17.165  0.00  0.00    +0.000 HD
ENDBRANCH   9  12
BRANCH   1  20
ATOM     20  S   UNL     1       2.924   6.373  18.045  0.00  0.00    +0.000 S 
ATOM     21  O   UNL     1       3.606   7.271  17.134  0.00  0.00    +0.000 OA
ATOM     22  O   UNL     1       1.998   5.374  17.553  0.00  0.00    +0.000 OA
BRANCH  20  27
ATOM     23  C   UNL     1       5.264   5.049  18.103  0.00  0.00    +0.000 C 
ATOM     24  C   UNL     1       4.832   3.632  17.746  0.00  0.00    +0.000 C 
ATOM     25  C   UNL     1       4.125   3.143  18.999  0.00  0.00    +0.000 C 
ATOM     26  C   UNL     1       3.647   4.389  19.738  0.00  0.00    +0.000 C 
ATOM     27  N   UNL     1       4.135   5.572  18.966  0.00  0.00    +0.000 NA
BRANCH  23  29
ATOM     28  N   UNL     1       7.636   4.401  18.197  0.00  0.00    +0.000 N 
ATOM     29  C   UNL     1       6.614   5.049  18.827  0.00  0.00    +0.000 C 
ATOM     30  O   UNL     1       6.799   5.528  19.945  0.00  0.00    +0.000 OA
ATOM     31  H   UNL     1       8.530   4.348  18.668  0.00  0.00    +0.000 HD
ATOM     32  H   UNL     1       7.505   3.952  17.302  0.00  0.00    +0.000 HD
ENDBRANCH  23  29
ENDBRANCH  20  27
ENDBRANCH   1  20
TORSDOF 4
ENDMDL
MODEL 5
REMARK VINA RESULT:      -6.8      1.427      1.845
REMARK  Name = 
REMARK  4 active torsions:
REMARK  status: ('A' for Active; 'I' for Inactive)
REMARK    1  A    between atoms: C_2  and  C_4
REMARK    2  A    between atoms: N_8  and  S_9
REMARK    3  A    between atoms: S_9  and  C_12
REMARK    4  A    between atoms: C_20  and  N_21
REMARK                            x       y       z     vdW  Elec       q    Type
REMARK                         _______ _______ _______ _____ _____    ______ ____
ROOT
ATOM      1  C   UNL     1       1.350   8.626  19.976  0.00  0.00    +0.000 A 
ATOM      2  C   UNL     1       1.856   9.191  18.808  0.00  0.00    +0.000 A 
ATOM      3  C   UNL     1       2.698   8.436  17.986  0.00  0.00    +0.000 A 
ATOM      4  C   UNL     1       3.067   7.107  18.312  0.00  0.00    +0.000 A 
ATOM      5  C   UNL     1       3.900   6.306  17.501  0.00  0.00    +0.000 A 
ATOM      6 CL   UNL     1       4.552   6.852  15.996  0.00  0.00    +0.000 Cl
ATOM      7  C   UNL     1       4.210   5.020  17.912  0.00  0.00    +0.000 A 
ATOM      8  N   UNL     1       3.766   4.464  19.064  0.00  0.00    +0.000 NA
ATOM      9  C   UNL     1       2.963   5.225  19.847  0.00  0.00    +0.000 A 
ATOM     10  C   UNL     1       2.574   6.548  19.520  0.00  0.00    +0.000 A 
ATOM     11  C   UNL     1       1.725   7.333  20.343  0.00  0.00    +0.000 A 
ENDROOT
BRANCH   9  12
ATOM     12  N   UNL     1       2.440   4.608  20.997  0.00  0.00    +0.000 NA
ATOM     13  C   UNL     1       1.884   3.445  20.956  0.00  0.00    +0.000 C 
ATOM     14  N   UNL     1       1.719   2.600  19.911  0.00  0.00    +0.000 N 
ATOM     15  N   UNL     1       1.364   2.890  22.075  0.00  0.00    +0.000 N 
ATOM     16  H   UNL     1       1.882   3.100  19.036  0.00  0.00    +0.000 HD
ATOM     17  H   UNL     1       0.795   2.185  19.899  0.00  0.00    +0.000 HD
ATOM     18  H   UNL     1       1.675   3.379  22.907  0.00  0.00    +0.000 HD
ATOM     19  H   UNL     1       1.535   1.895  22.139  0.00  0.00    +0.000 HD
ENDBRANCH   9  12
BRANCH   1  20
ATOM     20  S   UNL     1       0.384   9.647  21.081  0.00  0.00    +0.000 S 
ATOM     21  O   UNL     1       1.225  10.762  21.471  0.00  0.00    +0.000 OA
ATOM     22  O   UNL     1      -0.218   8.782  22.076  0.00  0.00    +0.000 OA
BRANCH  20  27
ATOM     23  C   UNL     1      -0.354  10.823  18.779  0.00  0.00    +0.000 C 
ATOM     24  C   UNL     1      -0.064  12.290  19.068  0.00  0.00    +0.000 C 
ATOM     25  C   UNL     1      -1.167  12.694  20.033  0.00  0.00    +0.000 C 
ATOM     26  C   UNL     1      -1.636  11.410  20.712  0.00  0.00    +0.000 C 
ATOM     27  N   UNL     1      -0.872  10.283  20.095  0.00  0.00    +0.000 NA
BRANCH  23  29
ATOM     28  N   UNL     1      -1.626  11.801  16.913  0.00  0.00    +0.000 N 
ATOM     29  C   UNL     1      -1.365  10.675  17.637  0.00  0.00    +0.000 C 
ATOM     30  O   UNL     1      -1.986   9.641  17.393  0.00  0.00    +0.000 OA
ATOM     31  H   UNL     1      -2.319  11.746  16.177  0.00  0.00    +0.000 HD
ATOM     32  H   UNL     1      -1.172  12.679  17.120  0.00  0.00    +0.000 HD
ENDBRANCH  23  29
ENDBRANCH  20  27
ENDBRANCH   1  20
TORSDOF 4
ENDMDL
MODEL 6
REMARK VINA RESULT:      -6.8      5.416      8.173
REMARK  Name = 
REMARK  4 active torsions:
REMARK  status: ('A' for Active; 'I' for Inactive)
REMARK    1  A    between atoms: C_2  and  C_4
REMARK    2  A    between atoms: N_8  and  S_9
REMARK    3  A    between atoms: S_9  and  C_12
REMARK    4  A    between atoms: C_20  and  N_21
REMARK                            x       y       z     vdW  Elec       q    Type
REMARK                         _______ _______ _______ _____ _____    ______ ____
ROOT
ATOM      1  C   UNL     1      -2.612  13.245  21.633  0.00  0.00    +0.000 A 
ATOM      2  C   UNL     1      -2.146  12.727  22.837  0.00  0.00    +0.000 A 
ATOM      3  C   UNL     1      -1.245  11.659  22.825  0.00  0.00    +0.000 A 
ATOM      4  C   UNL     1      -0.795  11.074  21.615  0.00  0.00    +0.000 A 
ATOM      5  C   UNL     1       0.128  10.006  21.559  0.00  0.00    +0.000 A 
ATOM      6 CL   UNL     1       0.836   9.301  22.970  0.00  0.00    +0.000 Cl
ATOM      7  C   UNL     1       0.498   9.497  20.326  0.00  0.00    +0.000 A 
ATOM      8  N   UNL     1       0.027   9.955  19.143  0.00  0.00    +0.000 NA
ATOM      9  C   UNL     1      -0.858  10.982  19.188  0.00  0.00    +0.000 A 
ATOM     10  C   UNL     1      -1.299  11.586  20.391  0.00  0.00    +0.000 A 
ATOM     11  C   UNL     1      -2.217  12.666  20.426  0.00  0.00    +0.000 A 
ENDROOT
BRANCH   9  12
ATOM     12  N   UNL     1      -1.276  11.504  17.951  0.00  0.00    +0.000 NA
ATOM     13  C   UNL     1      -2.109  10.878  17.191  0.00  0.00    +0.000 C 
ATOM     14  N   UNL     1      -2.753   9.704  17.392  0.00  0.00    +0.000 N 
ATOM     15  N   UNL     1      -2.469  11.393  15.992  0.00  0.00    +0.000 N 
ATOM     16  H   UNL     1      -2.312   9.199  18.163  0.00  0.00    +0.000 HD
ATOM     17  H   UNL     1      -2.756   9.124  16.561  0.00  0.00    +0.000 HD
ATOM     18  H   UNL     1      -2.196  12.367  15.914  0.00  0.00    +0.000 HD
ATOM     19  H   UNL     1      -3.450  11.260  15.783  0.00  0.00    +0.000 HD
ENDBRANCH   9  12
BRANCH   1  20
ATOM     20  S   UNL     1      -3.865  14.521  21.668  0.00  0.00    +0.000 S 
ATOM     21  O   UNL     1      -4.799  14.226  20.599  0.00  0.00    +0.000 OA
ATOM     22  O   UNL     1      -3.195  15.804  21.740  0.00  0.00    +0.000 OA
BRANCH  20  27
ATOM     23  C   UNL     1      -6.159  13.932  22.941  0.00  0.00    +0.000 C 
ATOM     24  C   UNL     1      -6.859  15.284  22.969  0.00  0.00    +0.000 C 
ATOM     25  C   UNL     1      -6.080  16.075  24.006  0.00  0.00    +0.000 C 
ATOM     26  C   UNL     1      -4.692  15.444  24.074  0.00  0.00    +0.000 C 
ATOM     27  N   UNL     1      -4.698  14.269  23.150  0.00  0.00    +0.000 NA
BRANCH  23  29
ATOM     28  N   UNL     1      -5.804  12.215  24.668  0.00  0.00    +0.000 N 
ATOM     29  C   UNL     1      -6.715  13.000  24.023  0.00  0.00    +0.000 C 
ATOM     30  O   UNL     1      -7.911  12.877  24.281  0.00  0.00    +0.000 OA
ATOM     31  H   UNL     1      -6.145  11.559  25.360  0.00  0.00    +0.000 HD
ATOM     32  H   UNL     1      -4.820  12.253  24.444  0.00  0.00    +0.000 HD
ENDBRANCH  23  29
ENDBRANCH  20  27
ENDBRANCH   1  20
TORSDOF 4
ENDMDL
MODEL 7
REMARK VINA RESULT:      -6.8      2.904      4.461
REMARK  Name = 
REMARK  4 active torsions:
REMARK  status: ('A' for Active; 'I' for Inactive)
REMARK    1  A    between atoms: C_2  and  C_4
REMARK    2  A    between atoms: N_8  and  S_9
REMARK    3  A    between atoms: S_9  and  C_12
REMARK    4  A    between atoms: C_20  and  N_21
REMARK                            x       y       z     vdW  Elec       q    Type
REMARK                         _______ _______ _______ _____ _____    ______ ____
ROOT
ATOM      1  C   UNL     1       2.280   7.973  18.122  0.00  0.00    +0.000 A 
ATOM      2  C   UNL     1       1.496   6.858  18.402  0.00  0.00    +0.000 A 
ATOM      3  C   UNL     1       2.052   5.580  18.299  0.00  0.00    +0.000 A 
ATOM      4  C   UNL     1       3.399   5.380  17.905  0.00  0.00    +0.000 A 
ATOM      5  C   UNL     1       4.003   4.108  17.806  0.00  0.00    +0.000 A 
ATOM      6 CL   UNL     1       3.170   2.640  18.180  0.00  0.00    +0.000 Cl
ATOM      7  C   UNL     1       5.325   4.017  17.402  0.00  0.00    +0.000 A 
ATOM      8  N   UNL     1       6.095   5.083  17.082  0.00  0.00    +0.000 NA
ATOM      9  C   UNL     1       5.523   6.309  17.177  0.00  0.00    +0.000 A 
ATOM     10  C   UNL     1       4.184   6.519  17.589  0.00  0.00    +0.000 A 
ATOM     11  C   UNL     1       3.598   7.807  17.694  0.00  0.00    +0.000 A 
ENDROOT
BRANCH   9  12
ATOM     12  N   UNL     1       6.358   7.412  16.924  0.00  0.00    +0.000 NA
ATOM     13  C   UNL     1       7.440   7.618  17.596  0.00  0.00    +0.000 C 
ATOM     14  N   UNL     1       8.003   6.879  18.581  0.00  0.00    +0.000 N 
ATOM     15  N   UNL     1       8.207   8.706  17.349  0.00  0.00    +0.000 N 
ATOM     16  H   UNL     1       7.323   6.205  18.936  0.00  0.00    +0.000 HD
ATOM     17  H   UNL     1       8.342   7.455  19.343  0.00  0.00    +0.000 HD
ATOM     18  H   UNL     1       7.948   9.147  16.474  0.00  0.00    +0.000 HD
ATOM     19  H   UNL     1       9.198   8.508  17.391  0.00  0.00    +0.000 HD
ENDBRANCH   9  12
BRANCH   1  20
ATOM     20  S   UNL     1       1.518   9.591  18.128  0.00  0.00    +0.000 S 
ATOM     21  O   UNL     1       0.144   9.413  17.701  0.00  0.00    +0.000 OA
ATOM     22  O   UNL     1       2.403  10.505  17.434  0.00  0.00    +0.000 OA
BRANCH  20  27
ATOM     23  C   UNL     1       0.250   9.510  20.498  0.00  0.00    +0.000 C 
ATOM     24  C   UNL     1      -0.781  10.620  20.341  0.00  0.00    +0.000 C 
ATOM     25  C   UNL     1       0.042  11.895  20.431  0.00  0.00    +0.000 C 
ATOM     26  C   UNL     1       1.465  11.517  20.029  0.00  0.00    +0.000 C 
ATOM     27  N   UNL     1       1.476  10.042  19.787  0.00  0.00    +0.000 NA
BRANCH  23  29
ATOM     28  N   UNL     1      -0.596   9.000  22.752  0.00  0.00    +0.000 N 
ATOM     29  C   UNL     1       0.509   9.202  21.977  0.00  0.00    +0.000 C 
ATOM     30  O   UNL     1       1.623   9.198  22.497  0.00  0.00    +0.000 OA
ATOM     31  H   UNL     1      -0.460   8.835  23.741  0.00  0.00    +0.000 HD
ATOM     32  H   UNL     1      -1.528   9.048  22.367  0.00  0.00    +0.000 HD
ENDBRANCH  23  29
ENDBRANCH  20  27
ENDBRANCH   1  20
TORSDOF 4
ENDMDL
MODEL 8
REMARK VINA RESULT:      -6.8      3.511      8.100
REMARK  Name = 
REMARK  4 active torsions:
REMARK  status: ('A' for Active; 'I' for Inactive)
REMARK    1  A    between atoms: C_2  and  C_4
REMARK    2  A    between atoms: N_8  and  S_9
REMARK    3  A    between atoms: S_9  and  C_12
REMARK    4  A    between atoms: C_20  and  N_21
REMARK                            x       y       z     vdW  Elec       q    Type
REMARK                         _______ _______ _______ _____ _____    ______ ____
ROOT
ATOM      1  C   UNL     1       2.199   7.176  19.531  0.00  0.00    +0.000 A 
ATOM      2  C   UNL     1       1.662   6.699  20.723  0.00  0.00    +0.000 A 
ATOM      3  C   UNL     1       0.915   7.557  21.535  0.00  0.00    +0.000 A 
ATOM      4  C   UNL     1       0.695   8.913  21.185  0.00  0.00    +0.000 A 
ATOM      5  C   UNL     1      -0.068   9.807  21.968  0.00  0.00    +0.000 A 
ATOM      6 CL   UNL     1      -0.844   9.340  23.441  0.00  0.00    +0.000 Cl
ATOM      7  C   UNL     1      -0.217  11.118  21.545  0.00  0.00    +0.000 A 
ATOM      8  N   UNL     1       0.331  11.616  20.413  0.00  0.00    +0.000 NA
ATOM      9  C   UNL     1       1.062  10.764  19.654  0.00  0.00    +0.000 A 
ATOM     10  C   UNL     1       1.272   9.402  19.985  0.00  0.00    +0.000 A 
ATOM     11  C   UNL     1       2.032   8.516  19.178  0.00  0.00    +0.000 A 
ENDROOT
BRANCH   9  12
ATOM     12  N   UNL     1       1.555  11.271  18.438  0.00  0.00    +0.000 NA
ATOM     13  C   UNL     1       2.189  12.392  18.372  0.00  0.00    +0.000 C 
ATOM     14  N   UNL     1       2.537  13.250  19.360  0.00  0.00    +0.000 N 
ATOM     15  N   UNL     1       2.626  12.868  17.183  0.00  0.00    +0.000 N 
ATOM     16  H   UNL     1       2.012  13.030  20.208  0.00  0.00    +0.000 HD
ATOM     17  H   UNL     1       2.375  14.216  19.100  0.00  0.00    +0.000 HD
ATOM     18  H   UNL     1       2.593  12.151  16.467  0.00  0.00    +0.000 HD
ATOM     19  H   UNL     1       3.539  13.300  17.241  0.00  0.00    +0.000 HD
ENDBRANCH   9  12
BRANCH   1  20
ATOM     20  S   UNL     1       3.262   6.104  18.571  0.00  0.00    +0.000 S 
ATOM     21  O   UNL     1       4.626   6.393  18.970  0.00  0.00    +0.000 OA
ATOM     22  O   UNL     1       2.855   6.196  17.184  0.00  0.00    +0.000 OA
BRANCH  20  27
ATOM     23  C   UNL     1       4.091   3.591  19.050  0.00  0.00    +0.000 C 
ATOM     24  C   UNL     1       3.971   2.953  17.672  0.00  0.00    +0.000 C 
ATOM     25  C   UNL     1       2.472   2.793  17.476  0.00  0.00    +0.000 C 
ATOM     26  C   UNL     1       1.808   3.830  18.377  0.00  0.00    +0.000 C 
ATOM     27  N   UNL     1       2.898   4.520  19.132  0.00  0.00    +0.000 NA
BRANCH  23  29
ATOM     28  N   UNL     1       5.031   1.545  20.042  0.00  0.00    +0.000 N 
ATOM     29  C   UNL     1       4.091   2.527  20.153  0.00  0.00    +0.000 C 
ATOM     30  O   UNL     1       3.268   2.478  21.066  0.00  0.00    +0.000 OA
ATOM     31  H   UNL     1       5.032   0.805  20.733  0.00  0.00    +0.000 HD
ATOM     32  H   UNL     1       5.690   1.528  19.277  0.00  0.00    +0.000 HD
ENDBRANCH  23  29
ENDBRANCH  20  27
ENDBRANCH   1  20
TORSDOF 4
ENDMDL
MODEL 9
REMARK VINA RESULT:      -6.7      5.527      7.535
REMARK  Name = 
REMARK  4 active torsions:
REMARK  status: ('A' for Active; 'I' for Inactive)
REMARK    1  A    between atoms: C_2  and  C_4
REMARK    2  A    between atoms: N_8  and  S_9
REMARK    3  A    between atoms: S_9  and  C_12
REMARK    4  A    between atoms: C_20  and  N_21
REMARK                            x       y       z     vdW  Elec       q    Type
REMARK                         _______ _______ _______ _____ _____    ______ ____
ROOT
ATOM      1  C   UNL     1      -3.482  11.115  18.220  0.00  0.00    +0.000 A 
ATOM      2  C   UNL     1      -2.937  10.217  17.307  0.00  0.00    +0.000 A 
ATOM      3  C   UNL     1      -1.585   9.875  17.401  0.00  0.00    +0.000 A 
ATOM      4  C   UNL     1      -0.741  10.427  18.397  0.00  0.00    +0.000 A 
ATOM      5  C   UNL     1       0.625  10.094  18.536  0.00  0.00    +0.000 A 
ATOM      6 CL   UNL     1       1.422   8.951  17.513  0.00  0.00    +0.000 Cl
ATOM      7  C   UNL     1       1.368  10.695  19.537  0.00  0.00    +0.000 A 
ATOM      8  N   UNL     1       0.872  11.603  20.410  0.00  0.00    +0.000 NA
ATOM      9  C   UNL     1      -0.439  11.926  20.285  0.00  0.00    +0.000 A 
ATOM     10  C   UNL     1      -1.295  11.366  19.304  0.00  0.00    +0.000 A 
ATOM     11  C   UNL     1      -2.668  11.704  19.189  0.00  0.00    +0.000 A 
ENDROOT
BRANCH   9  12
ATOM     12  N   UNL     1      -0.963  12.805  21.249  0.00  0.00    +0.000 NA
ATOM     13  C   UNL     1      -1.210  12.427  22.457  0.00  0.00    +0.000 C 
ATOM     14  N   UNL     1      -1.009  11.224  23.047  0.00  0.00    +0.000 N 
ATOM     15  N   UNL     1      -1.742  13.289  23.354  0.00  0.00    +0.000 N 
ATOM     16  H   UNL     1      -0.842  10.515  22.332  0.00  0.00    +0.000 HD
ATOM     17  H   UNL     1      -1.793  10.948  23.625  0.00  0.00    +0.000 HD
ATOM     18  H   UNL     1      -1.686  14.245  23.022  0.00  0.00    +0.000 HD
ATOM     19  H   UNL     1      -1.348  13.189  24.281  0.00  0.00    +0.000 HD
ENDBRANCH   9  12
BRANCH   1  20
ATOM     20  S   UNL     1      -5.177  11.644  18.006  0.00  0.00    +0.000 S 
ATOM     21  O   UNL     1      -6.016  10.489  18.262  0.00  0.00    +0.000 OA
ATOM     22  O   UNL     1      -5.265  12.367  16.754  0.00  0.00    +0.000 OA
BRANCH  20  27
ATOM     23  C   UNL     1      -5.977  12.084  20.536  0.00  0.00    +0.000 C 
ATOM     24  C   UNL     1      -7.491  12.150  20.380  0.00  0.00    +0.000 C 
ATOM     25  C   UNL     1      -7.727  13.491  19.703  0.00  0.00    +0.000 C 
ATOM     26  C   UNL     1      -6.432  13.838  18.974  0.00  0.00    +0.000 C 
ATOM     27  N   UNL     1      -5.447  12.758  19.288  0.00  0.00    +0.000 NA
BRANCH  23  29
ATOM     28  N   UNL     1      -6.291  12.559  22.930  0.00  0.00    +0.000 N 
ATOM     29  C   UNL     1      -5.523  12.779  21.824  0.00  0.00    +0.000 C 
ATOM     30  O   UNL     1      -4.573  13.557  21.892  0.00  0.00    +0.000 OA
ATOM     31  H   UNL     1      -6.042  13.036  23.787  0.00  0.00    +0.000 HD
ATOM     32  H   UNL     1      -7.108  11.966  22.896  0.00  0.00    +0.000 HD
ENDBRANCH  23  29
ENDBRANCH  20  27
ENDBRANCH   1  20
TORSDOF 4
ENDMDL
