MODEL 1
REMARK VINA RESULT:      -8.9      0.000      0.000
REMARK  Name = 
REMARK  7 active torsions:
REMARK  status: ('A' for Active; 'I' for Inactive)
REMARK    1  A    between atoms: C_1  and  O_2
REMARK    2  A    between atoms: O_2  and  C_3
REMARK    3  A    between atoms: C_8  and  N_9
REMARK    4  A    between atoms: N_12  and  C_13
REMARK    5  A    between atoms: C_13  and  C_14
REMARK    6  A    between atoms: C_13  and  C_20
REMARK    7  A    between atoms: C_23  and  C_24
REMARK                            x       y       z     vdW  Elec       q    Type
REMARK                         _______ _______ _______ _____ _____    ______ ____
ROOT
ATOM      1  C   UNL     1       2.766   5.782  18.377  0.00  0.00    +0.000 C 
ENDROOT
BRANCH   1   5
ATOM      2  N   UNL     1       4.919   4.877  15.463  0.00  0.00    +0.000 N 
ATOM      3  C   UNL     1       4.300   3.893  16.358  0.00  0.00    +0.000 C 
ATOM      4  C   UNL     1       4.636   4.239  17.826  0.00  0.00    +0.000 C 
ATOM      5  N   UNL     1       4.248   5.615  18.250  0.00  0.00    +0.000 NA
ATOM      6  C   UNL     1       4.862   6.564  17.287  0.00  0.00    +0.000 C 
ATOM      7  C   UNL     1       4.603   6.279  15.785  0.00  0.00    +0.000 C 
BRANCH   2  13
ATOM      8  C   UNL     1       7.087   4.828  14.242  0.00  0.00    +0.000 A 
ATOM      9  C   UNL     1       7.794   4.468  13.077  0.00  0.00    +0.000 A 
ATOM     10  C   UNL     1       7.167   3.797  12.035  0.00  0.00    +0.000 A 
ATOM     11  C   UNL     1       5.823   3.483  12.138  0.00  0.00    +0.000 A 
ATOM     12  C   UNL     1       5.111   3.845  13.287  0.00  0.00    +0.000 A 
ATOM     13  C   UNL     1       5.701   4.531  14.368  0.00  0.00    +0.000 A 
BRANCH   8  15
ATOM     14  C   UNL     1       7.847   4.918  16.491  0.00  0.00    +0.000 C 
ATOM     15  O   UNL     1       7.697   5.569  15.231  0.00  0.00    +0.000 OA
ENDBRANCH   8  15
ENDBRANCH   2  13
ENDBRANCH   1   5
BRANCH   1  16
ATOM     16  C   UNL     1       2.192   4.827  19.429  0.00  0.00    +0.000 A 
ATOM     17  C   UNL     1       2.705   4.807  20.739  0.00  0.00    +0.000 A 
ATOM     18  C   UNL     1       2.232   3.891  21.678  0.00  0.00    +0.000 A 
ATOM     19  C   UNL     1       1.241   2.980  21.321  0.00  0.00    +0.000 A 
ATOM     20  C   UNL     1       0.713   2.993  20.031  0.00  0.00    +0.000 A 
ATOM     21  C   UNL     1       1.180   3.913  19.089  0.00  0.00    +0.000 A 
ENDBRANCH   1  16
BRANCH   1  22
ATOM     22  C   UNL     1       2.352   7.203  18.693  0.00  0.00    +0.000 A 
ATOM     23  N   UNL     1       2.465   8.309  17.983  0.00  0.00    +0.000 NA
ATOM     24  N   UNL     1       1.864   9.310  18.718  0.00  0.00    +0.000 NA
ATOM     25  C   UNL     1       1.436   8.754  19.833  0.00  0.00    +0.000 A 
ATOM     26  O   UNL     1       1.681   7.406  19.875  0.00  0.00    +0.000 OA
BRANCH  25  27
ATOM     27  C   UNL     1       0.661   9.343  20.915  0.00  0.00    +0.000 A 
ATOM     28  C   UNL     1       0.935   8.901  22.225  0.00  0.00    +0.000 A 
ATOM     29  C   UNL     1       0.234   9.406  23.323  0.00  0.00    +0.000 A 
ATOM     30  C   UNL     1      -0.759  10.359  23.131  0.00  0.00    +0.000 A 
ATOM     31  C   UNL     1      -1.051  10.805  21.843  0.00  0.00    +0.000 A 
ATOM     32  C   UNL     1      -0.349  10.304  20.737  0.00  0.00    +0.000 A 
ATOM     33 CL   UNL     1      -0.830  10.895  19.183  0.00  0.00    +0.000 Cl
ENDBRANCH  25  27
ENDBRANCH   1  22
TORSDOF 6
ENDMDL
MODEL 2
REMARK VINA RESULT:      -8.4      1.645      2.102
REMARK  Name = 
REMARK  7 active torsions:
REMARK  status: ('A' for Active; 'I' for Inactive)
REMARK    1  A    between atoms: C_1  and  O_2
REMARK    2  A    between atoms: O_2  and  C_3
REMARK    3  A    between atoms: C_8  and  N_9
REMARK    4  A    between atoms: N_12  and  C_13
REMARK    5  A    between atoms: C_13  and  C_14
REMARK    6  A    between atoms: C_13  and  C_20
REMARK    7  A    between atoms: C_23  and  C_24
REMARK                            x       y       z     vdW  Elec       q    Type
REMARK                         _______ _______ _______ _____ _____    ______ ____
ROOT
ATOM      1  C   UNL     1       2.408   6.282  19.071  0.00  0.00    +0.000 C 
ENDROOT
BRANCH   1   5
ATOM      2  N   UNL     1       4.714   5.333  16.293  0.00  0.00    +0.000 N 
ATOM      3  C   UNL     1       4.249   4.398  17.323  0.00  0.00    +0.000 C 
ATOM      4  C   UNL     1       4.507   4.997  18.725  0.00  0.00    +0.000 C 
ATOM      5  N   UNL     1       3.898   6.338  18.954  0.00  0.00    +0.000 NA
ATOM      6  C   UNL     1       4.365   7.229  17.861  0.00  0.00    +0.000 C 
ATOM      7  C   UNL     1       4.174   6.697  16.416  0.00  0.00    +0.000 C 
BRANCH   2  13
ATOM      8  C   UNL     1       6.929   5.324  15.158  0.00  0.00    +0.000 A 
ATOM      9  C   UNL     1       7.699   4.936  14.043  0.00  0.00    +0.000 A 
ATOM     10  C   UNL     1       7.147   4.178  13.019  0.00  0.00    +0.000 A 
ATOM     11  C   UNL     1       5.817   3.803  13.089  0.00  0.00    +0.000 A 
ATOM     12  C   UNL     1       5.042   4.193  14.188  0.00  0.00    +0.000 A 
ATOM     13  C   UNL     1       5.556   4.966  15.249  0.00  0.00    +0.000 A 
BRANCH   8  15
ATOM     14  C   UNL     1       7.659   5.555  17.408  0.00  0.00    +0.000 C 
ATOM     15  O   UNL     1       7.463   6.148  16.125  0.00  0.00    +0.000 OA
ENDBRANCH   8  15
ENDBRANCH   2  13
ENDBRANCH   1   5
BRANCH   1  16
ATOM     16  C   UNL     1       1.960   5.016  19.811  0.00  0.00    +0.000 A 
ATOM     17  C   UNL     1       2.434   4.734  21.105  0.00  0.00    +0.000 A 
ATOM     18  C   UNL     1       2.083   3.549  21.751  0.00  0.00    +0.000 A 
ATOM     19  C   UNL     1       1.257   2.627  21.112  0.00  0.00    +0.000 A 
ATOM     20  C   UNL     1       0.769   2.896  19.833  0.00  0.00    +0.000 A 
ATOM     21  C   UNL     1       1.113   4.084  19.186  0.00  0.00    +0.000 A 
ENDBRANCH   1  16
BRANCH   1  22
ATOM     22  C   UNL     1       1.816   7.504  19.742  0.00  0.00    +0.000 A 
ATOM     23  N   UNL     1       1.609   7.767  21.018  0.00  0.00    +0.000 NA
ATOM     24  N   UNL     1       1.107   9.050  21.077  0.00  0.00    +0.000 NA
ATOM     25  C   UNL     1       1.026   9.481  19.835  0.00  0.00    +0.000 A 
ATOM     26  O   UNL     1       1.491   8.563  18.929  0.00  0.00    +0.000 OA
BRANCH  25  27
ATOM     27  C   UNL     1       0.641  10.795  19.341  0.00  0.00    +0.000 A 
ATOM     28  C   UNL     1       1.523  11.866  19.587  0.00  0.00    +0.000 A 
ATOM     29  C   UNL     1       1.231  13.162  19.157  0.00  0.00    +0.000 A 
ATOM     30  C   UNL     1       0.045  13.413  18.477  0.00  0.00    +0.000 A 
ATOM     31  C   UNL     1      -0.846  12.370  18.228  0.00  0.00    +0.000 A 
ATOM     32  C   UNL     1      -0.555  11.066  18.656  0.00  0.00    +0.000 A 
ATOM     33 CL   UNL     1      -1.757   9.862  18.335  0.00  0.00    +0.000 Cl
ENDBRANCH  25  27
ENDBRANCH   1  22
TORSDOF 6
ENDMDL
MODEL 3
REMARK VINA RESULT:      -8.4      0.961      1.634
REMARK  Name = 
REMARK  7 active torsions:
REMARK  status: ('A' for Active; 'I' for Inactive)
REMARK    1  A    between atoms: C_1  and  O_2
REMARK    2  A    between atoms: O_2  and  C_3
REMARK    3  A    between atoms: C_8  and  N_9
REMARK    4  A    between atoms: N_12  and  C_13
REMARK    5  A    between atoms: C_13  and  C_14
REMARK    6  A    between atoms: C_13  and  C_20
REMARK    7  A    between atoms: C_23  and  C_24
REMARK                            x       y       z     vdW  Elec       q    Type
REMARK                         _______ _______ _______ _____ _____    ______ ____
ROOT
ATOM      1  C   UNL     1       2.943   5.706  18.145  0.00  0.00    +0.000 C 
ENDROOT
BRANCH   1   5
ATOM      2  N   UNL     1       5.325   5.166  15.322  0.00  0.00    +0.000 N 
ATOM      3  C   UNL     1       4.657   4.079  16.045  0.00  0.00    +0.000 C 
ATOM      4  C   UNL     1       4.875   4.253  17.566  0.00  0.00    +0.000 C 
ATOM      5  N   UNL     1       4.432   5.567  18.115  0.00  0.00    +0.000 NA
ATOM      6  C   UNL     1       5.102   6.627  17.320  0.00  0.00    +0.000 C 
ATOM      7  C   UNL     1       4.963   6.518  15.779  0.00  0.00    +0.000 C 
BRANCH   2  13
ATOM      8  C   UNL     1       5.877   4.204  13.094  0.00  0.00    +0.000 A 
ATOM      9  C   UNL     1       6.835   4.015  12.078  0.00  0.00    +0.000 A 
ATOM     10  C   UNL     1       8.103   4.575  12.174  0.00  0.00    +0.000 A 
ATOM     11  C   UNL     1       8.434   5.325  13.288  0.00  0.00    +0.000 A 
ATOM     12  C   UNL     1       7.491   5.510  14.307  0.00  0.00    +0.000 A 
ATOM     13  C   UNL     1       6.195   4.957  14.257  0.00  0.00    +0.000 A 
BRANCH   8  15
ATOM     14  C   UNL     1       4.230   3.171  11.727  0.00  0.00    +0.000 C 
ATOM     15  O   UNL     1       4.653   3.572  13.029  0.00  0.00    +0.000 OA
ENDBRANCH   8  15
ENDBRANCH   2  13
ENDBRANCH   1   5
BRANCH   1  16
ATOM     16  C   UNL     1       2.320   4.748  19.167  0.00  0.00    +0.000 A 
ATOM     17  C   UNL     1       2.761   4.734  20.503  0.00  0.00    +0.000 A 
ATOM     18  C   UNL     1       2.245   3.815  21.416  0.00  0.00    +0.000 A 
ATOM     19  C   UNL     1       1.283   2.895  21.007  0.00  0.00    +0.000 A 
ATOM     20  C   UNL     1       0.827   2.901  19.689  0.00  0.00    +0.000 A 
ATOM     21  C   UNL     1       1.337   3.824  18.773  0.00  0.00    +0.000 A 
ENDBRANCH   1  16
BRANCH   1  22
ATOM     22  C   UNL     1       2.483   7.121  18.424  0.00  0.00    +0.000 A 
ATOM     23  N   UNL     1       2.507   8.198  17.662  0.00  0.00    +0.000 NA
ATOM     24  N   UNL     1       1.902   9.204  18.386  0.00  0.00    +0.000 NA
ATOM     25  C   UNL     1       1.562   8.682  19.546  0.00  0.00    +0.000 A 
ATOM     26  O   UNL     1       1.870   7.349  19.632  0.00  0.00    +0.000 OA
BRANCH  25  27
ATOM     27  C   UNL     1       0.822   9.286  20.644  0.00  0.00    +0.000 A 
ATOM     28  C   UNL     1       1.142   8.867  21.951  0.00  0.00    +0.000 A 
ATOM     29  C   UNL     1       0.477   9.387  23.064  0.00  0.00    +0.000 A 
ATOM     30  C   UNL     1      -0.526  10.333  22.890  0.00  0.00    +0.000 A 
ATOM     31  C   UNL     1      -0.865  10.757  21.605  0.00  0.00    +0.000 A 
ATOM     32  C   UNL     1      -0.198  10.240  20.485  0.00  0.00    +0.000 A 
ATOM     33 CL   UNL     1      -0.735  10.802  18.938  0.00  0.00    +0.000 Cl
ENDBRANCH  25  27
ENDBRANCH   1  22
TORSDOF 6
ENDMDL
MODEL 4
REMARK VINA RESULT:      -8.0      4.684      9.969
REMARK  Name = 
REMARK  7 active torsions:
REMARK  status: ('A' for Active; 'I' for Inactive)
REMARK    1  A    between atoms: C_1  and  O_2
REMARK    2  A    between atoms: O_2  and  C_3
REMARK    3  A    between atoms: C_8  and  N_9
REMARK    4  A    between atoms: N_12  and  C_13
REMARK    5  A    between atoms: C_13  and  C_14
REMARK    6  A    between atoms: C_13  and  C_20
REMARK    7  A    between atoms: C_23  and  C_24
REMARK                            x       y       z     vdW  Elec       q    Type
REMARK                         _______ _______ _______ _____ _____    ______ ____
ROOT
ATOM      1  C   UNL     1      -0.271  11.206  19.404  0.00  0.00    +0.000 C 
ENDROOT
BRANCH   1   5
ATOM      2  N   UNL     1       0.847  14.686  20.165  0.00  0.00    +0.000 N 
ATOM      3  C   UNL     1      -0.378  14.366  19.423  0.00  0.00    +0.000 C 
ATOM      4  C   UNL     1      -0.046  13.403  18.261  0.00  0.00    +0.000 C 
ATOM      5  N   UNL     1       0.637  12.142  18.669  0.00  0.00    +0.000 NA
ATOM      6  C   UNL     1       1.840  12.523  19.451  0.00  0.00    +0.000 C 
ATOM      7  C   UNL     1       1.608  13.513  20.623  0.00  0.00    +0.000 C 
BRANCH   2  13
ATOM      8  C   UNL     1       2.251  16.701  19.758  0.00  0.00    +0.000 A 
ATOM      9  C   UNL     1       2.615  18.004  20.152  0.00  0.00    +0.000 A 
ATOM     10  C   UNL     1       1.986  18.631  21.221  0.00  0.00    +0.000 A 
ATOM     11  C   UNL     1       0.993  17.963  21.915  0.00  0.00    +0.000 A 
ATOM     12  C   UNL     1       0.633  16.665  21.535  0.00  0.00    +0.000 A 
ATOM     13  C   UNL     1       1.245  15.985  20.462  0.00  0.00    +0.000 A 
BRANCH   8  15
ATOM     14  C   UNL     1       3.089  16.784  17.536  0.00  0.00    +0.000 C 
ATOM     15  O   UNL     1       2.940  16.056  18.753  0.00  0.00    +0.000 OA
ENDBRANCH   8  15
ENDBRANCH   2  13
ENDBRANCH   1   5
BRANCH   1  16
ATOM     16  C   UNL     1      -1.510  10.868  18.566  0.00  0.00    +0.000 A 
ATOM     17  C   UNL     1      -1.411  10.027  17.443  0.00  0.00    +0.000 A 
ATOM     18  C   UNL     1      -2.522   9.774  16.640  0.00  0.00    +0.000 A 
ATOM     19  C   UNL     1      -3.748  10.361  16.945  0.00  0.00    +0.000 A 
ATOM     20  C   UNL     1      -3.867  11.190  18.061  0.00  0.00    +0.000 A 
ATOM     21  C   UNL     1      -2.757  11.440  18.871  0.00  0.00    +0.000 A 
ENDBRANCH   1  16
BRANCH   1  22
ATOM     22  C   UNL     1       0.416   9.930  19.841  0.00  0.00    +0.000 A 
ATOM     23  N   UNL     1       0.313   9.240  20.961  0.00  0.00    +0.000 NA
ATOM     24  N   UNL     1       1.109   8.124  20.808  0.00  0.00    +0.000 NA
ATOM     25  C   UNL     1       1.657   8.212  19.613  0.00  0.00    +0.000 A 
ATOM     26  O   UNL     1       1.237   9.320  18.924  0.00  0.00    +0.000 OA
BRANCH  25  27
ATOM     27  C   UNL     1       2.512   7.259  18.922  0.00  0.00    +0.000 A 
ATOM     28  C   UNL     1       3.297   7.745  17.857  0.00  0.00    +0.000 A 
ATOM     29  C   UNL     1       4.141   6.900  17.132  0.00  0.00    +0.000 A 
ATOM     30  C   UNL     1       4.210   5.550  17.455  0.00  0.00    +0.000 A 
ATOM     31  C   UNL     1       3.437   5.046  18.500  0.00  0.00    +0.000 A 
ATOM     32  C   UNL     1       2.591   5.891  19.232  0.00  0.00    +0.000 A 
ATOM     33 CL   UNL     1       1.642   5.147  20.474  0.00  0.00    +0.000 Cl
ENDBRANCH  25  27
ENDBRANCH   1  22
TORSDOF 6
ENDMDL
MODEL 5
REMARK VINA RESULT:      -7.9      4.570     10.159
REMARK  Name = 
REMARK  7 active torsions:
REMARK  status: ('A' for Active; 'I' for Inactive)
REMARK    1  A    between atoms: C_1  and  O_2
REMARK    2  A    between atoms: O_2  and  C_3
REMARK    3  A    between atoms: C_8  and  N_9
REMARK    4  A    between atoms: N_12  and  C_13
REMARK    5  A    between atoms: C_13  and  C_14
REMARK    6  A    between atoms: C_13  and  C_20
REMARK    7  A    between atoms: C_23  and  C_24
REMARK                            x       y       z     vdW  Elec       q    Type
REMARK                         _______ _______ _______ _____ _____    ______ ____
ROOT
ATOM      1  C   UNL     1      -0.272  11.281  19.443  0.00  0.00    +0.000 C 
ENDROOT
BRANCH   1   5
ATOM      2  N   UNL     1       1.128  14.566  20.533  0.00  0.00    +0.000 N 
ATOM      3  C   UNL     1      -0.162  14.414  19.852  0.00  0.00    +0.000 C 
ATOM      4  C   UNL     1       0.023  13.586  18.560  0.00  0.00    +0.000 C 
ATOM      5  N   UNL     1       0.645  12.246  18.760  0.00  0.00    +0.000 NA
ATOM      6  C   UNL     1       1.921  12.455  19.490  0.00  0.00    +0.000 C 
ATOM      7  C   UNL     1       1.838  13.301  20.786  0.00  0.00    +0.000 C 
BRANCH   2  13
ATOM      8  C   UNL     1       1.477  16.318  22.265  0.00  0.00    +0.000 A 
ATOM      9  C   UNL     1       1.993  17.588  22.594  0.00  0.00    +0.000 A 
ATOM     10  C   UNL     1       2.685  18.345  21.658  0.00  0.00    +0.000 A 
ATOM     11  C   UNL     1       2.864  17.850  20.378  0.00  0.00    +0.000 A 
ATOM     12  C   UNL     1       2.346  16.594  20.041  0.00  0.00    +0.000 A 
ATOM     13  C   UNL     1       1.633  15.791  20.954  0.00  0.00    +0.000 A 
BRANCH   8  15
ATOM     14  C   UNL     1      -0.521  16.213  23.548  0.00  0.00    +0.000 C 
ATOM     15  O   UNL     1       0.718  15.614  23.175  0.00  0.00    +0.000 OA
ENDBRANCH   8  15
ENDBRANCH   2  13
ENDBRANCH   1   5
BRANCH   1  16
ATOM     16  C   UNL     1      -1.465  10.925  18.548  0.00  0.00    +0.000 A 
ATOM     17  C   UNL     1      -1.305  10.066  17.445  0.00  0.00    +0.000 A 
ATOM     18  C   UNL     1      -2.372   9.798  16.589  0.00  0.00    +0.000 A 
ATOM     19  C   UNL     1      -3.614  10.385  16.820  0.00  0.00    +0.000 A 
ATOM     20  C   UNL     1      -3.793  11.231  17.915  0.00  0.00    +0.000 A 
ATOM     21  C   UNL     1      -2.728  11.497  18.778  0.00  0.00    +0.000 A 
ENDBRANCH   1  16
BRANCH   1  22
ATOM     22  C   UNL     1       0.424  10.015  19.896  0.00  0.00    +0.000 A 
ATOM     23  N   UNL     1       0.364   9.365  21.043  0.00  0.00    +0.000 NA
ATOM     24  N   UNL     1       1.146   8.238  20.896  0.00  0.00    +0.000 NA
ATOM     25  C   UNL     1       1.643   8.280  19.676  0.00  0.00    +0.000 A 
ATOM     26  O   UNL     1       1.201   9.366  18.967  0.00  0.00    +0.000 OA
BRANCH  25  27
ATOM     27  C   UNL     1       2.461   7.297  18.983  0.00  0.00    +0.000 A 
ATOM     28  C   UNL     1       3.235   7.746  17.895  0.00  0.00    +0.000 A 
ATOM     29  C   UNL     1       4.044   6.871  17.167  0.00  0.00    +0.000 A 
ATOM     30  C   UNL     1       4.088   5.525  17.510  0.00  0.00    +0.000 A 
ATOM     31  C   UNL     1       3.325   5.056  18.579  0.00  0.00    +0.000 A 
ATOM     32  C   UNL     1       2.515   5.932  19.315  0.00  0.00    +0.000 A 
ATOM     33 CL   UNL     1       1.575   5.230  20.588  0.00  0.00    +0.000 Cl
ENDBRANCH  25  27
ENDBRANCH   1  22
TORSDOF 6
ENDMDL
MODEL 6
REMARK VINA RESULT:      -7.9      1.655      2.247
REMARK  Name = 
REMARK  7 active torsions:
REMARK  status: ('A' for Active; 'I' for Inactive)
REMARK    1  A    between atoms: C_1  and  O_2
REMARK    2  A    between atoms: O_2  and  C_3
REMARK    3  A    between atoms: C_8  and  N_9
REMARK    4  A    between atoms: N_12  and  C_13
REMARK    5  A    between atoms: C_13  and  C_14
REMARK    6  A    between atoms: C_13  and  C_20
REMARK    7  A    between atoms: C_23  and  C_24
REMARK                            x       y       z     vdW  Elec       q    Type
REMARK                         _______ _______ _______ _____ _____    ______ ____
ROOT
ATOM      1  C   UNL     1       2.453   6.220  19.196  0.00  0.00    +0.000 C 
ENDROOT
BRANCH   1   5
ATOM      2  N   UNL     1       4.723   5.312  16.375  0.00  0.00    +0.000 N 
ATOM      3  C   UNL     1       4.310   4.374  17.424  0.00  0.00    +0.000 C 
ATOM      4  C   UNL     1       4.582   4.994  18.814  0.00  0.00    +0.000 C 
ATOM      5  N   UNL     1       3.938   6.319  19.045  0.00  0.00    +0.000 NA
ATOM      6  C   UNL     1       4.354   7.212  17.933  0.00  0.00    +0.000 C 
ATOM      7  C   UNL     1       4.146   6.661  16.499  0.00  0.00    +0.000 C 
BRANCH   2  13
ATOM      8  C   UNL     1       6.918   5.340  15.200  0.00  0.00    +0.000 A 
ATOM      9  C   UNL     1       7.674   4.966  14.071  0.00  0.00    +0.000 A 
ATOM     10  C   UNL     1       7.116   4.199  13.056  0.00  0.00    +0.000 A 
ATOM     11  C   UNL     1       5.793   3.803  13.150  0.00  0.00    +0.000 A 
ATOM     12  C   UNL     1       5.033   4.179  14.263  0.00  0.00    +0.000 A 
ATOM     13  C   UNL     1       5.552   4.960  15.316  0.00  0.00    +0.000 A 
BRANCH   8  15
ATOM     14  C   UNL     1       7.680   5.583  17.438  0.00  0.00    +0.000 C 
ATOM     15  O   UNL     1       7.456   6.172  16.159  0.00  0.00    +0.000 OA
ENDBRANCH   8  15
ENDBRANCH   2  13
ENDBRANCH   1   5
BRANCH   1  16
ATOM     16  C   UNL     1       2.052   4.890  19.844  0.00  0.00    +0.000 A 
ATOM     17  C   UNL     1       1.186   4.000  19.183  0.00  0.00    +0.000 A 
ATOM     18  C   UNL     1       0.764   2.823  19.800  0.00  0.00    +0.000 A 
ATOM     19  C   UNL     1       1.201   2.518  21.087  0.00  0.00    +0.000 A 
ATOM     20  C   UNL     1       2.069   3.383  21.753  0.00  0.00    +0.000 A 
ATOM     21  C   UNL     1       2.498   4.560  21.136  0.00  0.00    +0.000 A 
ENDBRANCH   1  16
BRANCH   1  22
ATOM     22  C   UNL     1       1.856   7.371  19.978  0.00  0.00    +0.000 A 
ATOM     23  N   UNL     1       1.559   7.477  21.259  0.00  0.00    +0.000 NA
ATOM     24  N   UNL     1       1.101   8.764  21.450  0.00  0.00    +0.000 NA
ATOM     25  C   UNL     1       1.134   9.355  20.274  0.00  0.00    +0.000 A 
ATOM     26  O   UNL     1       1.635   8.541  19.291  0.00  0.00    +0.000 OA
BRANCH  25  27
ATOM     27  C   UNL     1       0.838  10.738  19.931  0.00  0.00    +0.000 A 
ATOM     28  C   UNL     1       1.497  11.286  18.813  0.00  0.00    +0.000 A 
ATOM     29  C   UNL     1       1.279  12.607  18.416  0.00  0.00    +0.000 A 
ATOM     30  C   UNL     1       0.402  13.409  19.136  0.00  0.00    +0.000 A 
ATOM     31  C   UNL     1      -0.256  12.890  20.251  0.00  0.00    +0.000 A 
ATOM     32  C   UNL     1      -0.043  11.563  20.651  0.00  0.00    +0.000 A 
ATOM     33 CL   UNL     1      -0.876  11.042  22.076  0.00  0.00    +0.000 Cl
ENDBRANCH  25  27
ENDBRANCH   1  22
TORSDOF 6
ENDMDL
MODEL 7
REMARK VINA RESULT:      -7.8      1.548      2.136
REMARK  Name = 
REMARK  7 active torsions:
REMARK  status: ('A' for Active; 'I' for Inactive)
REMARK    1  A    between atoms: C_1  and  O_2
REMARK    2  A    between atoms: O_2  and  C_3
REMARK    3  A    between atoms: C_8  and  N_9
REMARK    4  A    between atoms: N_12  and  C_13
REMARK    5  A    between atoms: C_13  and  C_14
REMARK    6  A    between atoms: C_13  and  C_20
REMARK    7  A    between atoms: C_23  and  C_24
REMARK                            x       y       z     vdW  Elec       q    Type
REMARK                         _______ _______ _______ _____ _____    ______ ____
ROOT
ATOM      1  C   UNL     1       2.530   6.238  19.012  0.00  0.00    +0.000 C 
ENDROOT
BRANCH   1   5
ATOM      2  N   UNL     1       4.772   5.290  16.182  0.00  0.00    +0.000 N 
ATOM      3  C   UNL     1       4.307   4.348  17.206  0.00  0.00    +0.000 C 
ATOM      4  C   UNL     1       4.599   4.920  18.612  0.00  0.00    +0.000 C 
ATOM      5  N   UNL     1       4.019   6.269  18.871  0.00  0.00    +0.000 NA
ATOM      6  C   UNL     1       4.484   7.167  17.784  0.00  0.00    +0.000 C 
ATOM      7  C   UNL     1       4.259   6.661  16.335  0.00  0.00    +0.000 C 
BRANCH   2  13
ATOM      8  C   UNL     1       6.965   5.267  15.005  0.00  0.00    +0.000 A 
ATOM      9  C   UNL     1       7.710   4.881  13.872  0.00  0.00    +0.000 A 
ATOM     10  C   UNL     1       7.130   4.139  12.852  0.00  0.00    +0.000 A 
ATOM     11  C   UNL     1       5.797   3.778  12.944  0.00  0.00    +0.000 A 
ATOM     12  C   UNL     1       5.048   4.166  14.061  0.00  0.00    +0.000 A 
ATOM     13  C   UNL     1       5.590   4.924  15.119  0.00  0.00    +0.000 A 
BRANCH   8  15
ATOM     14  C   UNL     1       7.695   5.485  17.256  0.00  0.00    +0.000 C 
ATOM     15  O   UNL     1       7.526   6.077  15.970  0.00  0.00    +0.000 OA
ENDBRANCH   8  15
ENDBRANCH   2  13
ENDBRANCH   1   5
BRANCH   1  16
ATOM     16  C   UNL     1       2.062   4.917  19.634  0.00  0.00    +0.000 A 
ATOM     17  C   UNL     1       1.346   3.977  18.872  0.00  0.00    +0.000 A 
ATOM     18  C   UNL     1       0.859   2.807  19.454  0.00  0.00    +0.000 A 
ATOM     19  C   UNL     1       1.078   2.561  20.807  0.00  0.00    +0.000 A 
ATOM     20  C   UNL     1       1.795   3.478  21.576  0.00  0.00    +0.000 A 
ATOM     21  C   UNL     1       2.290   4.647  20.995  0.00  0.00    +0.000 A 
ENDBRANCH   1  16
BRANCH   1  22
ATOM     22  C   UNL     1       1.982   7.402  19.810  0.00  0.00    +0.000 A 
ATOM     23  N   UNL     1       2.048   7.666  21.101  0.00  0.00    +0.000 NA
ATOM     24  N   UNL     1       1.440   8.890  21.283  0.00  0.00    +0.000 NA
ATOM     25  C   UNL     1       1.030   9.288  20.097  0.00  0.00    +0.000 A 
ATOM     26  O   UNL     1       1.369   8.407  19.102  0.00  0.00    +0.000 OA
BRANCH  25  27
ATOM     27  C   UNL     1       0.404  10.545  19.714  0.00  0.00    +0.000 A 
ATOM     28  C   UNL     1      -0.874  10.821  20.240  0.00  0.00    +0.000 A 
ATOM     29  C   UNL     1      -1.552  11.999  19.921  0.00  0.00    +0.000 A 
ATOM     30  C   UNL     1      -0.967  12.922  19.062  0.00  0.00    +0.000 A 
ATOM     31  C   UNL     1       0.294  12.666  18.523  0.00  0.00    +0.000 A 
ATOM     32  C   UNL     1       0.980  11.486  18.844  0.00  0.00    +0.000 A 
ATOM     33 CL   UNL     1       2.515  11.253  18.079  0.00  0.00    +0.000 Cl
ENDBRANCH  25  27
ENDBRANCH   1  22
TORSDOF 6
ENDMDL
MODEL 8
REMARK VINA RESULT:      -7.8      4.178     11.119
REMARK  Name = 
REMARK  7 active torsions:
REMARK  status: ('A' for Active; 'I' for Inactive)
REMARK    1  A    between atoms: C_1  and  O_2
REMARK    2  A    between atoms: O_2  and  C_3
REMARK    3  A    between atoms: C_8  and  N_9
REMARK    4  A    between atoms: N_12  and  C_13
REMARK    5  A    between atoms: C_13  and  C_14
REMARK    6  A    between atoms: C_13  and  C_20
REMARK    7  A    between atoms: C_23  and  C_24
REMARK                            x       y       z     vdW  Elec       q    Type
REMARK                         _______ _______ _______ _____ _____    ______ ____
ROOT
ATOM      1  C   UNL     1       0.687  12.804  20.006  0.00  0.00    +0.000 C 
ENDROOT
BRANCH   1   5
ATOM      2  N   UNL     1      -2.499  12.718  21.949  0.00  0.00    +0.000 N 
ATOM      3  C   UNL     1      -1.793  13.954  21.594  0.00  0.00    +0.000 C 
ATOM      4  C   UNL     1      -0.312  13.851  22.027  0.00  0.00    +0.000 C 
ATOM      5  N   UNL     1       0.421  12.678  21.473  0.00  0.00    +0.000 NA
ATOM      6  C   UNL     1      -0.359  11.463  21.822  0.00  0.00    +0.000 C 
ATOM      7  C   UNL     1      -1.864  11.487  21.452  0.00  0.00    +0.000 C 
BRANCH   2  13
ATOM      8  C   UNL     1      -4.975  12.939  22.081  0.00  0.00    +0.000 A 
ATOM      9  C   UNL     1      -6.135  12.930  22.881  0.00  0.00    +0.000 A 
ATOM     10  C   UNL     1      -6.064  12.664  24.243  0.00  0.00    +0.000 A 
ATOM     11  C   UNL     1      -4.835  12.410  24.825  0.00  0.00    +0.000 A 
ATOM     12  C   UNL     1      -3.677  12.426  24.038  0.00  0.00    +0.000 A 
ATOM     13  C   UNL     1      -3.697  12.696  22.655  0.00  0.00    +0.000 A 
BRANCH   8  15
ATOM     14  C   UNL     1      -5.457  12.257  19.856  0.00  0.00    +0.000 C 
ATOM     15  O   UNL     1      -5.046  13.289  20.749  0.00  0.00    +0.000 OA
ENDBRANCH   8  15
ENDBRANCH   2  13
ENDBRANCH   1   5
BRANCH   1  16
ATOM     16  C   UNL     1       2.048  13.461  19.747  0.00  0.00    +0.000 A 
ATOM     17  C   UNL     1       2.890  13.818  20.816  0.00  0.00    +0.000 A 
ATOM     18  C   UNL     1       4.096  14.479  20.586  0.00  0.00    +0.000 A 
ATOM     19  C   UNL     1       4.477  14.796  19.285  0.00  0.00    +0.000 A 
ATOM     20  C   UNL     1       3.660  14.440  18.212  0.00  0.00    +0.000 A 
ATOM     21  C   UNL     1       2.455  13.773  18.438  0.00  0.00    +0.000 A 
ENDBRANCH   1  16
BRANCH   1  22
ATOM     22  C   UNL     1       0.608  11.484  19.269  0.00  0.00    +0.000 A 
ATOM     23  N   UNL     1      -0.189  11.092  18.293  0.00  0.00    +0.000 NA
ATOM     24  N   UNL     1       0.212   9.818  17.949  0.00  0.00    +0.000 NA
ATOM     25  C   UNL     1       1.215   9.509  18.745  0.00  0.00    +0.000 A 
ATOM     26  O   UNL     1       1.547  10.535  19.592  0.00  0.00    +0.000 OA
BRANCH  25  27
ATOM     27  C   UNL     1       2.053   8.320  18.748  0.00  0.00    +0.000 A 
ATOM     28  C   UNL     1       2.869   8.098  17.621  0.00  0.00    +0.000 A 
ATOM     29  C   UNL     1       3.700   6.978  17.535  0.00  0.00    +0.000 A 
ATOM     30  C   UNL     1       3.725   6.055  18.572  0.00  0.00    +0.000 A 
ATOM     31  C   UNL     1       2.920   6.250  19.694  0.00  0.00    +0.000 A 
ATOM     32  C   UNL     1       2.087   7.375  19.787  0.00  0.00    +0.000 A 
ATOM     33 CL   UNL     1       1.096   7.488  21.202  0.00  0.00    +0.000 Cl
ENDBRANCH  25  27
ENDBRANCH   1  22
TORSDOF 6
ENDMDL
MODEL 9
REMARK VINA RESULT:      -7.7      2.740      8.820
REMARK  Name = 
REMARK  7 active torsions:
REMARK  status: ('A' for Active; 'I' for Inactive)
REMARK    1  A    between atoms: C_1  and  O_2
REMARK    2  A    between atoms: O_2  and  C_3
REMARK    3  A    between atoms: C_8  and  N_9
REMARK    4  A    between atoms: N_12  and  C_13
REMARK    5  A    between atoms: C_13  and  C_14
REMARK    6  A    between atoms: C_13  and  C_20
REMARK    7  A    between atoms: C_23  and  C_24
REMARK                            x       y       z     vdW  Elec       q    Type
REMARK                         _______ _______ _______ _____ _____    ______ ____
ROOT
ATOM      1  C   UNL     1       4.250   5.413  18.042  0.00  0.00    +0.000 C 
ENDROOT
BRANCH   1   5
ATOM      2  N   UNL     1       2.001   7.811  19.813  0.00  0.00    +0.000 N 
ATOM      3  C   UNL     1       1.979   6.359  20.029  0.00  0.00    +0.000 C 
ATOM      4  C   UNL     1       1.854   5.632  18.670  0.00  0.00    +0.000 C 
ATOM      5  N   UNL     1       2.912   5.976  17.677  0.00  0.00    +0.000 NA
ATOM      6  C   UNL     1       2.919   7.453  17.532  0.00  0.00    +0.000 C 
ATOM      7  C   UNL     1       3.013   8.270  18.847  0.00  0.00    +0.000 C 
BRANCH   2  13
ATOM      8  C   UNL     1       0.323   9.648  19.864  0.00  0.00    +0.000 A 
ATOM      9  C   UNL     1      -0.456  10.534  20.635  0.00  0.00    +0.000 A 
ATOM     10  C   UNL     1      -0.431  10.488  22.024  0.00  0.00    +0.000 A 
ATOM     11  C   UNL     1       0.377   9.564  22.661  0.00  0.00    +0.000 A 
ATOM     12  C   UNL     1       1.162   8.687  21.902  0.00  0.00    +0.000 A 
ATOM     13  C   UNL     1       1.175   8.698  20.492  0.00  0.00    +0.000 A 
BRANCH   8  15
ATOM     14  C   UNL     1      -0.864  10.157  17.869  0.00  0.00    +0.000 C 
ATOM     15  O   UNL     1       0.356   9.759  18.491  0.00  0.00    +0.000 OA
ENDBRANCH   8  15
ENDBRANCH   2  13
ENDBRANCH   1   5
BRANCH   1  16
ATOM     16  C   UNL     1       4.137   3.938  18.442  0.00  0.00    +0.000 A 
ATOM     17  C   UNL     1       3.478   3.015  17.610  0.00  0.00    +0.000 A 
ATOM     18  C   UNL     1       3.313   1.688  18.005  0.00  0.00    +0.000 A 
ATOM     19  C   UNL     1       3.802   1.264  19.238  0.00  0.00    +0.000 A 
ATOM     20  C   UNL     1       4.468   2.163  20.072  0.00  0.00    +0.000 A 
ATOM     21  C   UNL     1       4.640   3.492  19.677  0.00  0.00    +0.000 A 
ENDBRANCH   1  16
BRANCH   1  22
ATOM     22  C   UNL     1       5.281   5.569  16.945  0.00  0.00    +0.000 A 
ATOM     23  N   UNL     1       6.411   6.249  16.918  0.00  0.00    +0.000 NA
ATOM     24  N   UNL     1       6.995   5.992  15.696  0.00  0.00    +0.000 NA
ATOM     25  C   UNL     1       6.179   5.184  15.050  0.00  0.00    +0.000 A 
ATOM     26  O   UNL     1       5.080   4.844  15.795  0.00  0.00    +0.000 OA
BRANCH  25  27
ATOM     27  C   UNL     1       6.356   4.542  13.757  0.00  0.00    +0.000 A 
ATOM     28  C   UNL     1       5.402   3.576  13.376  0.00  0.00    +0.000 A 
ATOM     29  C   UNL     1       5.497   2.903  12.156  0.00  0.00    +0.000 A 
ATOM     30  C   UNL     1       6.552   3.179  11.295  0.00  0.00    +0.000 A 
ATOM     31  C   UNL     1       7.512   4.125  11.654  0.00  0.00    +0.000 A 
ATOM     32  C   UNL     1       7.419   4.806  12.877  0.00  0.00    +0.000 A 
ATOM     33 CL   UNL     1       8.691   5.922  13.238  0.00  0.00    +0.000 Cl
ENDBRANCH  25  27
ENDBRANCH   1  22
TORSDOF 6
ENDMDL
