MODEL 1
REMARK VINA RESULT:      -8.5      0.000      0.000
REMARK  Name = 
REMARK  11 active torsions:
REMARK  status: ('A' for Active; 'I' for Inactive)
REMARK    1  A    between atoms: C_2  and  C_29
REMARK    2  A    between atoms: N_3  and  CA_4
REMARK    3  A    between atoms: CA_4  and  C_5
REMARK    4  A    between atoms: CA_4  and  C_26
REMARK    5  A    between atoms: C_5  and  C_6
REMARK    6  A    between atoms: C_11  and  O_12
REMARK    7  A    between atoms: O_12  and  C_13
REMARK    8  A    between atoms: C_13  and  C_14
REMARK    9  A    between atoms: C_14  and  C_15
REMARK   10  A    between atoms: C_15  and  N_16
REMARK   11  A    between atoms: C_26  and  OXT_28
REMARK                            x       y       z     vdW  Elec       q    Type
REMARK                         _______ _______ _______ _____ _____    ______ ____
ROOT
ATOM      1  C   UNL     1       2.306   5.723  18.847  0.00  0.00    +0.000 A 
ATOM      2  C   UNL     1       1.938   5.792  20.196  0.00  0.00    +0.000 A 
ATOM      3  C   UNL     1       1.597   7.020  20.781  0.00  0.00    +0.000 A 
ATOM      4  C   UNL     1       1.593   8.205  20.019  0.00  0.00    +0.000 A 
ATOM      5  C   UNL     1       1.220   9.460  20.530  0.00  0.00    +0.000 A 
ATOM      6  C   UNL     1       1.205  10.600  19.709  0.00  0.00    +0.000 A 
ATOM      7  C   UNL     1       1.566  10.492  18.369  0.00  0.00    +0.000 A 
ATOM      8  C   UNL     1       1.959   9.266  17.854  0.00  0.00    +0.000 A 
ATOM      9  C   UNL     1       1.975   8.133  18.669  0.00  0.00    +0.000 A 
ATOM     10  C   UNL     1       2.352   6.917  18.119  0.00  0.00    +0.000 A 
ENDROOT
BRANCH   1  11
ATOM     11  C   UNL     1       2.609   4.381  18.214  0.00  0.00    +0.000 C 
BRANCH  11  12
ATOM     12  CA  UNL     1       4.071   3.876  18.298  0.00  0.00    +0.000 C 
BRANCH  12  15
ATOM     13  O   UNL     1       5.960   5.684  17.237  0.00  0.00    +0.000 OA
ATOM     14  C   UNL     1       5.580   4.759  16.526  0.00  0.00    +0.000 C 
ATOM     15  N   UNL     1       4.694   3.804  16.961  0.00  0.00    +0.000 N 
ATOM     16  H   UNL     1       4.598   2.930  16.450  0.00  0.00    +0.000 HD
BRANCH  14  17
ATOM     17  C   UNL     1       6.102   4.630  15.142  0.00  0.00    +0.000 A 
ATOM     18  C   UNL     1       5.393   3.804  14.258  0.00  0.00    +0.000 A 
ATOM     19  C   UNL     1       5.838   3.603  12.954  0.00  0.00    +0.000 A 
ATOM     20  C   UNL     1       7.011   4.225  12.532  0.00  0.00    +0.000 A 
ATOM     21  F   UNL     1       7.450   4.032  11.283  0.00  0.00    +0.000 F 
ATOM     22  C   UNL     1       7.741   5.032  13.402  0.00  0.00    +0.000 A 
ATOM     23  C   UNL     1       7.290   5.238  14.713  0.00  0.00    +0.000 A 
ENDBRANCH  14  17
ENDBRANCH  12  15
BRANCH  12  24
ATOM     24  C   UNL     1       4.242   2.506  18.999  0.00  0.00    +0.000 C 
ATOM     25  O   UNL     1       4.369   2.408  20.217  0.00  0.00    +0.000 OA
BRANCH  24  26
ATOM     26  OXT UNL     1       4.256   1.407  18.217  0.00  0.00    +0.000 OA
ATOM     27  HXT UNL     1       3.414   1.128  17.816  0.00  0.00    +0.000 HD
ENDBRANCH  24  26
ENDBRANCH  12  24
ENDBRANCH  11  12
ENDBRANCH   1  11
BRANCH   6  28
ATOM     28  O   UNL     1       0.812  11.756  20.321  0.00  0.00    +0.000 OA
BRANCH  28  29
ATOM     29  C   UNL     1       0.258  12.770  19.472  0.00  0.00    +0.000 C 
BRANCH  29  30
ATOM     30  C   UNL     1      -1.241  12.516  19.398  0.00  0.00    +0.000 C 
BRANCH  30  31
ATOM     31  C   UNL     1      -1.728  12.050  18.023  0.00  0.00    +0.000 C 
BRANCH  31  32
ATOM     32  N   UNL     1      -2.467  10.778  18.014  0.00  0.00    +0.000 NA
ATOM     33  C   UNL     1      -3.937  10.939  18.052  0.00  0.00    +0.000 C 
ATOM     34  C   UNL     1      -4.575  11.451  16.740  0.00  0.00    +0.000 C 
ATOM     35  N   UNL     1      -4.213  10.641  15.570  0.00  0.00    +0.000 NA
ATOM     36  C   UNL     1      -2.758  10.466  15.491  0.00  0.00    +0.000 C 
ATOM     37  C   UNL     1      -2.124   9.975  16.815  0.00  0.00    +0.000 C 
ATOM     38  H   UNL     1      -4.553  11.093  14.723  0.00  0.00    +0.000 HD
ENDBRANCH  31  32
ENDBRANCH  30  31
ENDBRANCH  29  30
ENDBRANCH  28  29
ENDBRANCH   6  28
TORSDOF 11
ENDMDL
MODEL 2
REMARK VINA RESULT:      -8.2      3.179      4.108
REMARK  Name = 
REMARK  11 active torsions:
REMARK  status: ('A' for Active; 'I' for Inactive)
REMARK    1  A    between atoms: C_2  and  C_29
REMARK    2  A    between atoms: N_3  and  CA_4
REMARK    3  A    between atoms: CA_4  and  C_5
REMARK    4  A    between atoms: CA_4  and  C_26
REMARK    5  A    between atoms: C_5  and  C_6
REMARK    6  A    between atoms: C_11  and  O_12
REMARK    7  A    between atoms: O_12  and  C_13
REMARK    8  A    between atoms: C_13  and  C_14
REMARK    9  A    between atoms: C_14  and  C_15
REMARK   10  A    between atoms: C_15  and  N_16
REMARK   11  A    between atoms: C_26  and  OXT_28
REMARK                            x       y       z     vdW  Elec       q    Type
REMARK                         _______ _______ _______ _____ _____    ______ ____
ROOT
ATOM      1  C   UNL     1       2.572   6.684  18.605  0.00  0.00    +0.000 A 
ATOM      2  C   UNL     1       2.438   7.758  17.717  0.00  0.00    +0.000 A 
ATOM      3  C   UNL     1       1.895   8.977  18.149  0.00  0.00    +0.000 A 
ATOM      4  C   UNL     1       1.495   9.154  19.488  0.00  0.00    +0.000 A 
ATOM      5  C   UNL     1       0.984  10.361  19.997  0.00  0.00    +0.000 A 
ATOM      6  C   UNL     1       0.634  10.484  21.352  0.00  0.00    +0.000 A 
ATOM      7  C   UNL     1       0.791   9.398  22.208  0.00  0.00    +0.000 A 
ATOM      8  C   UNL     1       1.272   8.194  21.719  0.00  0.00    +0.000 A 
ATOM      9  C   UNL     1       1.620   8.070  20.372  0.00  0.00    +0.000 A 
ATOM     10  C   UNL     1       2.118   6.857  19.917  0.00  0.00    +0.000 A 
ENDROOT
BRANCH   1  11
ATOM     11  C   UNL     1       3.221   5.396  18.140  0.00  0.00    +0.000 C 
BRANCH  11  12
ATOM     12  CA  UNL     1       4.766   5.383  18.039  0.00  0.00    +0.000 C 
BRANCH  12  15
ATOM     13  O   UNL     1       6.471   6.703  16.219  0.00  0.00    +0.000 OA
ATOM     14  C   UNL     1       6.022   5.606  15.902  0.00  0.00    +0.000 C 
ATOM     15  N   UNL     1       5.216   4.865  16.732  0.00  0.00    +0.000 N 
ATOM     16  H   UNL     1       5.073   3.875  16.548  0.00  0.00    +0.000 HD
BRANCH  14  17
ATOM     17  C   UNL     1       6.368   5.022  14.581  0.00  0.00    +0.000 A 
ATOM     18  C   UNL     1       5.536   4.008  14.086  0.00  0.00    +0.000 A 
ATOM     19  C   UNL     1       5.814   3.385  12.871  0.00  0.00    +0.000 A 
ATOM     20  C   UNL     1       6.940   3.772  12.150  0.00  0.00    +0.000 A 
ATOM     21  F   UNL     1       7.218   3.174  10.985  0.00  0.00    +0.000 F 
ATOM     22  C   UNL     1       7.790   4.763  12.636  0.00  0.00    +0.000 A 
ATOM     23  C   UNL     1       7.509   5.392  13.855  0.00  0.00    +0.000 A 
ENDBRANCH  14  17
ENDBRANCH  12  15
BRANCH  12  24
ATOM     24  C   UNL     1       5.480   4.586  19.159  0.00  0.00    +0.000 C 
ATOM     25  O   UNL     1       5.092   3.477  19.519  0.00  0.00    +0.000 OA
BRANCH  24  26
ATOM     26  OXT UNL     1       6.553   5.161  19.740  0.00  0.00    +0.000 OA
ATOM     27  HXT UNL     1       7.045   4.636  20.398  0.00  0.00    +0.000 HD
ENDBRANCH  24  26
ENDBRANCH  12  24
ENDBRANCH  11  12
ENDBRANCH   1  11
BRANCH   6  28
ATOM     28  O   UNL     1       0.162  11.711  21.724  0.00  0.00    +0.000 OA
BRANCH  28  29
ATOM     29  C   UNL     1      -1.045  11.720  22.497  0.00  0.00    +0.000 C 
BRANCH  29  30
ATOM     30  C   UNL     1      -1.278  13.158  22.939  0.00  0.00    +0.000 C 
BRANCH  30  31
ATOM     31  C   UNL     1      -2.754  13.564  22.989  0.00  0.00    +0.000 C 
BRANCH  31  32
ATOM     32  N   UNL     1      -3.321  13.712  24.339  0.00  0.00    +0.000 NA
ATOM     33  C   UNL     1      -3.880  15.055  24.609  0.00  0.00    +0.000 C 
ATOM     34  C   UNL     1      -5.213  15.367  23.890  0.00  0.00    +0.000 C 
ATOM     35  N   UNL     1      -6.251  14.358  24.139  0.00  0.00    +0.000 NA
ATOM     36  C   UNL     1      -5.737  13.009  23.871  0.00  0.00    +0.000 C 
ATOM     37  C   UNL     1      -4.391  12.713  24.577  0.00  0.00    +0.000 C 
ATOM     38  H   UNL     1      -7.057  14.544  23.545  0.00  0.00    +0.000 HD
ENDBRANCH  31  32
ENDBRANCH  30  31
ENDBRANCH  29  30
ENDBRANCH  28  29
ENDBRANCH   6  28
TORSDOF 11
ENDMDL
MODEL 3
REMARK VINA RESULT:      -8.2      2.589      3.572
REMARK  Name = 
REMARK  11 active torsions:
REMARK  status: ('A' for Active; 'I' for Inactive)
REMARK    1  A    between atoms: C_2  and  C_29
REMARK    2  A    between atoms: N_3  and  CA_4
REMARK    3  A    between atoms: CA_4  and  C_5
REMARK    4  A    between atoms: CA_4  and  C_26
REMARK    5  A    between atoms: C_5  and  C_6
REMARK    6  A    between atoms: C_11  and  O_12
REMARK    7  A    between atoms: O_12  and  C_13
REMARK    8  A    between atoms: C_13  and  C_14
REMARK    9  A    between atoms: C_14  and  C_15
REMARK   10  A    between atoms: C_15  and  N_16
REMARK   11  A    between atoms: C_26  and  OXT_28
REMARK                            x       y       z     vdW  Elec       q    Type
REMARK                         _______ _______ _______ _____ _____    ______ ____
ROOT
ATOM      1  C   UNL     1       2.664   6.721  18.484  0.00  0.00    +0.000 A 
ATOM      2  C   UNL     1       2.467   7.767  17.575  0.00  0.00    +0.000 A 
ATOM      3  C   UNL     1       1.849   8.959  17.982  0.00  0.00    +0.000 A 
ATOM      4  C   UNL     1       1.435   9.137  19.317  0.00  0.00    +0.000 A 
ATOM      5  C   UNL     1       0.850  10.320  19.801  0.00  0.00    +0.000 A 
ATOM      6  C   UNL     1       0.490  10.448  21.153  0.00  0.00    +0.000 A 
ATOM      7  C   UNL     1       0.711   9.391  22.030  0.00  0.00    +0.000 A 
ATOM      8  C   UNL     1       1.266   8.209  21.565  0.00  0.00    +0.000 A 
ATOM      9  C   UNL     1       1.624   8.081  20.222  0.00  0.00    +0.000 A 
ATOM     10  C   UNL     1       2.197   6.892  19.792  0.00  0.00    +0.000 A 
ENDROOT
BRANCH   1  11
ATOM     11  C   UNL     1       3.391   5.467  18.045  0.00  0.00    +0.000 C 
BRANCH  11  12
ATOM     12  CA  UNL     1       4.939   5.521  18.025  0.00  0.00    +0.000 C 
BRANCH  12  15
ATOM     13  O   UNL     1       5.325   6.911  15.600  0.00  0.00    +0.000 OA
ATOM     14  C   UNL     1       5.597   5.715  15.632  0.00  0.00    +0.000 C 
ATOM     15  N   UNL     1       5.482   4.958  16.773  0.00  0.00    +0.000 N 
ATOM     16  H   UNL     1       5.946   4.054  16.831  0.00  0.00    +0.000 HD
BRANCH  14  17
ATOM     17  C   UNL     1       6.095   5.039  14.408  0.00  0.00    +0.000 A 
ATOM     18  C   UNL     1       5.304   4.015  13.868  0.00  0.00    +0.000 A 
ATOM     19  C   UNL     1       5.719   3.308  12.741  0.00  0.00    +0.000 A 
ATOM     20  C   UNL     1       6.944   3.621  12.155  0.00  0.00    +0.000 A 
ATOM     21  F   UNL     1       7.353   2.943  11.077  0.00  0.00    +0.000 F 
ATOM     22  C   UNL     1       7.753   4.621  12.690  0.00  0.00    +0.000 A 
ATOM     23  C   UNL     1       7.334   5.334  13.820  0.00  0.00    +0.000 A 
ENDBRANCH  14  17
ENDBRANCH  12  15
BRANCH  12  24
ATOM     24  C   UNL     1       5.626   4.818  19.222  0.00  0.00    +0.000 C 
ATOM     25  O   UNL     1       6.587   5.314  19.805  0.00  0.00    +0.000 OA
BRANCH  24  26
ATOM     26  OXT UNL     1       5.132   3.623  19.606  0.00  0.00    +0.000 OA
ATOM     27  HXT UNL     1       5.768   2.943  19.892  0.00  0.00    +0.000 HD
ENDBRANCH  24  26
ENDBRANCH  12  24
ENDBRANCH  11  12
ENDBRANCH   1  11
BRANCH   6  28
ATOM     28  O   UNL     1      -0.057  11.650  21.500  0.00  0.00    +0.000 OA
BRANCH  28  29
ATOM     29  C   UNL     1      -0.984  12.220  20.567  0.00  0.00    +0.000 C 
BRANCH  29  30
ATOM     30  C   UNL     1      -1.274  13.639  21.039  0.00  0.00    +0.000 C 
BRANCH  30  31
ATOM     31  C   UNL     1      -2.673  13.824  21.634  0.00  0.00    +0.000 C 
BRANCH  31  32
ATOM     32  N   UNL     1      -3.347  12.587  22.056  0.00  0.00    +0.000 NA
ATOM     33  C   UNL     1      -3.143  12.249  23.482  0.00  0.00    +0.000 C 
ATOM     34  C   UNL     1      -3.909  13.143  24.484  0.00  0.00    +0.000 C 
ATOM     35  N   UNL     1      -5.351  13.210  24.210  0.00  0.00    +0.000 NA
ATOM     36  C   UNL     1      -5.595  13.554  22.804  0.00  0.00    +0.000 C 
ATOM     37  C   UNL     1      -4.807  12.669  21.808  0.00  0.00    +0.000 C 
ATOM     38  H   UNL     1      -5.782  13.907  24.815  0.00  0.00    +0.000 HD
ENDBRANCH  31  32
ENDBRANCH  30  31
ENDBRANCH  29  30
ENDBRANCH  28  29
ENDBRANCH   6  28
TORSDOF 11
ENDMDL
MODEL 4
REMARK VINA RESULT:      -8.2      2.634      3.553
REMARK  Name = 
REMARK  11 active torsions:
REMARK  status: ('A' for Active; 'I' for Inactive)
REMARK    1  A    between atoms: C_2  and  C_29
REMARK    2  A    between atoms: N_3  and  CA_4
REMARK    3  A    between atoms: CA_4  and  C_5
REMARK    4  A    between atoms: CA_4  and  C_26
REMARK    5  A    between atoms: C_5  and  C_6
REMARK    6  A    between atoms: C_11  and  O_12
REMARK    7  A    between atoms: O_12  and  C_13
REMARK    8  A    between atoms: C_13  and  C_14
REMARK    9  A    between atoms: C_14  and  C_15
REMARK   10  A    between atoms: C_15  and  N_16
REMARK   11  A    between atoms: C_26  and  OXT_28
REMARK                            x       y       z     vdW  Elec       q    Type
REMARK                         _______ _______ _______ _____ _____    ______ ____
ROOT
ATOM      1  C   UNL     1       2.365   5.175  19.254  0.00  0.00    +0.000 A 
ATOM      2  C   UNL     1       1.841   5.475  20.516  0.00  0.00    +0.000 A 
ATOM      3  C   UNL     1       1.463   6.787  20.838  0.00  0.00    +0.000 A 
ATOM      4  C   UNL     1       1.580   7.824  19.892  0.00  0.00    +0.000 A 
ATOM      5  C   UNL     1       1.180   9.150  20.133  0.00  0.00    +0.000 A 
ATOM      6  C   UNL     1       1.292  10.132  19.134  0.00  0.00    +0.000 A 
ATOM      7  C   UNL     1       1.808   9.794  17.887  0.00  0.00    +0.000 A 
ATOM      8  C   UNL     1       2.228   8.497  17.639  0.00  0.00    +0.000 A 
ATOM      9  C   UNL     1       2.118   7.520  18.630  0.00  0.00    +0.000 A 
ATOM     10  C   UNL     1       2.528   6.226  18.344  0.00  0.00    +0.000 A 
ENDROOT
BRANCH   1  11
ATOM     11  C   UNL     1       2.707   3.742  18.900  0.00  0.00    +0.000 C 
BRANCH  11  12
ATOM     12  CA  UNL     1       4.208   3.362  18.878  0.00  0.00    +0.000 C 
BRANCH  12  15
ATOM     13  O   UNL     1       5.951   5.349  17.890  0.00  0.00    +0.000 OA
ATOM     14  C   UNL     1       5.579   4.469  17.120  0.00  0.00    +0.000 C 
ATOM     15  N   UNL     1       4.764   3.435  17.512  0.00  0.00    +0.000 N 
ATOM     16  H   UNL     1       4.684   2.604  16.931  0.00  0.00    +0.000 HD
BRANCH  14  17
ATOM     17  C   UNL     1       6.035   4.485  15.708  0.00  0.00    +0.000 A 
ATOM     18  C   UNL     1       5.272   3.768  14.774  0.00  0.00    +0.000 A 
ATOM     19  C   UNL     1       5.654   3.705  13.436  0.00  0.00    +0.000 A 
ATOM     20  C   UNL     1       6.816   4.355  13.028  0.00  0.00    +0.000 A 
ATOM     21  F   UNL     1       7.193   4.294  11.746  0.00  0.00    +0.000 F 
ATOM     22  C   UNL     1       7.598   5.055  13.945  0.00  0.00    +0.000 A 
ATOM     23  C   UNL     1       7.212   5.122  15.289  0.00  0.00    +0.000 A 
ENDBRANCH  14  17
ENDBRANCH  12  15
BRANCH  12  24
ATOM     24  C   UNL     1       4.529   1.967  19.468  0.00  0.00    +0.000 C 
ATOM     25  O   UNL     1       5.022   1.828  20.585  0.00  0.00    +0.000 OA
BRANCH  24  26
ATOM     26  OXT UNL     1       4.253   0.891  18.703  0.00  0.00    +0.000 OA
ATOM     27  HXT UNL     1       3.539   0.298  18.997  0.00  0.00    +0.000 HD
ENDBRANCH  24  26
ENDBRANCH  12  24
ENDBRANCH  11  12
ENDBRANCH   1  11
BRANCH   6  28
ATOM     28  O   UNL     1       0.858  11.377  19.489  0.00  0.00    +0.000 OA
BRANCH  28  29
ATOM     29  C   UNL     1       1.391  11.914  20.707  0.00  0.00    +0.000 C 
BRANCH  29  30
ATOM     30  C   UNL     1       0.749  13.280  20.909  0.00  0.00    +0.000 C 
BRANCH  30  31
ATOM     31  C   UNL     1       1.601  14.449  20.405  0.00  0.00    +0.000 C 
BRANCH  31  32
ATOM     32  N   UNL     1       1.452  14.769  18.977  0.00  0.00    +0.000 NA
ATOM     33  C   UNL     1       1.015  16.158  18.717  0.00  0.00    +0.000 C 
ATOM     34  C   UNL     1       2.090  17.241  18.965  0.00  0.00    +0.000 C 
ATOM     35  N   UNL     1       3.340  16.988  18.235  0.00  0.00    +0.000 NA
ATOM     36  C   UNL     1       3.813  15.619  18.476  0.00  0.00    +0.000 C 
ATOM     37  C   UNL     1       2.723  14.543  18.248  0.00  0.00    +0.000 C 
ATOM     38  H   UNL     1       4.050  17.655  18.531  0.00  0.00    +0.000 HD
ENDBRANCH  31  32
ENDBRANCH  30  31
ENDBRANCH  29  30
ENDBRANCH  28  29
ENDBRANCH   6  28
TORSDOF 11
ENDMDL
MODEL 5
REMARK VINA RESULT:      -8.1      1.093      1.870
REMARK  Name = 
REMARK  11 active torsions:
REMARK  status: ('A' for Active; 'I' for Inactive)
REMARK    1  A    between atoms: C_2  and  C_29
REMARK    2  A    between atoms: N_3  and  CA_4
REMARK    3  A    between atoms: CA_4  and  C_5
REMARK    4  A    between atoms: CA_4  and  C_26
REMARK    5  A    between atoms: C_5  and  C_6
REMARK    6  A    between atoms: C_11  and  O_12
REMARK    7  A    between atoms: O_12  and  C_13
REMARK    8  A    between atoms: C_13  and  C_14
REMARK    9  A    between atoms: C_14  and  C_15
REMARK   10  A    between atoms: C_15  and  N_16
REMARK   11  A    between atoms: C_26  and  OXT_28
REMARK                            x       y       z     vdW  Elec       q    Type
REMARK                         _______ _______ _______ _____ _____    ______ ____
ROOT
ATOM      1  C   UNL     1       3.759   5.660  18.890  0.00  0.00    +0.000 A 
ATOM      2  C   UNL     1       3.813   6.537  17.800  0.00  0.00    +0.000 A 
ATOM      3  C   UNL     1       3.037   7.705  17.786  0.00  0.00    +0.000 A 
ATOM      4  C   UNL     1       2.206   8.033  18.876  0.00  0.00    +0.000 A 
ATOM      5  C   UNL     1       1.437   9.207  18.946  0.00  0.00    +0.000 A 
ATOM      6  C   UNL     1       0.655   9.493  20.077  0.00  0.00    +0.000 A 
ATOM      7  C   UNL     1       0.634   8.603  21.147  0.00  0.00    +0.000 A 
ATOM      8  C   UNL     1       1.369   7.429  21.086  0.00  0.00    +0.000 A 
ATOM      9  C   UNL     1       2.147   7.144  19.962  0.00  0.00    +0.000 A 
ATOM     10  C   UNL     1       2.888   5.971  19.939  0.00  0.00    +0.000 A 
ENDROOT
BRANCH   1  11
ATOM     11  C   UNL     1       4.652   4.437  18.920  0.00  0.00    +0.000 C 
BRANCH  11  12
ATOM     12  CA  UNL     1       4.233   3.238  18.033  0.00  0.00    +0.000 C 
BRANCH  12  15
ATOM     13  O   UNL     1       6.751   4.241  17.245  0.00  0.00    +0.000 OA
ATOM     14  C   UNL     1       5.949   3.933  16.369  0.00  0.00    +0.000 C 
ATOM     15  N   UNL     1       4.714   3.399  16.646  0.00  0.00    +0.000 N 
ATOM     16  H   UNL     1       4.189   2.928  15.913  0.00  0.00    +0.000 HD
BRANCH  14  17
ATOM     17  C   UNL     1       6.315   4.111  14.941  0.00  0.00    +0.000 A 
ATOM     18  C   UNL     1       7.392   4.961  14.651  0.00  0.00    +0.000 A 
ATOM     19  C   UNL     1       7.774   5.208  13.334  0.00  0.00    +0.000 A 
ATOM     20  C   UNL     1       7.065   4.609  12.297  0.00  0.00    +0.000 A 
ATOM     21  F   UNL     1       7.421   4.846  11.029  0.00  0.00    +0.000 F 
ATOM     22  C   UNL     1       5.979   3.778  12.564  0.00  0.00    +0.000 A 
ATOM     23  C   UNL     1       5.597   3.526  13.888  0.00  0.00    +0.000 A 
ENDBRANCH  14  17
ENDBRANCH  12  15
BRANCH  12  24
ATOM     24  C   UNL     1       2.710   2.961  17.999  0.00  0.00    +0.000 C 
ATOM     25  O   UNL     1       2.141   2.335  18.890  0.00  0.00    +0.000 OA
BRANCH  24  26
ATOM     26  OXT UNL     1       2.018   3.429  16.940  0.00  0.00    +0.000 OA
ATOM     27  HXT UNL     1       2.136   2.975  16.087  0.00  0.00    +0.000 HD
ENDBRANCH  24  26
ENDBRANCH  12  24
ENDBRANCH  11  12
ENDBRANCH   1  11
BRANCH   6  28
ATOM     28  O   UNL     1      -0.036  10.671  20.027  0.00  0.00    +0.000 OA
BRANCH  28  29
ATOM     29  C   UNL     1       0.429  11.641  19.079  0.00  0.00    +0.000 C 
BRANCH  29  30
ATOM     30  C   UNL     1      -0.726  12.600  18.824  0.00  0.00    +0.000 C 
BRANCH  30  31
ATOM     31  C   UNL     1      -1.642  12.181  17.671  0.00  0.00    +0.000 C 
BRANCH  31  32
ATOM     32  N   UNL     1      -2.403  10.941  17.890  0.00  0.00    +0.000 NA
ATOM     33  C   UNL     1      -3.867  11.141  17.962  0.00  0.00    +0.000 C 
ATOM     34  C   UNL     1      -4.553  11.460  16.613  0.00  0.00    +0.000 C 
ATOM     35  N   UNL     1      -4.257  10.470  15.569  0.00  0.00    +0.000 NA
ATOM     36  C   UNL     1      -2.809  10.250  15.459  0.00  0.00    +0.000 C 
ATOM     37  C   UNL     1      -2.127   9.955  16.817  0.00  0.00    +0.000 C 
ATOM     38  H   UNL     1      -4.625  10.794  14.677  0.00  0.00    +0.000 HD
ENDBRANCH  31  32
ENDBRANCH  30  31
ENDBRANCH  29  30
ENDBRANCH  28  29
ENDBRANCH   6  28
TORSDOF 11
ENDMDL
MODEL 6
REMARK VINA RESULT:      -8.1      2.707      3.434
REMARK  Name = 
REMARK  11 active torsions:
REMARK  status: ('A' for Active; 'I' for Inactive)
REMARK    1  A    between atoms: C_2  and  C_29
REMARK    2  A    between atoms: N_3  and  CA_4
REMARK    3  A    between atoms: CA_4  and  C_5
REMARK    4  A    between atoms: CA_4  and  C_26
REMARK    5  A    between atoms: C_5  and  C_6
REMARK    6  A    between atoms: C_11  and  O_12
REMARK    7  A    between atoms: O_12  and  C_13
REMARK    8  A    between atoms: C_13  and  C_14
REMARK    9  A    between atoms: C_14  and  C_15
REMARK   10  A    between atoms: C_15  and  N_16
REMARK   11  A    between atoms: C_26  and  OXT_28
REMARK                            x       y       z     vdW  Elec       q    Type
REMARK                         _______ _______ _______ _____ _____    ______ ____
ROOT
ATOM      1  C   UNL     1       2.325   6.237  18.657  0.00  0.00    +0.000 A 
ATOM      2  C   UNL     1       2.045   6.035  20.014  0.00  0.00    +0.000 A 
ATOM      3  C   UNL     1       1.595   7.095  20.815  0.00  0.00    +0.000 A 
ATOM      4  C   UNL     1       1.394   8.378  20.268  0.00  0.00    +0.000 A 
ATOM      5  C   UNL     1       0.905   9.471  21.002  0.00  0.00    +0.000 A 
ATOM      6  C   UNL     1       0.693  10.718  20.389  0.00  0.00    +0.000 A 
ATOM      7  C   UNL     1       0.972  10.879  19.036  0.00  0.00    +0.000 A 
ATOM      8  C   UNL     1       1.476   9.817  18.301  0.00  0.00    +0.000 A 
ATOM      9  C   UNL     1       1.687   8.578  18.909  0.00  0.00    +0.000 A 
ATOM     10  C   UNL     1       2.174   7.529  18.142  0.00  0.00    +0.000 A 
ENDROOT
BRANCH   1  11
ATOM     11  C   UNL     1       2.747   5.069  17.791  0.00  0.00    +0.000 C 
BRANCH  11  12
ATOM     12  CA  UNL     1       4.166   4.494  18.026  0.00  0.00    +0.000 C 
BRANCH  12  15
ATOM     13  O   UNL     1       5.324   6.399  16.296  0.00  0.00    +0.000 OA
ATOM     14  C   UNL     1       5.352   5.219  15.961  0.00  0.00    +0.000 C 
ATOM     15  N   UNL     1       4.852   4.211  16.749  0.00  0.00    +0.000 N 
ATOM     16  H   UNL     1       5.113   3.246  16.565  0.00  0.00    +0.000 HD
BRANCH  14  17
ATOM     17  C   UNL     1       5.968   4.836  14.666  0.00  0.00    +0.000 A 
ATOM     18  C   UNL     1       5.285   3.895  13.880  0.00  0.00    +0.000 A 
ATOM     19  C   UNL     1       5.815   3.457  12.668  0.00  0.00    +0.000 A 
ATOM     20  C   UNL     1       7.045   3.954  12.244  0.00  0.00    +0.000 A 
ATOM     21  F   UNL     1       7.564   3.533  11.085  0.00  0.00    +0.000 F 
ATOM     22  C   UNL     1       7.747   4.873  13.021  0.00  0.00    +0.000 A 
ATOM     23  C   UNL     1       7.213   5.317  14.237  0.00  0.00    +0.000 A 
ENDBRANCH  14  17
ENDBRANCH  12  15
BRANCH  12  24
ATOM     24  C   UNL     1       4.209   3.219  18.904  0.00  0.00    +0.000 C 
ATOM     25  O   UNL     1       3.203   2.554  19.138  0.00  0.00    +0.000 OA
BRANCH  24  26
ATOM     26  OXT UNL     1       5.404   2.860  19.417  0.00  0.00    +0.000 OA
ATOM     27  HXT UNL     1       5.780   3.421  20.119  0.00  0.00    +0.000 HD
ENDBRANCH  24  26
ENDBRANCH  12  24
ENDBRANCH  11  12
ENDBRANCH   1  11
BRANCH   6  28
ATOM     28  O   UNL     1       0.203  11.695  21.208  0.00  0.00    +0.000 OA
BRANCH  28  29
ATOM     29  C   UNL     1      -0.590  11.257  22.319  0.00  0.00    +0.000 C 
BRANCH  29  30
ATOM     30  C   UNL     1      -1.353  12.472  22.827  0.00  0.00    +0.000 C 
BRANCH  30  31
ATOM     31  C   UNL     1      -2.689  12.710  22.117  0.00  0.00    +0.000 C 
BRANCH  31  32
ATOM     32  N   UNL     1      -3.887  12.334  22.884  0.00  0.00    +0.000 NA
ATOM     33  C   UNL     1      -3.806  12.670  24.323  0.00  0.00    +0.000 C 
ATOM     34  C   UNL     1      -3.927  14.176  24.652  0.00  0.00    +0.000 C 
ATOM     35  N   UNL     1      -5.132  14.794  24.085  0.00  0.00    +0.000 NA
ATOM     36  C   UNL     1      -5.243  14.492  22.652  0.00  0.00    +0.000 C 
ATOM     37  C   UNL     1      -5.098  12.985  22.328  0.00  0.00    +0.000 C 
ATOM     38  H   UNL     1      -5.097  15.802  24.222  0.00  0.00    +0.000 HD
ENDBRANCH  31  32
ENDBRANCH  30  31
ENDBRANCH  29  30
ENDBRANCH  28  29
ENDBRANCH   6  28
TORSDOF 11
ENDMDL
MODEL 7
REMARK VINA RESULT:      -8.1      3.229      4.255
REMARK  Name = 
REMARK  11 active torsions:
REMARK  status: ('A' for Active; 'I' for Inactive)
REMARK    1  A    between atoms: C_2  and  C_29
REMARK    2  A    between atoms: N_3  and  CA_4
REMARK    3  A    between atoms: CA_4  and  C_5
REMARK    4  A    between atoms: CA_4  and  C_26
REMARK    5  A    between atoms: C_5  and  C_6
REMARK    6  A    between atoms: C_11  and  O_12
REMARK    7  A    between atoms: O_12  and  C_13
REMARK    8  A    between atoms: C_13  and  C_14
REMARK    9  A    between atoms: C_14  and  C_15
REMARK   10  A    between atoms: C_15  and  N_16
REMARK   11  A    between atoms: C_26  and  OXT_28
REMARK                            x       y       z     vdW  Elec       q    Type
REMARK                         _______ _______ _______ _____ _____    ______ ____
ROOT
ATOM      1  C   UNL     1       2.712   6.867  18.694  0.00  0.00    +0.000 A 
ATOM      2  C   UNL     1       2.481   7.810  17.685  0.00  0.00    +0.000 A 
ATOM      3  C   UNL     1       1.758   8.981  17.955  0.00  0.00    +0.000 A 
ATOM      4  C   UNL     1       1.269   9.245  19.249  0.00  0.00    +0.000 A 
ATOM      5  C   UNL     1       0.576  10.416  19.598  0.00  0.00    +0.000 A 
ATOM      6  C   UNL     1       0.143  10.636  20.916  0.00  0.00    +0.000 A 
ATOM      7  C   UNL     1       0.400   9.682  21.896  0.00  0.00    +0.000 A 
ATOM      8  C   UNL     1       1.063   8.510  21.566  0.00  0.00    +0.000 A 
ATOM      9  C   UNL     1       1.493   8.291  20.255  0.00  0.00    +0.000 A 
ATOM     10  C   UNL     1       2.172   7.117  19.960  0.00  0.00    +0.000 A 
ENDROOT
BRANCH   1  11
ATOM     11  C   UNL     1       3.550   5.640  18.403  0.00  0.00    +0.000 C 
BRANCH  11  12
ATOM     12  CA  UNL     1       5.082   5.843  18.293  0.00  0.00    +0.000 C 
BRANCH  12  15
ATOM     13  O   UNL     1       4.623   3.571  16.683  0.00  0.00    +0.000 OA
ATOM     14  C   UNL     1       5.305   4.481  16.222  0.00  0.00    +0.000 C 
ATOM     15  N   UNL     1       5.554   5.644  16.909  0.00  0.00    +0.000 N 
ATOM     16  H   UNL     1       5.899   6.462  16.412  0.00  0.00    +0.000 HD
BRANCH  14  17
ATOM     17  C   UNL     1       5.877   4.354  14.858  0.00  0.00    +0.000 A 
ATOM     18  C   UNL     1       7.065   5.049  14.588  0.00  0.00    +0.000 A 
ATOM     19  C   UNL     1       7.646   5.009  13.322  0.00  0.00    +0.000 A 
ATOM     20  C   UNL     1       7.026   4.278  12.312  0.00  0.00    +0.000 A 
ATOM     21  F   UNL     1       7.573   4.240  11.092  0.00  0.00    +0.000 F 
ATOM     22  C   UNL     1       5.834   3.598  12.555  0.00  0.00    +0.000 A 
ATOM     23  C   UNL     1       5.253   3.634  13.829  0.00  0.00    +0.000 A 
ENDBRANCH  14  17
ENDBRANCH  12  15
BRANCH  12  24
ATOM     24  C   UNL     1       5.921   4.946  19.236  0.00  0.00    +0.000 C 
ATOM     25  O   UNL     1       6.907   5.371  19.834  0.00  0.00    +0.000 OA
BRANCH  24  26
ATOM     26  OXT UNL     1       5.535   3.661  19.376  0.00  0.00    +0.000 OA
ATOM     27  HXT UNL     1       5.020   3.428  20.169  0.00  0.00    +0.000 HD
ENDBRANCH  24  26
ENDBRANCH  12  24
ENDBRANCH  11  12
ENDBRANCH   1  11
BRANCH   6  28
ATOM     28  O   UNL     1      -0.508  11.818  21.128  0.00  0.00    +0.000 OA
BRANCH  28  29
ATOM     29  C   UNL     1      -0.689  12.208  22.496  0.00  0.00    +0.000 C 
BRANCH  29  30
ATOM     30  C   UNL     1      -2.054  11.690  22.928  0.00  0.00    +0.000 C 
BRANCH  30  31
ATOM     31  C   UNL     1      -3.144  12.765  22.969  0.00  0.00    +0.000 C 
BRANCH  31  32
ATOM     32  N   UNL     1      -3.819  12.930  24.266  0.00  0.00    +0.000 NA
ATOM     33  C   UNL     1      -3.443  14.168  24.983  0.00  0.00    +0.000 C 
ATOM     34  C   UNL     1      -4.022  15.472  24.387  0.00  0.00    +0.000 C 
ATOM     35  N   UNL     1      -5.482  15.435  24.230  0.00  0.00    +0.000 NA
ATOM     36  C   UNL     1      -5.895  14.222  23.512  0.00  0.00    +0.000 C 
ATOM     37  C   UNL     1      -5.292  12.924  24.101  0.00  0.00    +0.000 C 
ATOM     38  H   UNL     1      -5.793  16.260  23.720  0.00  0.00    +0.000 HD
ENDBRANCH  31  32
ENDBRANCH  30  31
ENDBRANCH  29  30
ENDBRANCH  28  29
ENDBRANCH   6  28
TORSDOF 11
ENDMDL
MODEL 8
REMARK VINA RESULT:      -8.0      2.793      4.185
REMARK  Name = 
REMARK  11 active torsions:
REMARK  status: ('A' for Active; 'I' for Inactive)
REMARK    1  A    between atoms: C_2  and  C_29
REMARK    2  A    between atoms: N_3  and  CA_4
REMARK    3  A    between atoms: CA_4  and  C_5
REMARK    4  A    between atoms: CA_4  and  C_26
REMARK    5  A    between atoms: C_5  and  C_6
REMARK    6  A    between atoms: C_11  and  O_12
REMARK    7  A    between atoms: O_12  and  C_13
REMARK    8  A    between atoms: C_13  and  C_14
REMARK    9  A    between atoms: C_14  and  C_15
REMARK   10  A    between atoms: C_15  and  N_16
REMARK   11  A    between atoms: C_26  and  OXT_28
REMARK                            x       y       z     vdW  Elec       q    Type
REMARK                         _______ _______ _______ _____ _____    ______ ____
ROOT
ATOM      1  C   UNL     1       2.719   6.652  18.592  0.00  0.00    +0.000 A 
ATOM      2  C   UNL     1       2.605   7.611  17.579  0.00  0.00    +0.000 A 
ATOM      3  C   UNL     1       1.970   8.837  17.825  0.00  0.00    +0.000 A 
ATOM      4  C   UNL     1       1.453   9.138  19.101  0.00  0.00    +0.000 A 
ATOM      5  C   UNL     1       0.844  10.362  19.427  0.00  0.00    +0.000 A 
ATOM      6  C   UNL     1       0.380  10.614  20.729  0.00  0.00    +0.000 A 
ATOM      7  C   UNL     1       0.519   9.641  21.714  0.00  0.00    +0.000 A 
ATOM      8  C   UNL     1       1.097   8.420  21.404  0.00  0.00    +0.000 A 
ATOM      9  C   UNL     1       1.559   8.168  20.110  0.00  0.00    +0.000 A 
ATOM     10  C   UNL     1       2.152   6.943  19.837  0.00  0.00    +0.000 A 
ENDROOT
BRANCH   1  11
ATOM     11  C   UNL     1       3.466   5.360  18.329  0.00  0.00    +0.000 C 
BRANCH  11  12
ATOM     12  CA  UNL     1       4.994   5.464  18.101  0.00  0.00    +0.000 C 
BRANCH  12  15
ATOM     13  O   UNL     1       6.895   6.618  16.364  0.00  0.00    +0.000 OA
ATOM     14  C   UNL     1       6.291   5.620  15.982  0.00  0.00    +0.000 C 
ATOM     15  N   UNL     1       5.376   4.961  16.767  0.00  0.00    +0.000 N 
ATOM     16  H   UNL     1       5.090   4.015  16.526  0.00  0.00    +0.000 HD
BRANCH  14  17
ATOM     17  C   UNL     1       6.561   5.067  14.631  0.00  0.00    +0.000 A 
ATOM     18  C   UNL     1       5.748   4.012  14.191  0.00  0.00    +0.000 A 
ATOM     19  C   UNL     1       5.960   3.416  12.949  0.00  0.00    +0.000 A 
ATOM     20  C   UNL     1       7.002   3.870  12.146  0.00  0.00    +0.000 A 
ATOM     21  F   UNL     1       7.217   3.299  10.955  0.00  0.00    +0.000 F 
ATOM     22  C   UNL     1       7.833   4.903  12.575  0.00  0.00    +0.000 A 
ATOM     23  C   UNL     1       7.618   5.505  13.821  0.00  0.00    +0.000 A 
ENDBRANCH  14  17
ENDBRANCH  12  15
BRANCH  12  24
ATOM     24  C   UNL     1       5.856   4.745  19.167  0.00  0.00    +0.000 C 
ATOM     25  O   UNL     1       6.761   5.318  19.770  0.00  0.00    +0.000 OA
BRANCH  24  26
ATOM     26  OXT UNL     1       5.584   3.447  19.412  0.00  0.00    +0.000 OA
ATOM     27  HXT UNL     1       6.250   2.787  19.146  0.00  0.00    +0.000 HD
ENDBRANCH  24  26
ENDBRANCH  12  24
ENDBRANCH  11  12
ENDBRANCH   1  11
BRANCH   6  28
ATOM     28  O   UNL     1      -0.181  11.845  20.920  0.00  0.00    +0.000 OA
BRANCH  28  29
ATOM     29  C   UNL     1       0.387  12.927  20.170  0.00  0.00    +0.000 C 
BRANCH  29  30
ATOM     30  C   UNL     1       1.619  13.397  20.932  0.00  0.00    +0.000 C 
BRANCH  30  31
ATOM     31  C   UNL     1       2.725  13.965  20.039  0.00  0.00    +0.000 C 
BRANCH  31  32
ATOM     32  N   UNL     1       2.265  14.810  18.926  0.00  0.00    +0.000 NA
ATOM     33  C   UNL     1       1.933  16.196  19.324  0.00  0.00    +0.000 C 
ATOM     34  C   UNL     1       3.149  17.092  19.653  0.00  0.00    +0.000 C 
ATOM     35  N   UNL     1       4.145  17.131  18.575  0.00  0.00    +0.000 NA
ATOM     36  C   UNL     1       4.509  15.771  18.158  0.00  0.00    +0.000 C 
ATOM     37  C   UNL     1       3.286  14.873  17.852  0.00  0.00    +0.000 C 
ATOM     38  H   UNL     1       4.975  17.628  18.893  0.00  0.00    +0.000 HD
ENDBRANCH  31  32
ENDBRANCH  30  31
ENDBRANCH  29  30
ENDBRANCH  28  29
ENDBRANCH   6  28
TORSDOF 11
ENDMDL
MODEL 9
REMARK VINA RESULT:      -8.0      2.108      3.023
REMARK  Name = 
REMARK  11 active torsions:
REMARK  status: ('A' for Active; 'I' for Inactive)
REMARK    1  A    between atoms: C_2  and  C_29
REMARK    2  A    between atoms: N_3  and  CA_4
REMARK    3  A    between atoms: CA_4  and  C_5
REMARK    4  A    between atoms: CA_4  and  C_26
REMARK    5  A    between atoms: C_5  and  C_6
REMARK    6  A    between atoms: C_11  and  O_12
REMARK    7  A    between atoms: O_12  and  C_13
REMARK    8  A    between atoms: C_13  and  C_14
REMARK    9  A    between atoms: C_14  and  C_15
REMARK   10  A    between atoms: C_15  and  N_16
REMARK   11  A    between atoms: C_26  and  OXT_28
REMARK                            x       y       z     vdW  Elec       q    Type
REMARK                         _______ _______ _______ _____ _____    ______ ____
ROOT
ATOM      1  C   UNL     1       2.631   6.668  19.553  0.00  0.00    +0.000 A 
ATOM      2  C   UNL     1       2.659   7.365  18.339  0.00  0.00    +0.000 A 
ATOM      3  C   UNL     1       1.922   8.549  18.180  0.00  0.00    +0.000 A 
ATOM      4  C   UNL     1       1.159   9.072  19.241  0.00  0.00    +0.000 A 
ATOM      5  C   UNL     1       0.433  10.273  19.163  0.00  0.00    +0.000 A 
ATOM      6  C   UNL     1      -0.281  10.760  20.271  0.00  0.00    +0.000 A 
ATOM      7  C   UNL     1      -0.278  10.045  21.465  0.00  0.00    +0.000 A 
ATOM      8  C   UNL     1       0.414   8.847  21.553  0.00  0.00    +0.000 A 
ATOM      9  C   UNL     1       1.124   8.362  20.453  0.00  0.00    +0.000 A 
ATOM     10  C   UNL     1       1.823   7.170  20.579  0.00  0.00    +0.000 A 
ENDROOT
BRANCH   1  11
ATOM     11  C   UNL     1       3.482   5.428  19.731  0.00  0.00    +0.000 C 
BRANCH  11  12
ATOM     12  CA  UNL     1       3.133   4.202  18.852  0.00  0.00    +0.000 C 
BRANCH  12  15
ATOM     13  O   UNL     1       5.921   4.053  18.443  0.00  0.00    +0.000 OA
ATOM     14  C   UNL     1       5.199   4.209  17.463  0.00  0.00    +0.000 C 
ATOM     15  N   UNL     1       3.828   4.255  17.551  0.00  0.00    +0.000 N 
ATOM     16  H   UNL     1       3.262   4.131  16.714  0.00  0.00    +0.000 HD
BRANCH  14  17
ATOM     17  C   UNL     1       5.804   4.333  16.113  0.00  0.00    +0.000 A 
ATOM     18  C   UNL     1       7.021   5.023  16.012  0.00  0.00    +0.000 A 
ATOM     19  C   UNL     1       7.636   5.212  14.776  0.00  0.00    +0.000 A 
ATOM     20  C   UNL     1       7.021   4.717  13.628  0.00  0.00    +0.000 A 
ATOM     21  F   UNL     1       7.601   4.901  12.436  0.00  0.00    +0.000 F 
ATOM     22  C   UNL     1       5.801   4.048  13.706  0.00  0.00    +0.000 A 
ATOM     23  C   UNL     1       5.186   3.854  14.950  0.00  0.00    +0.000 A 
ENDBRANCH  14  17
ENDBRANCH  12  15
BRANCH  12  24
ATOM     24  C   UNL     1       1.619   4.001  18.596  0.00  0.00    +0.000 C 
ATOM     25  O   UNL     1       1.123   4.132  17.480  0.00  0.00    +0.000 OA
BRANCH  24  26
ATOM     26  OXT UNL     1       0.848   3.679  19.655  0.00  0.00    +0.000 OA
ATOM     27  HXT UNL     1       0.731   2.734  19.858  0.00  0.00    +0.000 HD
ENDBRANCH  24  26
ENDBRANCH  12  24
ENDBRANCH  11  12
ENDBRANCH   1  11
BRANCH   6  28
ATOM     28  O   UNL     1      -0.934  11.943  20.070  0.00  0.00    +0.000 OA
BRANCH  28  29
ATOM     29  C   UNL     1      -1.661  12.068  18.840  0.00  0.00    +0.000 C 
BRANCH  29  30
ATOM     30  C   UNL     1      -3.080  12.483  19.204  0.00  0.00    +0.000 C 
BRANCH  30  31
ATOM     31  C   UNL     1      -4.166  11.601  18.582  0.00  0.00    +0.000 C 
BRANCH  31  32
ATOM     32  N   UNL     1      -5.508  12.200  18.523  0.00  0.00    +0.000 NA
ATOM     33  C   UNL     1      -6.593  11.218  18.301  0.00  0.00    +0.000 C 
ATOM     34  C   UNL     1      -6.922  10.318  19.514  0.00  0.00    +0.000 C 
ATOM     35  N   UNL     1      -7.211  11.081  20.735  0.00  0.00    +0.000 NA
ATOM     36  C   UNL     1      -6.150  12.061  20.997  0.00  0.00    +0.000 C 
ATOM     37  C   UNL     1      -5.811  12.943  19.770  0.00  0.00    +0.000 C 
ATOM     38  H   UNL     1      -7.294  10.444  21.525  0.00  0.00    +0.000 HD
ENDBRANCH  31  32
ENDBRANCH  30  31
ENDBRANCH  29  30
ENDBRANCH  28  29
ENDBRANCH   6  28
TORSDOF 11
ENDMDL
