MODEL 1
REMARK VINA RESULT:      -9.4      0.000      0.000
REMARK  Name = 
REMARK  5 active torsions:
REMARK  status: ('A' for Active; 'I' for Inactive)
REMARK    1  A    between atoms: C_1  and  C_2
REMARK    2  A    between atoms: C_14  and  C_15
REMARK    3  A    between atoms: C_16  and  C_17
REMARK    4  A    between atoms: C_20  and  C_21
REMARK    5  A    between atoms: N_25  and  C_26
REMARK                            x       y       z     vdW  Elec       q    Type
REMARK                         _______ _______ _______ _____ _____    ______ ____
ROOT
ATOM      1  C   UNL     1       7.505   6.720  18.272  0.00  0.00    +0.000 C 
ATOM      2  C   UNL     1       6.259   6.280  17.518  0.00  0.00    +0.000 C 
ATOM      3  O   UNL     1       6.531   6.071  16.136  0.00  0.00    +0.000 OA
ATOM      4  C   UNL     1       5.684   5.101  15.681  0.00  0.00    +0.000 C 
ATOM      5  O   UNL     1       5.342   4.982  14.517  0.00  0.00    +0.000 OA
ATOM      6  C   UNL     1       5.375   4.146  16.804  0.00  0.00    +0.000 C 
ATOM      7  C   UNL     1       4.016   3.465  16.713  0.00  0.00    +0.000 C 
ATOM      8  C   UNL     1       3.531   2.965  18.082  0.00  0.00    +0.000 C 
ATOM      9  C   UNL     1       2.191   2.205  17.951  0.00  0.00    +0.000 C 
ATOM     10  C   UNL     1       1.506   1.907  19.293  0.00  0.00    +0.000 C 
ATOM     11  C   UNL     1       1.456   3.106  20.235  0.00  0.00    +0.000 C 
ATOM     12  C   UNL     1       2.831   3.742  20.378  0.00  0.00    +0.000 C 
ATOM     13  C   UNL     1       3.330   4.175  18.992  0.00  0.00    +0.000 C 
ATOM     14  C   UNL     1       4.529   5.141  19.098  0.00  0.00    +0.000 C 
ATOM     15  C   UNL     1       5.657   4.969  18.053  0.00  0.00    +0.000 C 
ENDROOT
BRANCH  14  16
ATOM     16  C   UNL     1       3.899   6.508  19.079  0.00  0.00    +0.000 C 
ATOM     17  C   UNL     1       2.580   6.751  19.059  0.00  0.00    +0.000 C 
BRANCH  17  18
ATOM     18  C   UNL     1       2.058   8.116  18.966  0.00  0.00    +0.000 A 
ATOM     19  C   UNL     1       2.307   8.886  17.843  0.00  0.00    +0.000 A 
ATOM     20  C   UNL     1       1.872  10.211  17.842  0.00  0.00    +0.000 A 
ATOM     21  C   UNL     1       1.201  10.733  18.952  0.00  0.00    +0.000 A 
ATOM     22  C   UNL     1       0.956   9.861  20.000  0.00  0.00    +0.000 A 
ATOM     23  N   UNL     1       1.378   8.582  20.038  0.00  0.00    +0.000 NA
BRANCH  21  24
ATOM     24  C   UNL     1       0.775  12.135  18.973  0.00  0.00    +0.000 A 
ATOM     25  C   UNL     1       1.452  13.249  19.448  0.00  0.00    +0.000 A 
ATOM     26  N   UNL     1       0.715  14.390  19.306  0.00  0.00    +0.000 NA
ATOM     27  C   UNL     1      -0.416  14.003  18.773  0.00  0.00    +0.000 A 
ATOM     28  N   UNL     1      -0.438  12.651  18.561  0.00  0.00    +0.000 N 
ATOM     29  C   UNL     1      -1.594  11.941  18.063  0.00  0.00    +0.000 C 
ENDBRANCH  21  24
ENDBRANCH  17  18
ENDBRANCH  14  16
TORSDOF 3
ENDMDL
MODEL 2
REMARK VINA RESULT:      -9.2      0.599      1.093
REMARK  Name = 
REMARK  5 active torsions:
REMARK  status: ('A' for Active; 'I' for Inactive)
REMARK    1  A    between atoms: C_1  and  C_2
REMARK    2  A    between atoms: C_14  and  C_15
REMARK    3  A    between atoms: C_16  and  C_17
REMARK    4  A    between atoms: C_20  and  C_21
REMARK    5  A    between atoms: N_25  and  C_26
REMARK                            x       y       z     vdW  Elec       q    Type
REMARK                         _______ _______ _______ _____ _____    ______ ____
ROOT
ATOM      1  C   UNL     1       7.534   6.822  18.230  0.00  0.00    +0.000 C 
ATOM      2  C   UNL     1       6.300   6.351  17.476  0.00  0.00    +0.000 C 
ATOM      3  O   UNL     1       6.579   6.145  16.095  0.00  0.00    +0.000 OA
ATOM      4  C   UNL     1       5.756   5.155  15.641  0.00  0.00    +0.000 C 
ATOM      5  O   UNL     1       5.418   5.026  14.477  0.00  0.00    +0.000 OA
ATOM      6  C   UNL     1       5.468   4.196  16.766  0.00  0.00    +0.000 C 
ATOM      7  C   UNL     1       4.125   3.482  16.674  0.00  0.00    +0.000 C 
ATOM      8  C   UNL     1       3.650   2.975  18.044  0.00  0.00    +0.000 C 
ATOM      9  C   UNL     1       2.329   2.183  17.913  0.00  0.00    +0.000 C 
ATOM     10  C   UNL     1       1.649   1.871  19.254  0.00  0.00    +0.000 C 
ATOM     11  C   UNL     1       1.570   3.071  20.193  0.00  0.00    +0.000 C 
ATOM     12  C   UNL     1       2.929   3.740  20.337  0.00  0.00    +0.000 C 
ATOM     13  C   UNL     1       3.419   4.181  18.950  0.00  0.00    +0.000 C 
ATOM     14  C   UNL     1       4.595   5.175  19.057  0.00  0.00    +0.000 C 
ATOM     15  C   UNL     1       5.729   5.028  18.014  0.00  0.00    +0.000 C 
ENDROOT
BRANCH  14  16
ATOM     16  C   UNL     1       3.933   6.527  19.033  0.00  0.00    +0.000 C 
ATOM     17  C   UNL     1       2.609   6.740  19.041  0.00  0.00    +0.000 C 
BRANCH  17  18
ATOM     18  C   UNL     1       2.053   8.091  18.942  0.00  0.00    +0.000 A 
ATOM     19  C   UNL     1       2.225   8.835  17.788  0.00  0.00    +0.000 A 
ATOM     20  C   UNL     1       1.762  10.151  17.777  0.00  0.00    +0.000 A 
ATOM     21  C   UNL     1       1.140  10.688  18.908  0.00  0.00    +0.000 A 
ATOM     22  C   UNL     1       0.970   9.839  19.988  0.00  0.00    +0.000 A 
ATOM     23  N   UNL     1       1.421   8.570  20.036  0.00  0.00    +0.000 NA
BRANCH  21  24
ATOM     24  C   UNL     1       0.685  12.081  18.916  0.00  0.00    +0.000 A 
ATOM     25  C   UNL     1      -0.607  12.580  18.999  0.00  0.00    +0.000 A 
ATOM     26  N   UNL     1      -0.627  13.945  18.962  0.00  0.00    +0.000 NA
ATOM     27  C   UNL     1       0.626  14.304  18.838  0.00  0.00    +0.000 A 
ATOM     28  N   UNL     1       1.460  13.219  18.794  0.00  0.00    +0.000 N 
ATOM     29  C   UNL     1       2.884  13.317  18.575  0.00  0.00    +0.000 C 
ENDBRANCH  21  24
ENDBRANCH  17  18
ENDBRANCH  14  16
TORSDOF 3
ENDMDL
MODEL 3
REMARK VINA RESULT:      -8.7      2.707      4.486
REMARK  Name = 
REMARK  5 active torsions:
REMARK  status: ('A' for Active; 'I' for Inactive)
REMARK    1  A    between atoms: C_1  and  C_2
REMARK    2  A    between atoms: C_14  and  C_15
REMARK    3  A    between atoms: C_16  and  C_17
REMARK    4  A    between atoms: C_20  and  C_21
REMARK    5  A    between atoms: N_25  and  C_26
REMARK                            x       y       z     vdW  Elec       q    Type
REMARK                         _______ _______ _______ _____ _____    ______ ____
ROOT
ATOM      1  C   UNL     1       0.284   2.738  18.511  0.00  0.00    +0.000 C 
ATOM      2  C   UNL     1       1.478   3.283  19.279  0.00  0.00    +0.000 C 
ATOM      3  O   UNL     1       1.799   2.461  20.398  0.00  0.00    +0.000 OA
ATOM      4  C   UNL     1       3.144   2.553  20.617  0.00  0.00    +0.000 C 
ATOM      5  O   UNL     1       3.676   2.354  21.695  0.00  0.00    +0.000 OA
ATOM      6  C   UNL     1       3.845   2.791  19.305  0.00  0.00    +0.000 C 
ATOM      7  C   UNL     1       5.154   3.563  19.407  0.00  0.00    +0.000 C 
ATOM      8  C   UNL     1       5.527   4.237  18.078  0.00  0.00    +0.000 C 
ATOM      9  C   UNL     1       6.898   4.943  18.182  0.00  0.00    +0.000 C 
ATOM     10  C   UNL     1       7.222   5.861  16.993  0.00  0.00    +0.000 C 
ATOM     11  C   UNL     1       6.071   6.782  16.599  0.00  0.00    +0.000 C 
ATOM     12  C   UNL     1       4.779   5.996  16.430  0.00  0.00    +0.000 C 
ATOM     13  C   UNL     1       4.457   5.274  17.747  0.00  0.00    +0.000 C 
ATOM     14  C   UNL     1       2.999   4.766  17.771  0.00  0.00    +0.000 C 
ATOM     15  C   UNL     1       2.754   3.385  18.425  0.00  0.00    +0.000 C 
ENDROOT
BRANCH  14  16
ATOM     16  C   UNL     1       2.234   5.883  18.427  0.00  0.00    +0.000 C 
ATOM     17  C   UNL     1       2.772   6.847  19.188  0.00  0.00    +0.000 C 
BRANCH  17  18
ATOM     18  C   UNL     1       1.938   7.854  19.847  0.00  0.00    +0.000 A 
ATOM     19  C   UNL     1       1.398   8.900  19.119  0.00  0.00    +0.000 A 
ATOM     20  C   UNL     1       0.692   9.887  19.807  0.00  0.00    +0.000 A 
ATOM     21  C   UNL     1       0.539   9.806  21.195  0.00  0.00    +0.000 A 
ATOM     22  C   UNL     1       1.072   8.689  21.816  0.00  0.00    +0.000 A 
ATOM     23  N   UNL     1       1.774   7.729  21.183  0.00  0.00    +0.000 NA
BRANCH  21  24
ATOM     24  C   UNL     1      -0.169  10.858  21.928  0.00  0.00    +0.000 A 
ATOM     25  C   UNL     1      -1.080  10.739  22.968  0.00  0.00    +0.000 A 
ATOM     26  N   UNL     1      -1.537  11.957  23.385  0.00  0.00    +0.000 NA
ATOM     27  C   UNL     1      -0.944  12.829  22.609  0.00  0.00    +0.000 A 
ATOM     28  N   UNL     1      -0.116  12.221  21.705  0.00  0.00    +0.000 N 
ATOM     29  C   UNL     1       0.598  12.934  20.672  0.00  0.00    +0.000 C 
ENDBRANCH  21  24
ENDBRANCH  17  18
ENDBRANCH  14  16
TORSDOF 3
ENDMDL
MODEL 4
REMARK VINA RESULT:      -8.6      2.642      4.465
REMARK  Name = 
REMARK  5 active torsions:
REMARK  status: ('A' for Active; 'I' for Inactive)
REMARK    1  A    between atoms: C_1  and  C_2
REMARK    2  A    between atoms: C_14  and  C_15
REMARK    3  A    between atoms: C_16  and  C_17
REMARK    4  A    between atoms: C_20  and  C_21
REMARK    5  A    between atoms: N_25  and  C_26
REMARK                            x       y       z     vdW  Elec       q    Type
REMARK                         _______ _______ _______ _____ _____    ______ ____
ROOT
ATOM      1  C   UNL     1       0.325   2.811  18.394  0.00  0.00    +0.000 C 
ATOM      2  C   UNL     1       1.511   3.345  19.183  0.00  0.00    +0.000 C 
ATOM      3  O   UNL     1       1.821   2.506  20.291  0.00  0.00    +0.000 OA
ATOM      4  C   UNL     1       3.164   2.597  20.526  0.00  0.00    +0.000 C 
ATOM      5  O   UNL     1       3.686   2.381  21.606  0.00  0.00    +0.000 OA
ATOM      6  C   UNL     1       3.878   2.856  19.225  0.00  0.00    +0.000 C 
ATOM      7  C   UNL     1       5.184   3.629  19.353  0.00  0.00    +0.000 C 
ATOM      8  C   UNL     1       5.570   4.324  18.039  0.00  0.00    +0.000 C 
ATOM      9  C   UNL     1       6.939   5.031  18.168  0.00  0.00    +0.000 C 
ATOM     10  C   UNL     1       7.273   5.968  16.998  0.00  0.00    +0.000 C 
ATOM     11  C   UNL     1       6.125   6.893  16.606  0.00  0.00    +0.000 C 
ATOM     12  C   UNL     1       4.836   6.108  16.412  0.00  0.00    +0.000 C 
ATOM     13  C   UNL     1       4.502   5.365  17.713  0.00  0.00    +0.000 C 
ATOM     14  C   UNL     1       3.045   4.854  17.714  0.00  0.00    +0.000 C 
ATOM     15  C   UNL     1       2.795   3.463  18.344  0.00  0.00    +0.000 C 
ENDROOT
BRANCH  14  16
ATOM     16  C   UNL     1       2.271   5.960  18.380  0.00  0.00    +0.000 C 
ATOM     17  C   UNL     1       2.803   6.925  19.143  0.00  0.00    +0.000 C 
BRANCH  17  18
ATOM     18  C   UNL     1       1.961   7.920  19.812  0.00  0.00    +0.000 A 
ATOM     19  C   UNL     1       1.438   7.663  21.067  0.00  0.00    +0.000 A 
ATOM     20  C   UNL     1       0.564   8.599  21.621  0.00  0.00    +0.000 A 
ATOM     21  C   UNL     1       0.237   9.761  20.917  0.00  0.00    +0.000 A 
ATOM     22  C   UNL     1       0.860   9.944  19.693  0.00  0.00    +0.000 A 
ATOM     23  N   UNL     1       1.694   9.052  19.124  0.00  0.00    +0.000 NA
BRANCH  21  24
ATOM     24  C   UNL     1      -0.709  10.730  21.476  0.00  0.00    +0.000 A 
ATOM     25  C   UNL     1      -1.066  10.942  22.799  0.00  0.00    +0.000 A 
ATOM     26  N   UNL     1      -1.998  11.933  22.922  0.00  0.00    +0.000 NA
ATOM     27  C   UNL     1      -2.244  12.325  21.698  0.00  0.00    +0.000 A 
ATOM     28  N   UNL     1      -1.501  11.626  20.784  0.00  0.00    +0.000 N 
ATOM     29  C   UNL     1      -1.633  11.793  19.355  0.00  0.00    +0.000 C 
ENDBRANCH  21  24
ENDBRANCH  17  18
ENDBRANCH  14  16
TORSDOF 3
ENDMDL
MODEL 5
REMARK VINA RESULT:      -8.6      3.750      9.008
REMARK  Name = 
REMARK  5 active torsions:
REMARK  status: ('A' for Active; 'I' for Inactive)
REMARK    1  A    between atoms: C_1  and  C_2
REMARK    2  A    between atoms: C_14  and  C_15
REMARK    3  A    between atoms: C_16  and  C_17
REMARK    4  A    between atoms: C_20  and  C_21
REMARK    5  A    between atoms: N_25  and  C_26
REMARK                            x       y       z     vdW  Elec       q    Type
REMARK                         _______ _______ _______ _____ _____    ______ ____
ROOT
ATOM      1  C   UNL     1       2.363  13.308  20.028  0.00  0.00    +0.000 C 
ATOM      2  C   UNL     1       1.136  12.573  20.545  0.00  0.00    +0.000 C 
ATOM      3  O   UNL     1       0.776  13.012  21.852  0.00  0.00    +0.000 OA
ATOM      4  C   UNL     1      -0.577  12.881  21.983  0.00  0.00    +0.000 C 
ATOM      5  O   UNL     1      -1.151  12.745  23.050  0.00  0.00    +0.000 OA
ATOM      6  C   UNL     1      -1.227  13.076  20.638  0.00  0.00    +0.000 C 
ATOM      7  C   UNL     1      -2.544  12.334  20.447  0.00  0.00    +0.000 C 
ATOM      8  C   UNL     1      -2.868  12.114  18.962  0.00  0.00    +0.000 C 
ATOM      9  C   UNL     1      -4.247  11.436  18.792  0.00  0.00    +0.000 C 
ATOM     10  C   UNL     1      -4.529  10.939  17.366  0.00  0.00    +0.000 C 
ATOM     11  C   UNL     1      -3.369  10.166  16.746  0.00  0.00    +0.000 C 
ATOM     12  C   UNL     1      -2.066  10.941  16.877  0.00  0.00    +0.000 C 
ATOM     13  C   UNL     1      -1.792  11.212  18.364  0.00  0.00    +0.000 C 
ATOM     14  C   UNL     1      -0.334  11.661  18.596  0.00  0.00    +0.000 C 
ATOM     15  C   UNL     1      -0.105  12.765  19.657  0.00  0.00    +0.000 C 
ENDROOT
BRANCH  14  16
ATOM     16  C   UNL     1       0.398  10.381  18.899  0.00  0.00    +0.000 C 
ATOM     17  C   UNL     1       1.408   9.877  18.174  0.00  0.00    +0.000 C 
BRANCH  17  18
ATOM     18  C   UNL     1       2.013   8.585  18.503  0.00  0.00    +0.000 A 
ATOM     19  C   UNL     1       2.774   7.909  17.565  0.00  0.00    +0.000 A 
ATOM     20  C   UNL     1       3.249   6.639  17.892  0.00  0.00    +0.000 A 
ATOM     21  C   UNL     1       2.957   6.077  19.138  0.00  0.00    +0.000 A 
ATOM     22  C   UNL     1       2.233   6.861  20.022  0.00  0.00    +0.000 A 
ATOM     23  N   UNL     1       1.747   8.083  19.730  0.00  0.00    +0.000 NA
BRANCH  21  24
ATOM     24  C   UNL     1       3.419   4.728  19.474  0.00  0.00    +0.000 A 
ATOM     25  C   UNL     1       4.699   4.198  19.404  0.00  0.00    +0.000 A 
ATOM     26  N   UNL     1       4.729   2.888  19.790  0.00  0.00    +0.000 NA
ATOM     27  C   UNL     1       3.488   2.588  20.079  0.00  0.00    +0.000 A 
ATOM     28  N   UNL     1       2.654   3.658  19.896  0.00  0.00    +0.000 N 
ATOM     29  C   UNL     1       1.220   3.587  20.058  0.00  0.00    +0.000 C 
ENDBRANCH  21  24
ENDBRANCH  17  18
ENDBRANCH  14  16
TORSDOF 3
ENDMDL
MODEL 6
REMARK VINA RESULT:      -8.5      0.833      1.167
REMARK  Name = 
REMARK  5 active torsions:
REMARK  status: ('A' for Active; 'I' for Inactive)
REMARK    1  A    between atoms: C_1  and  C_2
REMARK    2  A    between atoms: C_14  and  C_15
REMARK    3  A    between atoms: C_16  and  C_17
REMARK    4  A    between atoms: C_20  and  C_21
REMARK    5  A    between atoms: N_25  and  C_26
REMARK                            x       y       z     vdW  Elec       q    Type
REMARK                         _______ _______ _______ _____ _____    ______ ____
ROOT
ATOM      1  C   UNL     1       7.628   6.776  18.268  0.00  0.00    +0.000 C 
ATOM      2  C   UNL     1       6.419   6.304  17.474  0.00  0.00    +0.000 C 
ATOM      3  O   UNL     1       6.716   6.194  16.086  0.00  0.00    +0.000 OA
ATOM      4  C   UNL     1       5.936   5.201  15.564  0.00  0.00    +0.000 C 
ATOM      5  O   UNL     1       5.611   5.130  14.392  0.00  0.00    +0.000 OA
ATOM      6  C   UNL     1       5.678   4.164  16.626  0.00  0.00    +0.000 C 
ATOM      7  C   UNL     1       4.365   3.406  16.479  0.00  0.00    +0.000 C 
ATOM      8  C   UNL     1       3.902   2.797  17.810  0.00  0.00    +0.000 C 
ATOM      9  C   UNL     1       2.614   1.963  17.619  0.00  0.00    +0.000 C 
ATOM     10  C   UNL     1       1.937   1.544  18.932  0.00  0.00    +0.000 C 
ATOM     11  C   UNL     1       1.804   2.680  19.942  0.00  0.00    +0.000 C 
ATOM     12  C   UNL     1       3.134   3.391  20.139  0.00  0.00    +0.000 C 
ATOM     13  C   UNL     1       3.616   3.935  18.786  0.00  0.00    +0.000 C 
ATOM     14  C   UNL     1       4.751   4.967  18.964  0.00  0.00    +0.000 C 
ATOM     15  C   UNL     1       5.897   4.928  17.925  0.00  0.00    +0.000 C 
ENDROOT
BRANCH  14  16
ATOM     16  C   UNL     1       4.036   6.290  19.017  0.00  0.00    +0.000 C 
ATOM     17  C   UNL     1       2.858   6.510  19.620  0.00  0.00    +0.000 C 
BRANCH  17  18
ATOM     18  C   UNL     1       2.201   7.817  19.557  0.00  0.00    +0.000 A 
ATOM     19  C   UNL     1       1.523   8.313  20.657  0.00  0.00    +0.000 A 
ATOM     20  C   UNL     1       0.832   9.517  20.519  0.00  0.00    +0.000 A 
ATOM     21  C   UNL     1       0.835  10.193  19.295  0.00  0.00    +0.000 A 
ATOM     22  C   UNL     1       1.590   9.637  18.276  0.00  0.00    +0.000 A 
ATOM     23  N   UNL     1       2.253   8.468  18.374  0.00  0.00    +0.000 NA
BRANCH  21  24
ATOM     24  C   UNL     1       0.080  11.438  19.131  0.00  0.00    +0.000 A 
ATOM     25  C   UNL     1       0.296  12.677  19.716  0.00  0.00    +0.000 A 
ATOM     26  N   UNL     1      -0.637  13.595  19.324  0.00  0.00    +0.000 NA
ATOM     27  C   UNL     1      -1.442  12.943  18.523  0.00  0.00    +0.000 A 
ATOM     28  N   UNL     1      -1.063  11.636  18.379  0.00  0.00    +0.000 N 
ATOM     29  C   UNL     1      -1.819  10.665  17.622  0.00  0.00    +0.000 C 
ENDBRANCH  21  24
ENDBRANCH  17  18
ENDBRANCH  14  16
TORSDOF 3
ENDMDL
MODEL 7
REMARK VINA RESULT:      -8.5      2.622      4.369
REMARK  Name = 
REMARK  5 active torsions:
REMARK  status: ('A' for Active; 'I' for Inactive)
REMARK    1  A    between atoms: C_1  and  C_2
REMARK    2  A    between atoms: C_14  and  C_15
REMARK    3  A    between atoms: C_16  and  C_17
REMARK    4  A    between atoms: C_20  and  C_21
REMARK    5  A    between atoms: N_25  and  C_26
REMARK                            x       y       z     vdW  Elec       q    Type
REMARK                         _______ _______ _______ _____ _____    ______ ____
ROOT
ATOM      1  C   UNL     1       0.344   2.854  18.501  0.00  0.00    +0.000 C 
ATOM      2  C   UNL     1       1.549   3.375  19.271  0.00  0.00    +0.000 C 
ATOM      3  O   UNL     1       1.856   2.542  20.384  0.00  0.00    +0.000 OA
ATOM      4  C   UNL     1       3.203   2.610  20.603  0.00  0.00    +0.000 C 
ATOM      5  O   UNL     1       3.733   2.396  21.679  0.00  0.00    +0.000 OA
ATOM      6  C   UNL     1       3.907   2.842  19.291  0.00  0.00    +0.000 C 
ATOM      7  C   UNL     1       5.229   3.591  19.395  0.00  0.00    +0.000 C 
ATOM      8  C   UNL     1       5.612   4.264  18.069  0.00  0.00    +0.000 C 
ATOM      9  C   UNL     1       6.996   4.947  18.175  0.00  0.00    +0.000 C 
ATOM     10  C   UNL     1       7.334   5.864  16.991  0.00  0.00    +0.000 C 
ATOM     11  C   UNL     1       6.199   6.807  16.602  0.00  0.00    +0.000 C 
ATOM     12  C   UNL     1       4.893   6.044  16.431  0.00  0.00    +0.000 C 
ATOM     13  C   UNL     1       4.560   5.321  17.745  0.00  0.00    +0.000 C 
ATOM     14  C   UNL     1       3.094   4.838  17.767  0.00  0.00    +0.000 C 
ATOM     15  C   UNL     1       2.825   3.459  18.416  0.00  0.00    +0.000 C 
ENDROOT
BRANCH  14  16
ATOM     16  C   UNL     1       2.349   5.966  18.430  0.00  0.00    +0.000 C 
ATOM     17  C   UNL     1       2.512   7.268  18.155  0.00  0.00    +0.000 C 
BRANCH  17  18
ATOM     18  C   UNL     1       1.793   8.302  18.903  0.00  0.00    +0.000 A 
ATOM     19  C   UNL     1       1.249   9.391  18.245  0.00  0.00    +0.000 A 
ATOM     20  C   UNL     1       0.659  10.397  19.011  0.00  0.00    +0.000 A 
ATOM     21  C   UNL     1       0.624  10.292  20.404  0.00  0.00    +0.000 A 
ATOM     22  C   UNL     1       1.149   9.135  20.956  0.00  0.00    +0.000 A 
ATOM     23  N   UNL     1       1.740   8.155  20.245  0.00  0.00    +0.000 NA
BRANCH  21  24
ATOM     24  C   UNL     1       0.040  11.362  21.217  0.00  0.00    +0.000 A 
ATOM     25  C   UNL     1       0.060  12.733  21.004  0.00  0.00    +0.000 A 
ATOM     26  N   UNL     1      -0.586  13.411  21.999  0.00  0.00    +0.000 NA
ATOM     27  C   UNL     1      -0.988  12.488  22.837  0.00  0.00    +0.000 A 
ATOM     28  N   UNL     1      -0.628  11.235  22.420  0.00  0.00    +0.000 N 
ATOM     29  C   UNL     1      -0.866  10.038  23.193  0.00  0.00    +0.000 C 
ENDBRANCH  21  24
ENDBRANCH  17  18
ENDBRANCH  14  16
TORSDOF 3
ENDMDL
MODEL 8
REMARK VINA RESULT:      -8.4      2.641      4.483
REMARK  Name = 
REMARK  5 active torsions:
REMARK  status: ('A' for Active; 'I' for Inactive)
REMARK    1  A    between atoms: C_1  and  C_2
REMARK    2  A    between atoms: C_14  and  C_15
REMARK    3  A    between atoms: C_16  and  C_17
REMARK    4  A    between atoms: C_20  and  C_21
REMARK    5  A    between atoms: N_25  and  C_26
REMARK                            x       y       z     vdW  Elec       q    Type
REMARK                         _______ _______ _______ _____ _____    ______ ____
ROOT
ATOM      1  C   UNL     1       0.302   2.702  18.429  0.00  0.00    +0.000 C 
ATOM      2  C   UNL     1       1.473   3.279  19.209  0.00  0.00    +0.000 C 
ATOM      3  O   UNL     1       1.754   2.509  20.374  0.00  0.00    +0.000 OA
ATOM      4  C   UNL     1       3.091   2.608  20.633  0.00  0.00    +0.000 C 
ATOM      5  O   UNL     1       3.588   2.457  21.736  0.00  0.00    +0.000 OA
ATOM      6  C   UNL     1       3.836   2.781  19.335  0.00  0.00    +0.000 C 
ATOM      7  C   UNL     1       5.144   3.554  19.443  0.00  0.00    +0.000 C 
ATOM      8  C   UNL     1       5.563   4.164  18.097  0.00  0.00    +0.000 C 
ATOM      9  C   UNL     1       6.933   4.870  18.212  0.00  0.00    +0.000 C 
ATOM     10  C   UNL     1       7.300   5.730  16.994  0.00  0.00    +0.000 C 
ATOM     11  C   UNL     1       6.166   6.635  16.520  0.00  0.00    +0.000 C 
ATOM     12  C   UNL     1       4.877   5.846  16.346  0.00  0.00    +0.000 C 
ATOM     13  C   UNL     1       4.509   5.187  17.684  0.00  0.00    +0.000 C 
ATOM     14  C   UNL     1       3.049   4.685  17.683  0.00  0.00    +0.000 C 
ATOM     15  C   UNL     1       2.776   3.337  18.393  0.00  0.00    +0.000 C 
ENDROOT
BRANCH  14  16
ATOM     16  C   UNL     1       2.268   5.834  18.261  0.00  0.00    +0.000 C 
ATOM     17  C   UNL     1       2.783   7.022  18.609  0.00  0.00    +0.000 C 
BRANCH  17  18
ATOM     18  C   UNL     1       1.957   8.058  19.233  0.00  0.00    +0.000 A 
ATOM     19  C   UNL     1       1.534   7.920  20.544  0.00  0.00    +0.000 A 
ATOM     20  C   UNL     1       0.671   8.885  21.064  0.00  0.00    +0.000 A 
ATOM     21  C   UNL     1       0.254   9.958  20.270  0.00  0.00    +0.000 A 
ATOM     22  C   UNL     1       0.781  10.029  18.991  0.00  0.00    +0.000 A 
ATOM     23  N   UNL     1       1.602   9.105  18.455  0.00  0.00    +0.000 NA
BRANCH  21  24
ATOM     24  C   UNL     1      -0.683  10.953  20.796  0.00  0.00    +0.000 A 
ATOM     25  C   UNL     1      -1.288  12.018  20.143  0.00  0.00    +0.000 A 
ATOM     26  N   UNL     1      -2.093  12.736  20.980  0.00  0.00    +0.000 NA
ATOM     27  C   UNL     1      -1.983  12.151  22.147  0.00  0.00    +0.000 A 
ATOM     28  N   UNL     1      -1.137  11.077  22.095  0.00  0.00    +0.000 N 
ATOM     29  C   UNL     1      -0.764  10.300  23.255  0.00  0.00    +0.000 C 
ENDBRANCH  21  24
ENDBRANCH  17  18
ENDBRANCH  14  16
TORSDOF 3
ENDMDL
MODEL 9
REMARK VINA RESULT:      -8.4      3.740      9.101
REMARK  Name = 
REMARK  5 active torsions:
REMARK  status: ('A' for Active; 'I' for Inactive)
REMARK    1  A    between atoms: C_1  and  C_2
REMARK    2  A    between atoms: C_14  and  C_15
REMARK    3  A    between atoms: C_16  and  C_17
REMARK    4  A    between atoms: C_20  and  C_21
REMARK    5  A    between atoms: N_25  and  C_26
REMARK                            x       y       z     vdW  Elec       q    Type
REMARK                         _______ _______ _______ _____ _____    ______ ____
ROOT
ATOM      1  C   UNL     1       2.396  13.299  19.913  0.00  0.00    +0.000 C 
ATOM      2  C   UNL     1       1.161  12.607  20.470  0.00  0.00    +0.000 C 
ATOM      3  O   UNL     1       0.847  13.073  21.779  0.00  0.00    +0.000 OA
ATOM      4  C   UNL     1      -0.505  12.985  21.946  0.00  0.00    +0.000 C 
ATOM      5  O   UNL     1      -1.056  12.880  23.028  0.00  0.00    +0.000 OA
ATOM      6  C   UNL     1      -1.183  13.183  20.615  0.00  0.00    +0.000 C 
ATOM      7  C   UNL     1      -2.526  12.479  20.467  0.00  0.00    +0.000 C 
ATOM      8  C   UNL     1      -2.894  12.250  18.993  0.00  0.00    +0.000 C 
ATOM      9  C   UNL     1      -4.296  11.611  18.866  0.00  0.00    +0.000 C 
ATOM     10  C   UNL     1      -4.628  11.106  17.455  0.00  0.00    +0.000 C 
ATOM     11  C   UNL     1      -3.508  10.290  16.816  0.00  0.00    +0.000 C 
ATOM     12  C   UNL     1      -2.180  11.028  16.904  0.00  0.00    +0.000 C 
ATOM     13  C   UNL     1      -1.861  11.308  18.380  0.00  0.00    +0.000 C 
ATOM     14  C   UNL     1      -0.384  11.716  18.570  0.00  0.00    +0.000 C 
ATOM     15  C   UNL     1      -0.096  12.825  19.610  0.00  0.00    +0.000 C 
ENDROOT
BRANCH  14  16
ATOM     16  C   UNL     1       0.317  10.418  18.871  0.00  0.00    +0.000 C 
ATOM     17  C   UNL     1       1.368   9.932  18.196  0.00  0.00    +0.000 C 
BRANCH  17  18
ATOM     18  C   UNL     1       1.940   8.622  18.515  0.00  0.00    +0.000 A 
ATOM     19  C   UNL     1       2.640   7.912  17.555  0.00  0.00    +0.000 A 
ATOM     20  C   UNL     1       3.082   6.628  17.877  0.00  0.00    +0.000 A 
ATOM     21  C   UNL     1       2.821   6.089  19.139  0.00  0.00    +0.000 A 
ATOM     22  C   UNL     1       2.161   6.906  20.042  0.00  0.00    +0.000 A 
ATOM     23  N   UNL     1       1.706   8.142  19.757  0.00  0.00    +0.000 NA
BRANCH  21  24
ATOM     24  C   UNL     1       3.249   4.728  19.471  0.00  0.00    +0.000 A 
ATOM     25  C   UNL     1       2.505   3.677  19.990  0.00  0.00    +0.000 A 
ATOM     26  N   UNL     1       3.267   2.560  20.178  0.00  0.00    +0.000 NA
ATOM     27  C   UNL     1       4.475   2.902  19.806  0.00  0.00    +0.000 A 
ATOM     28  N   UNL     1       4.524   4.202  19.381  0.00  0.00    +0.000 N 
ATOM     29  C   UNL     1       5.745   4.869  18.995  0.00  0.00    +0.000 C 
ENDBRANCH  21  24
ENDBRANCH  17  18
ENDBRANCH  14  16
TORSDOF 3
ENDMDL
