MODEL 1
REMARK VINA RESULT:      -5.9      0.000      0.000
REMARK  Name = 
REMARK  7 active torsions:
REMARK  status: ('A' for Active; 'I' for Inactive)
REMARK    1  A    between atoms: C_1  and  C_2
REMARK    2  A    between atoms: C_2  and  N_3
REMARK    3  A    between atoms: N_3  and  C_4
REMARK    4  A    between atoms: N_3  and  S_11
REMARK    5  A    between atoms: C_4  and  C_5
REMARK    6  A    between atoms: S_11  and  C_14
REMARK    7  A    between atoms: C_22  and  C_24
REMARK                            x       y       z     vdW  Elec       q    Type
REMARK                         _______ _______ _______ _____ _____    ______ ____
ROOT
ATOM      1  C   UNL     1      -4.202  13.008  21.281  0.00  0.00    +0.000 A 
ATOM      2  C   UNL     1      -3.903  12.524  19.974  0.00  0.00    +0.000 A 
ATOM      3  C   UNL     1      -4.907  12.096  19.104  0.00  0.00    +0.000 A 
ATOM      4 BR   UNL     1      -4.447  11.254  17.474  0.00  0.00    +0.000 Br
ATOM      5  C   UNL     1      -6.224  12.129  19.505  0.00  0.00    +0.000 A 
ATOM      6  C   UNL     1      -6.501  12.578  20.796  0.00  0.00    +0.000 A 
ATOM      7  C   UNL     1      -5.539  13.117  21.691  0.00  0.00    +0.000 A 
ATOM      8  N   UNL     1      -6.176  13.237  22.986  0.00  0.00    +0.000 N 
ATOM      9  C   UNL     1      -6.540  14.446  23.656  0.00  0.00    +0.000 C 
ATOM     10  O   UNL     1      -7.665  14.569  24.169  0.00  0.00    +0.000 OA
ATOM     11  C   UNL     1      -7.312  12.282  22.919  0.00  0.00    +0.000 C 
ATOM     12  C   UNL     1      -7.808  12.318  21.483  0.00  0.00    +0.000 C 
ENDROOT
BRANCH   1  13
ATOM     13  S   UNL     1      -2.789  12.907  22.374  0.00  0.00    +0.000 S 
ATOM     14  O   UNL     1      -3.110  11.824  23.278  0.00  0.00    +0.000 OA
ATOM     15  O   UNL     1      -2.475  14.241  22.839  0.00  0.00    +0.000 OA
BRANCH  13  16
ATOM     16  N   UNL     1      -1.501  12.411  21.313  0.00  0.00    +0.000 NA
BRANCH  16  18
ATOM     17  C   UNL     1      -0.574  14.032  19.570  0.00  0.00    +0.000 C 
ATOM     18  C   UNL     1      -0.539  13.508  20.997  0.00  0.00    +0.000 C 
ENDBRANCH  16  18
BRANCH  16  19
ATOM     19  C   UNL     1      -0.947  11.043  21.551  0.00  0.00    +0.000 C 
BRANCH  19  20
ATOM     20  C   UNL     1      -0.423  10.344  20.318  0.00  0.00    +0.000 A 
ATOM     21  C   UNL     1       0.824   9.701  20.343  0.00  0.00    +0.000 A 
ATOM     22  C   UNL     1       1.421   9.272  19.157  0.00  0.00    +0.000 A 
ATOM     23  C   UNL     1       0.772   9.469  17.942  0.00  0.00    +0.000 A 
ATOM     24  C   UNL     1      -0.511  10.008  17.919  0.00  0.00    +0.000 A 
ATOM     25  C   UNL     1      -1.119  10.410  19.105  0.00  0.00    +0.000 A 
ENDBRANCH  19  20
ENDBRANCH  16  19
ENDBRANCH  13  16
ENDBRANCH   1  13
BRANCH   9  26
ATOM     26  C   UNL     1      -5.594  15.577  23.852  0.00  0.00    +0.000 C 
ATOM     27  C   UNL     1      -5.345  16.579  22.715  0.00  0.00    +0.000 C 
ATOM     28  C   UNL     1      -6.191  16.991  23.876  0.00  0.00    +0.000 C 
ENDBRANCH   9  26
TORSDOF 6
ENDMDL
MODEL 2
REMARK VINA RESULT:      -5.9     11.176     13.624
REMARK  Name = 
REMARK  7 active torsions:
REMARK  status: ('A' for Active; 'I' for Inactive)
REMARK    1  A    between atoms: C_1  and  C_2
REMARK    2  A    between atoms: C_2  and  N_3
REMARK    3  A    between atoms: N_3  and  C_4
REMARK    4  A    between atoms: N_3  and  S_11
REMARK    5  A    between atoms: C_4  and  C_5
REMARK    6  A    between atoms: S_11  and  C_14
REMARK    7  A    between atoms: C_22  and  C_24
REMARK                            x       y       z     vdW  Elec       q    Type
REMARK                         _______ _______ _______ _____ _____    ______ ____
ROOT
ATOM      1  C   UNL     1       9.737  14.247  21.329  0.00  0.00    +0.000 A 
ATOM      2  C   UNL     1      10.760  15.232  21.209  0.00  0.00    +0.000 A 
ATOM      3  C   UNL     1      10.537  16.568  21.546  0.00  0.00    +0.000 A 
ATOM      4 BR   UNL     1      11.849  17.873  21.156  0.00  0.00    +0.000 Br
ATOM      5  C   UNL     1       9.298  16.963  22.001  0.00  0.00    +0.000 A 
ATOM      6  C   UNL     1       8.296  15.996  22.087  0.00  0.00    +0.000 A 
ATOM      7  C   UNL     1       8.487  14.608  21.854  0.00  0.00    +0.000 A 
ATOM      8  N   UNL     1       7.175  13.995  21.812  0.00  0.00    +0.000 N 
ATOM      9  C   UNL     1       6.610  13.106  22.778  0.00  0.00    +0.000 C 
ATOM     10  O   UNL     1       5.453  13.278  23.193  0.00  0.00    +0.000 OA
ATOM     11  C   UNL     1       6.259  15.123  21.501  0.00  0.00    +0.000 C 
ATOM     12  C   UNL     1       6.842  16.341  22.198  0.00  0.00    +0.000 C 
ENDROOT
BRANCH   1  13
ATOM     13  S   UNL     1      10.054  12.820  20.299  0.00  0.00    +0.000 S 
ATOM     14  O   UNL     1       8.750  12.232  20.087  0.00  0.00    +0.000 OA
ATOM     15  O   UNL     1      11.157  12.079  20.874  0.00  0.00    +0.000 OA
BRANCH  13  16
ATOM     16  N   UNL     1      10.621  13.522  18.811  0.00  0.00    +0.000 NA
BRANCH  16  18
ATOM     17  C   UNL     1      12.217  13.232  16.837  0.00  0.00    +0.000 C 
ATOM     18  C   UNL     1      11.817  12.828  18.247  0.00  0.00    +0.000 C 
ENDBRANCH  16  18
BRANCH  16  19
ATOM     19  C   UNL     1       9.563  13.978  17.857  0.00  0.00    +0.000 C 
BRANCH  19  20
ATOM     20  C   UNL     1       9.278  15.461  17.884  0.00  0.00    +0.000 A 
ATOM     21  C   UNL     1      10.288  16.384  17.573  0.00  0.00    +0.000 A 
ATOM     22  C   UNL     1      10.108  17.743  17.832  0.00  0.00    +0.000 A 
ATOM     23  C   UNL     1       8.914  18.192  18.388  0.00  0.00    +0.000 A 
ATOM     24  C   UNL     1       7.867  17.299  18.599  0.00  0.00    +0.000 A 
ATOM     25  C   UNL     1       8.037  15.946  18.315  0.00  0.00    +0.000 A 
ENDBRANCH  19  20
ENDBRANCH  16  19
ENDBRANCH  13  16
ENDBRANCH   1  13
BRANCH   9  26
ATOM     26  C   UNL     1       7.322  11.898  23.277  0.00  0.00    +0.000 C 
ATOM     27  C   UNL     1       8.402  12.033  24.360  0.00  0.00    +0.000 C 
ATOM     28  C   UNL     1       7.062  11.487  24.733  0.00  0.00    +0.000 C 
ENDBRANCH   9  26
TORSDOF 6
ENDMDL
MODEL 3
REMARK VINA RESULT:      -5.7      1.727      2.304
REMARK  Name = 
REMARK  7 active torsions:
REMARK  status: ('A' for Active; 'I' for Inactive)
REMARK    1  A    between atoms: C_1  and  C_2
REMARK    2  A    between atoms: C_2  and  N_3
REMARK    3  A    between atoms: N_3  and  C_4
REMARK    4  A    between atoms: N_3  and  S_11
REMARK    5  A    between atoms: C_4  and  C_5
REMARK    6  A    between atoms: S_11  and  C_14
REMARK    7  A    between atoms: C_22  and  C_24
REMARK                            x       y       z     vdW  Elec       q    Type
REMARK                         _______ _______ _______ _____ _____    ______ ____
ROOT
ATOM      1  C   UNL     1      -2.474  12.510  20.371  0.00  0.00    +0.000 A 
ATOM      2  C   UNL     1      -2.146  11.781  19.190  0.00  0.00    +0.000 A 
ATOM      3  C   UNL     1      -3.123  11.394  18.272  0.00  0.00    +0.000 A 
ATOM      4 BR   UNL     1      -2.672  10.238  16.844  0.00  0.00    +0.000 Br
ATOM      5  C   UNL     1      -4.444  11.710  18.501  0.00  0.00    +0.000 A 
ATOM      6  C   UNL     1      -4.756  12.399  19.673  0.00  0.00    +0.000 A 
ATOM      7  C   UNL     1      -3.801  12.904  20.595  0.00  0.00    +0.000 A 
ATOM      8  N   UNL     1      -4.527  13.334  21.772  0.00  0.00    +0.000 N 
ATOM      9  C   UNL     1      -4.724  14.677  22.218  0.00  0.00    +0.000 C 
ATOM     10  O   UNL     1      -5.851  15.067  22.566  0.00  0.00    +0.000 OA
ATOM     11  C   UNL     1      -5.807  12.584  21.701  0.00  0.00    +0.000 C 
ATOM     12  C   UNL     1      -6.148  12.474  20.224  0.00  0.00    +0.000 C 
ENDROOT
BRANCH   1  13
ATOM     13  S   UNL     1      -1.215  12.348  21.632  0.00  0.00    +0.000 S 
ATOM     14  O   UNL     1      -1.806  11.472  22.620  0.00  0.00    +0.000 OA
ATOM     15  O   UNL     1      -0.724  13.669  21.958  0.00  0.00    +0.000 OA
BRANCH  13  16
ATOM     16  N   UNL     1       0.066  11.507  20.808  0.00  0.00    +0.000 NA
BRANCH  16  18
ATOM     17  C   UNL     1       1.684  13.057  19.580  0.00  0.00    +0.000 C 
ATOM     18  C   UNL     1       1.365  12.244  20.824  0.00  0.00    +0.000 C 
ENDBRANCH  16  18
BRANCH  16  19
ATOM     19  C   UNL     1       0.103  10.024  20.994  0.00  0.00    +0.000 C 
BRANCH  19  20
ATOM     20  C   UNL     1       0.997   9.282  20.029  0.00  0.00    +0.000 A 
ATOM     21  C   UNL     1       1.053   9.660  18.679  0.00  0.00    +0.000 A 
ATOM     22  C   UNL     1       1.677   8.838  17.740  0.00  0.00    +0.000 A 
ATOM     23  C   UNL     1       2.262   7.642  18.144  0.00  0.00    +0.000 A 
ATOM     24  C   UNL     1       2.305   7.311  19.495  0.00  0.00    +0.000 A 
ATOM     25  C   UNL     1       1.707   8.145  20.436  0.00  0.00    +0.000 A 
ENDBRANCH  19  20
ENDBRANCH  16  19
ENDBRANCH  13  16
ENDBRANCH   1  13
BRANCH   9  26
ATOM     26  C   UNL     1      -3.609  15.651  22.368  0.00  0.00    +0.000 C 
ATOM     27  C   UNL     1      -3.157  16.496  21.168  0.00  0.00    +0.000 C 
ATOM     28  C   UNL     1      -3.962  17.140  22.250  0.00  0.00    +0.000 C 
ENDBRANCH   9  26
TORSDOF 6
ENDMDL
MODEL 4
REMARK VINA RESULT:      -5.7      1.736      2.042
REMARK  Name = 
REMARK  7 active torsions:
REMARK  status: ('A' for Active; 'I' for Inactive)
REMARK    1  A    between atoms: C_1  and  C_2
REMARK    2  A    between atoms: C_2  and  N_3
REMARK    3  A    between atoms: N_3  and  C_4
REMARK    4  A    between atoms: N_3  and  S_11
REMARK    5  A    between atoms: C_4  and  C_5
REMARK    6  A    between atoms: S_11  and  C_14
REMARK    7  A    between atoms: C_22  and  C_24
REMARK                            x       y       z     vdW  Elec       q    Type
REMARK                         _______ _______ _______ _____ _____    ______ ____
ROOT
ATOM      1  C   UNL     1      -3.542  12.576  19.835  0.00  0.00    +0.000 A 
ATOM      2  C   UNL     1      -2.786  11.869  18.856  0.00  0.00    +0.000 A 
ATOM      3  C   UNL     1      -3.397  11.034  17.919  0.00  0.00    +0.000 A 
ATOM      4 BR   UNL     1      -2.338   9.946  16.792  0.00  0.00    +0.000 Br
ATOM      5  C   UNL     1      -4.765  10.873  17.932  0.00  0.00    +0.000 A 
ATOM      6  C   UNL     1      -5.491  11.548  18.912  0.00  0.00    +0.000 A 
ATOM      7  C   UNL     1      -4.942  12.485  19.828  0.00  0.00    +0.000 A 
ATOM      8  N   UNL     1      -5.963  12.771  20.815  0.00  0.00    +0.000 N 
ATOM      9  C   UNL     1      -6.682  13.995  20.978  0.00  0.00    +0.000 C 
ATOM     10  O   UNL     1      -7.916  13.989  21.117  0.00  0.00    +0.000 OA
ATOM     11  C   UNL     1      -6.878  11.603  20.737  0.00  0.00    +0.000 C 
ATOM     12  C   UNL     1      -6.898  11.182  19.277  0.00  0.00    +0.000 C 
ENDROOT
BRANCH   1  13
ATOM     13  S   UNL     1      -2.543  13.053  21.240  0.00  0.00    +0.000 S 
ATOM     14  O   UNL     1      -2.892  12.100  22.270  0.00  0.00    +0.000 OA
ATOM     15  O   UNL     1      -2.672  14.483  21.428  0.00  0.00    +0.000 OA
BRANCH  13  16
ATOM     16  N   UNL     1      -0.919  12.747  20.695  0.00  0.00    +0.000 NA
BRANCH  16  18
ATOM     17  C   UNL     1      -0.033  14.191  18.783  0.00  0.00    +0.000 C 
ATOM     18  C   UNL     1      -0.190  13.982  20.281  0.00  0.00    +0.000 C 
ENDBRANCH  16  18
BRANCH  16  19
ATOM     19  C   UNL     1      -0.158  11.708  21.456  0.00  0.00    +0.000 C 
BRANCH  19  20
ATOM     20  C   UNL     1       0.335  10.545  20.627  0.00  0.00    +0.000 A 
ATOM     21  C   UNL     1       0.720   9.346  21.246  0.00  0.00    +0.000 A 
ATOM     22  C   UNL     1       1.401   8.365  20.524  0.00  0.00    +0.000 A 
ATOM     23  C   UNL     1       1.689   8.568  19.177  0.00  0.00    +0.000 A 
ATOM     24  C   UNL     1       1.216   9.706  18.530  0.00  0.00    +0.000 A 
ATOM     25  C   UNL     1       0.512  10.672  19.244  0.00  0.00    +0.000 A 
ENDBRANCH  19  20
ENDBRANCH  16  19
ENDBRANCH  13  16
ENDBRANCH   1  13
BRANCH   9  26
ATOM     26  C   UNL     1      -6.010  15.320  21.073  0.00  0.00    +0.000 C 
ATOM     27  C   UNL     1      -5.775  16.156  19.806  0.00  0.00    +0.000 C 
ATOM     28  C   UNL     1      -6.860  16.557  20.753  0.00  0.00    +0.000 C 
ENDBRANCH   9  26
TORSDOF 6
ENDMDL
MODEL 5
REMARK VINA RESULT:      -5.7      3.101      4.744
REMARK  Name = 
REMARK  7 active torsions:
REMARK  status: ('A' for Active; 'I' for Inactive)
REMARK    1  A    between atoms: C_1  and  C_2
REMARK    2  A    between atoms: C_2  and  N_3
REMARK    3  A    between atoms: N_3  and  C_4
REMARK    4  A    between atoms: N_3  and  S_11
REMARK    5  A    between atoms: C_4  and  C_5
REMARK    6  A    between atoms: S_11  and  C_14
REMARK    7  A    between atoms: C_22  and  C_24
REMARK                            x       y       z     vdW  Elec       q    Type
REMARK                         _______ _______ _______ _____ _____    ______ ____
ROOT
ATOM      1  C   UNL     1      -0.567  12.252  19.708  0.00  0.00    +0.000 A 
ATOM      2  C   UNL     1      -1.192  11.804  18.508  0.00  0.00    +0.000 A 
ATOM      3  C   UNL     1      -2.581  11.760  18.376  0.00  0.00    +0.000 A 
ATOM      4 BR   UNL     1      -3.360  10.948  16.856  0.00  0.00    +0.000 Br
ATOM      5  C   UNL     1      -3.382  12.149  19.427  0.00  0.00    +0.000 A 
ATOM      6  C   UNL     1      -2.759  12.558  20.606  0.00  0.00    +0.000 A 
ATOM      7  C   UNL     1      -1.357  12.718  20.769  0.00  0.00    +0.000 A 
ATOM      8  N   UNL     1      -1.109  12.920  22.181  0.00  0.00    +0.000 N 
ATOM      9  C   UNL     1      -0.678  14.127  22.814  0.00  0.00    +0.000 C 
ATOM     10  O   UNL     1      -1.241  14.537  23.842  0.00  0.00    +0.000 OA
ATOM     11  C   UNL     1      -2.311  12.351  22.844  0.00  0.00    +0.000 C 
ATOM     12  C   UNL     1      -3.479  12.643  21.918  0.00  0.00    +0.000 C 
ENDROOT
BRANCH   1  13
ATOM     13  S   UNL     1       1.113  11.654  19.854  0.00  0.00    +0.000 S 
ATOM     14  O   UNL     1       1.564  12.157  21.132  0.00  0.00    +0.000 OA
ATOM     15  O   UNL     1       1.808  11.939  18.617  0.00  0.00    +0.000 OA
BRANCH  13  16
ATOM     16  N   UNL     1       0.913   9.928  19.950  0.00  0.00    +0.000 NA
BRANCH  16  18
ATOM     17  C   UNL     1       0.139   9.325  22.310  0.00  0.00    +0.000 C 
ATOM     18  C   UNL     1      -0.210   9.511  20.842  0.00  0.00    +0.000 C 
ENDBRANCH  16  18
BRANCH  16  19
ATOM     19  C   UNL     1       1.109   9.173  18.675  0.00  0.00    +0.000 C 
BRANCH  19  20
ATOM     20  C   UNL     1       2.162   8.091  18.730  0.00  0.00    +0.000 A 
ATOM     21  C   UNL     1       3.093   7.954  17.689  0.00  0.00    +0.000 A 
ATOM     22  C   UNL     1       3.902   6.819  17.610  0.00  0.00    +0.000 A 
ATOM     23  C   UNL     1       3.798   5.823  18.577  0.00  0.00    +0.000 A 
ATOM     24  C   UNL     1       2.956   6.002  19.670  0.00  0.00    +0.000 A 
ATOM     25  C   UNL     1       2.169   7.147  19.764  0.00  0.00    +0.000 A 
ENDBRANCH  19  20
ENDBRANCH  16  19
ENDBRANCH  13  16
ENDBRANCH   1  13
BRANCH   9  26
ATOM     26  C   UNL     1       0.497  14.910  22.344  0.00  0.00    +0.000 C 
ATOM     27  C   UNL     1       0.341  15.918  21.195  0.00  0.00    +0.000 C 
ATOM     28  C   UNL     1       0.472  16.424  22.595  0.00  0.00    +0.000 C 
ENDBRANCH   9  26
TORSDOF 6
ENDMDL
MODEL 6
REMARK VINA RESULT:      -5.6      2.435      6.330
REMARK  Name = 
REMARK  7 active torsions:
REMARK  status: ('A' for Active; 'I' for Inactive)
REMARK    1  A    between atoms: C_1  and  C_2
REMARK    2  A    between atoms: C_2  and  N_3
REMARK    3  A    between atoms: N_3  and  C_4
REMARK    4  A    between atoms: N_3  and  S_11
REMARK    5  A    between atoms: C_4  and  C_5
REMARK    6  A    between atoms: S_11  and  C_14
REMARK    7  A    between atoms: C_22  and  C_24
REMARK                            x       y       z     vdW  Elec       q    Type
REMARK                         _______ _______ _______ _____ _____    ______ ____
ROOT
ATOM      1  C   UNL     1      -3.526  13.631  20.737  0.00  0.00    +0.000 A 
ATOM      2  C   UNL     1      -4.913  13.901  20.543  0.00  0.00    +0.000 A 
ATOM      3  C   UNL     1      -5.687  13.158  19.652  0.00  0.00    +0.000 A 
ATOM      4 BR   UNL     1      -7.458  13.697  19.262  0.00  0.00    +0.000 Br
ATOM      5  C   UNL     1      -5.111  12.137  18.927  0.00  0.00    +0.000 A 
ATOM      6  C   UNL     1      -3.748  11.902  19.104  0.00  0.00    +0.000 A 
ATOM      7  C   UNL     1      -2.929  12.555  20.063  0.00  0.00    +0.000 A 
ATOM      8  N   UNL     1      -1.556  12.206  19.766  0.00  0.00    +0.000 N 
ATOM      9  C   UNL     1      -0.695  11.369  20.541  0.00  0.00    +0.000 C 
ATOM     10  O   UNL     1      -0.024  10.477  19.996  0.00  0.00    +0.000 OA
ATOM     11  C   UNL     1      -1.590  11.789  18.340  0.00  0.00    +0.000 C 
ATOM     12  C   UNL     1      -2.930  11.103  18.135  0.00  0.00    +0.000 C 
ENDROOT
BRANCH   1  13
ATOM     13  S   UNL     1      -2.656  15.041  21.413  0.00  0.00    +0.000 S 
ATOM     14  O   UNL     1      -3.466  16.178  21.038  0.00  0.00    +0.000 OA
ATOM     15  O   UNL     1      -1.259  14.929  21.053  0.00  0.00    +0.000 OA
BRANCH  13  16
ATOM     16  N   UNL     1      -2.771  14.791  23.131  0.00  0.00    +0.000 NA
BRANCH  16  18
ATOM     17  C   UNL     1      -1.294  15.459  25.106  0.00  0.00    +0.000 C 
ATOM     18  C   UNL     1      -1.442  14.688  23.805  0.00  0.00    +0.000 C 
ENDBRANCH  16  18
BRANCH  16  19
ATOM     19  C   UNL     1      -3.853  15.549  23.832  0.00  0.00    +0.000 C 
BRANCH  19  20
ATOM     20  C   UNL     1      -5.163  14.809  23.971  0.00  0.00    +0.000 A 
ATOM     21  C   UNL     1      -5.177  13.415  24.125  0.00  0.00    +0.000 A 
ATOM     22  C   UNL     1      -6.371  12.702  24.007  0.00  0.00    +0.000 A 
ATOM     23  C   UNL     1      -7.560  13.379  23.748  0.00  0.00    +0.000 A 
ATOM     24  C   UNL     1      -7.572  14.770  23.701  0.00  0.00    +0.000 A 
ATOM     25  C   UNL     1      -6.384  15.482  23.847  0.00  0.00    +0.000 A 
ENDBRANCH  19  20
ENDBRANCH  16  19
ENDBRANCH  13  16
ENDBRANCH   1  13
BRANCH   9  26
ATOM     26  C   UNL     1      -0.486  11.558  22.002  0.00  0.00    +0.000 C 
ATOM     27  C   UNL     1      -1.613  11.223  22.990  0.00  0.00    +0.000 C 
ATOM     28  C   UNL     1      -0.449  10.293  22.871  0.00  0.00    +0.000 C 
ENDBRANCH   9  26
TORSDOF 6
ENDMDL
MODEL 7
REMARK VINA RESULT:      -5.5      4.126      6.169
REMARK  Name = 
REMARK  7 active torsions:
REMARK  status: ('A' for Active; 'I' for Inactive)
REMARK    1  A    between atoms: C_1  and  C_2
REMARK    2  A    between atoms: C_2  and  N_3
REMARK    3  A    between atoms: N_3  and  C_4
REMARK    4  A    between atoms: N_3  and  S_11
REMARK    5  A    between atoms: C_4  and  C_5
REMARK    6  A    between atoms: S_11  and  C_14
REMARK    7  A    between atoms: C_22  and  C_24
REMARK                            x       y       z     vdW  Elec       q    Type
REMARK                         _______ _______ _______ _____ _____    ______ ____
ROOT
ATOM      1  C   UNL     1      -0.473  11.229  18.824  0.00  0.00    +0.000 A 
ATOM      2  C   UNL     1      -1.692  10.945  18.142  0.00  0.00    +0.000 A 
ATOM      3  C   UNL     1      -2.905  11.509  18.539  0.00  0.00    +0.000 A 
ATOM      4 BR   UNL     1      -4.521  10.928  17.749  0.00  0.00    +0.000 Br
ATOM      5  C   UNL     1      -2.944  12.360  19.622  0.00  0.00    +0.000 A 
ATOM      6  C   UNL     1      -1.750  12.608  20.299  0.00  0.00    +0.000 A 
ATOM      7  C   UNL     1      -0.472  12.145  19.887  0.00  0.00    +0.000 A 
ATOM      8  N   UNL     1       0.451  12.411  20.971  0.00  0.00    +0.000 N 
ATOM      9  C   UNL     1       1.509  13.372  20.982  0.00  0.00    +0.000 C 
ATOM     10  O   UNL     1       1.662  14.131  21.953  0.00  0.00    +0.000 OA
ATOM     11  C   UNL     1      -0.421  12.540  22.166  0.00  0.00    +0.000 C 
ATOM     12  C   UNL     1      -1.706  13.191  21.680  0.00  0.00    +0.000 C 
ENDROOT
BRANCH   1  13
ATOM     13  S   UNL     1       0.765   9.969  18.542  0.00  0.00    +0.000 S 
ATOM     14  O   UNL     1       1.960  10.709  18.202  0.00  0.00    +0.000 OA
ATOM     15  O   UNL     1       0.199   8.962  17.670  0.00  0.00    +0.000 OA
BRANCH  13  16
ATOM     16  N   UNL     1       0.960   9.245  20.113  0.00  0.00    +0.000 NA
BRANCH  16  18
ATOM     17  C   UNL     1      -0.408   8.910  22.244  0.00  0.00    +0.000 C 
ATOM     18  C   UNL     1      -0.329   8.812  20.729  0.00  0.00    +0.000 C 
ENDBRANCH  16  18
BRANCH  16  19
ATOM     19  C   UNL     1       2.149   8.354  20.280  0.00  0.00    +0.000 C 
BRANCH  19  20
ATOM     20  C   UNL     1       1.949   6.931  19.814  0.00  0.00    +0.000 A 
ATOM     21  C   UNL     1       1.449   5.960  20.694  0.00  0.00    +0.000 A 
ATOM     22  C   UNL     1       1.493   4.607  20.354  0.00  0.00    +0.000 A 
ATOM     23  C   UNL     1       2.023   4.217  19.128  0.00  0.00    +0.000 A 
ATOM     24  C   UNL     1       2.422   5.180  18.205  0.00  0.00    +0.000 A 
ATOM     25  C   UNL     1       2.352   6.531  18.534  0.00  0.00    +0.000 A 
ENDBRANCH  19  20
ENDBRANCH  16  19
ENDBRANCH  13  16
ENDBRANCH   1  13
BRANCH   9  26
ATOM     26  C   UNL     1       2.522  13.471  19.896  0.00  0.00    +0.000 C 
ATOM     27  C   UNL     1       2.289  14.417  18.709  0.00  0.00    +0.000 C 
ATOM     28  C   UNL     1       3.275  14.802  19.763  0.00  0.00    +0.000 C 
ENDBRANCH   9  26
TORSDOF 6
ENDMDL
MODEL 8
REMARK VINA RESULT:      -5.5      9.257     13.431
REMARK  Name = 
REMARK  7 active torsions:
REMARK  status: ('A' for Active; 'I' for Inactive)
REMARK    1  A    between atoms: C_1  and  C_2
REMARK    2  A    between atoms: C_2  and  N_3
REMARK    3  A    between atoms: N_3  and  C_4
REMARK    4  A    between atoms: N_3  and  S_11
REMARK    5  A    between atoms: C_4  and  C_5
REMARK    6  A    between atoms: S_11  and  C_14
REMARK    7  A    between atoms: C_22  and  C_24
REMARK                            x       y       z     vdW  Elec       q    Type
REMARK                         _______ _______ _______ _____ _____    ______ ____
ROOT
ATOM      1  C   UNL     1       8.183  14.338  19.828  0.00  0.00    +0.000 A 
ATOM      2  C   UNL     1       7.664  14.136  21.141  0.00  0.00    +0.000 A 
ATOM      3  C   UNL     1       8.099  13.084  21.948  0.00  0.00    +0.000 A 
ATOM      4 BR   UNL     1       7.221  12.724  23.584  0.00  0.00    +0.000 Br
ATOM      5  C   UNL     1       9.049  12.205  21.477  0.00  0.00    +0.000 A 
ATOM      6  C   UNL     1       9.528  12.396  20.182  0.00  0.00    +0.000 A 
ATOM      7  C   UNL     1       9.200  13.499  19.349  0.00  0.00    +0.000 A 
ATOM      8  N   UNL     1       9.705  13.203  18.025  0.00  0.00    +0.000 N 
ATOM      9  C   UNL     1      10.796  13.842  17.358  0.00  0.00    +0.000 C 
ATOM     10  O   UNL     1      11.670  13.168  16.789  0.00  0.00    +0.000 OA
ATOM     11  C   UNL     1       9.844  11.724  18.013  0.00  0.00    +0.000 C 
ATOM     12  C   UNL     1      10.258  11.330  19.421  0.00  0.00    +0.000 C 
ENDROOT
BRANCH   1  13
ATOM     13  S   UNL     1       7.078  15.311  18.811  0.00  0.00    +0.000 S 
ATOM     14  O   UNL     1       6.478  14.351  17.912  0.00  0.00    +0.000 OA
ATOM     15  O   UNL     1       7.799  16.473  18.339  0.00  0.00    +0.000 OA
BRANCH  13  16
ATOM     16  N   UNL     1       5.882  15.868  19.945  0.00  0.00    +0.000 NA
BRANCH  16  18
ATOM     17  C   UNL     1       5.785  17.649  21.775  0.00  0.00    +0.000 C 
ATOM     18  C   UNL     1       6.042  17.306  20.316  0.00  0.00    +0.000 C 
ENDBRANCH  16  18
BRANCH  16  19
ATOM     19  C   UNL     1       4.494  15.350  19.741  0.00  0.00    +0.000 C 
BRANCH  19  20
ATOM     20  C   UNL     1       3.560  16.295  19.022  0.00  0.00    +0.000 A 
ATOM     21  C   UNL     1       2.530  16.942  19.720  0.00  0.00    +0.000 A 
ATOM     22  C   UNL     1       1.521  17.615  19.029  0.00  0.00    +0.000 A 
ATOM     23  C   UNL     1       1.544  17.659  17.638  0.00  0.00    +0.000 A 
ATOM     24  C   UNL     1       2.619  17.113  16.943  0.00  0.00    +0.000 A 
ATOM     25  C   UNL     1       3.640  16.466  17.634  0.00  0.00    +0.000 A 
ENDBRANCH  19  20
ENDBRANCH  16  19
ENDBRANCH  13  16
ENDBRANCH   1  13
BRANCH   9  26
ATOM     26  C   UNL     1      10.912  15.321  17.234  0.00  0.00    +0.000 C 
ATOM     27  C   UNL     1      11.498  16.147  18.389  0.00  0.00    +0.000 C 
ATOM     28  C   UNL     1      12.330  15.906  17.171  0.00  0.00    +0.000 C 
ENDBRANCH   9  26
TORSDOF 6
ENDMDL
MODEL 9
REMARK VINA RESULT:      -5.5      2.547      4.272
REMARK  Name = 
REMARK  7 active torsions:
REMARK  status: ('A' for Active; 'I' for Inactive)
REMARK    1  A    between atoms: C_1  and  C_2
REMARK    2  A    between atoms: C_2  and  N_3
REMARK    3  A    between atoms: N_3  and  C_4
REMARK    4  A    between atoms: N_3  and  S_11
REMARK    5  A    between atoms: C_4  and  C_5
REMARK    6  A    between atoms: S_11  and  C_14
REMARK    7  A    between atoms: C_22  and  C_24
REMARK                            x       y       z     vdW  Elec       q    Type
REMARK                         _______ _______ _______ _____ _____    ______ ____
ROOT
ATOM      1  C   UNL     1      -2.525  11.881  18.842  0.00  0.00    +0.000 A 
ATOM      2  C   UNL     1      -2.319  11.291  17.562  0.00  0.00    +0.000 A 
ATOM      3  C   UNL     1      -3.375  11.068  16.678  0.00  0.00    +0.000 A 
ATOM      4 BR   UNL     1      -3.087  10.079  15.091  0.00  0.00    +0.000 Br
ATOM      5  C   UNL     1      -4.659  11.415  17.040  0.00  0.00    +0.000 A 
ATOM      6  C   UNL     1      -4.852  11.965  18.307  0.00  0.00    +0.000 A 
ATOM      7  C   UNL     1      -3.810  12.307  19.210  0.00  0.00    +0.000 A 
ATOM      8  N   UNL     1      -4.429  12.619  20.482  0.00  0.00    +0.000 N 
ATOM      9  C   UNL     1      -4.521  13.905  21.100  0.00  0.00    +0.000 C 
ATOM     10  O   UNL     1      -5.598  14.300  21.575  0.00  0.00    +0.000 OA
ATOM     11  C   UNL     1      -5.751  11.945  20.415  0.00  0.00    +0.000 C 
ATOM     12  C   UNL     1      -6.197  12.036  18.965  0.00  0.00    +0.000 C 
ENDROOT
BRANCH   1  13
ATOM     13  S   UNL     1      -1.194  11.504  19.978  0.00  0.00    +0.000 S 
ATOM     14  O   UNL     1      -0.804  10.154  19.639  0.00  0.00    +0.000 OA
ATOM     15  O   UNL     1      -1.612  11.881  21.311  0.00  0.00    +0.000 OA
BRANCH  13  16
ATOM     16  N   UNL     1       0.063  12.607  19.496  0.00  0.00    +0.000 NA
BRANCH  16  18
ATOM     17  C   UNL     1       2.266  12.720  18.207  0.00  0.00    +0.000 C 
ATOM     18  C   UNL     1       1.331  11.923  19.102  0.00  0.00    +0.000 C 
ENDBRANCH  16  18
BRANCH  16  19
ATOM     19  C   UNL     1      -0.375  13.787  18.690  0.00  0.00    +0.000 C 
BRANCH  19  20
ATOM     20  C   UNL     1      -0.066  15.131  19.307  0.00  0.00    +0.000 A 
ATOM     21  C   UNL     1       0.316  15.222  20.654  0.00  0.00    +0.000 A 
ATOM     22  C   UNL     1       0.362  16.462  21.294  0.00  0.00    +0.000 A 
ATOM     23  C   UNL     1       0.042  17.619  20.589  0.00  0.00    +0.000 A 
ATOM     24  C   UNL     1      -0.232  17.549  19.227  0.00  0.00    +0.000 A 
ATOM     25  C   UNL     1      -0.251  16.314  18.582  0.00  0.00    +0.000 A 
ENDBRANCH  19  20
ENDBRANCH  16  19
ENDBRANCH  13  16
ENDBRANCH   1  13
BRANCH   9  26
ATOM     26  C   UNL     1      -3.346  14.799  21.284  0.00  0.00    +0.000 C 
ATOM     27  C   UNL     1      -3.356  16.216  20.693  0.00  0.00    +0.000 C 
ATOM     28  C   UNL     1      -3.545  16.040  22.165  0.00  0.00    +0.000 C 
ENDBRANCH   9  26
TORSDOF 6
ENDMDL
