MODEL 1
REMARK VINA RESULT:      -7.3      0.000      0.000
REMARK  Name = 
REMARK  4 active torsions:
REMARK  status: ('A' for Active; 'I' for Inactive)
REMARK    1  A    between atoms: C_1  and  C_2
REMARK    2  A    between atoms: C_2  and  O_3
REMARK    3  A    between atoms: C_6  and  N_7
REMARK    4  A    between atoms: C_15  and  O_16
REMARK                            x       y       z     vdW  Elec       q    Type
REMARK                         _______ _______ _______ _____ _____    ______ ____
ROOT
ATOM      1  C   UNL     1       6.668   4.440  14.796  0.00  0.00    +0.000 C 
ATOM      2  C   UNL     1       6.417   5.350  16.002  0.00  0.00    +0.000 C 
ATOM      3  C   UNL     1       5.240   6.288  15.732  0.00  0.00    +0.000 C 
ATOM      4  S   UNL     1       4.636   6.780  17.359  0.00  0.00    +0.000 S 
ATOM      5  C   UNL     1       5.074   5.199  18.163  0.00  0.00    +0.000 C 
ATOM      6  C   UNL     1       6.129   4.500  17.266  0.00  0.00    +0.000 C 
ENDROOT
BRANCH   5   7
ATOM      7  N   UNL     1       3.880   4.352  18.374  0.00  0.00    +0.000 N 
ATOM      8  C   UNL     1       2.693   4.616  17.719  0.00  0.00    +0.000 A 
ATOM      9  C   UNL     1       1.640   3.812  17.825  0.00  0.00    +0.000 A 
ATOM     10  C   UNL     1       1.826   2.625  18.674  0.00  0.00    +0.000 A 
ATOM     11  N   UNL     1       0.788   1.750  18.827  0.00  0.00    +0.000 N 
ATOM     12  N   UNL     1       2.931   2.369  19.300  0.00  0.00    +0.000 NA
ATOM     13  C   UNL     1       4.014   3.208  19.174  0.00  0.00    +0.000 A 
ATOM     14  O   UNL     1       5.071   2.939  19.741  0.00  0.00    +0.000 OA
ATOM     15  H   UNL     1      -0.152   2.117  18.759  0.00  0.00    +0.000 HD
ATOM     16  H   UNL     1       0.928   1.116  19.608  0.00  0.00    +0.000 HD
ENDBRANCH   5   7
BRANCH   2  17
ATOM     17  O   UNL     1       7.614   6.119  16.233  0.00  0.00    +0.000 OA
ATOM     18  H   UNL     1       7.895   6.506  15.384  0.00  0.00    +0.000 HD
ENDBRANCH   2  17
BRANCH   6  19
ATOM     19  O   UNL     1       7.365   4.288  17.975  0.00  0.00    +0.000 OA
ATOM     20  H   UNL     1       7.107   3.832  18.806  0.00  0.00    +0.000 HD
ENDBRANCH   6  19
TORSDOF 3
ENDMDL
MODEL 2
REMARK VINA RESULT:      -6.9      2.639      5.210
REMARK  Name = 
REMARK  4 active torsions:
REMARK  status: ('A' for Active; 'I' for Inactive)
REMARK    1  A    between atoms: C_1  and  C_2
REMARK    2  A    between atoms: C_2  and  O_3
REMARK    3  A    between atoms: C_6  and  N_7
REMARK    4  A    between atoms: C_15  and  O_16
REMARK                            x       y       z     vdW  Elec       q    Type
REMARK                         _______ _______ _______ _____ _____    ______ ____
ROOT
ATOM      1  C   UNL     1       1.071   3.785  18.697  0.00  0.00    +0.000 C 
ATOM      2  C   UNL     1       2.346   3.594  19.524  0.00  0.00    +0.000 C 
ATOM      3  C   UNL     1       2.974   2.230  19.236  0.00  0.00    +0.000 C 
ATOM      4  S   UNL     1       4.711   2.396  19.694  0.00  0.00    +0.000 S 
ATOM      5  C   UNL     1       4.814   4.163  19.244  0.00  0.00    +0.000 C 
ATOM      6  C   UNL     1       3.366   4.717  19.208  0.00  0.00    +0.000 C 
ENDROOT
BRANCH   5   7
ATOM      7  N   UNL     1       5.511   4.351  17.954  0.00  0.00    +0.000 N 
ATOM      8  C   UNL     1       4.827   4.281  16.756  0.00  0.00    +0.000 A 
ATOM      9  C   UNL     1       5.418   4.540  15.594  0.00  0.00    +0.000 A 
ATOM     10  C   UNL     1       6.839   4.914  15.669  0.00  0.00    +0.000 A 
ATOM     11  N   UNL     1       7.511   5.199  14.516  0.00  0.00    +0.000 N 
ATOM     12  N   UNL     1       7.494   4.977  16.784  0.00  0.00    +0.000 NA
ATOM     13  C   UNL     1       6.866   4.713  17.980  0.00  0.00    +0.000 A 
ATOM     14  O   UNL     1       7.486   4.811  19.037  0.00  0.00    +0.000 OA
ATOM     15  H   UNL     1       7.207   4.741  13.666  0.00  0.00    +0.000 HD
ATOM     16  H   UNL     1       8.518   5.200  14.645  0.00  0.00    +0.000 HD
ENDBRANCH   5   7
BRANCH   2  17
ATOM     17  O   UNL     1       1.987   3.683  20.917  0.00  0.00    +0.000 OA
ATOM     18  H   UNL     1       2.186   4.587  21.225  0.00  0.00    +0.000 HD
ENDBRANCH   2  17
BRANCH   6  19
ATOM     19  O   UNL     1       3.188   5.788  20.155  0.00  0.00    +0.000 OA
ATOM     20  H   UNL     1       2.578   5.428  20.835  0.00  0.00    +0.000 HD
ENDBRANCH   6  19
TORSDOF 3
ENDMDL
MODEL 3
REMARK VINA RESULT:      -6.9      1.452      1.599
REMARK  Name = 
REMARK  4 active torsions:
REMARK  status: ('A' for Active; 'I' for Inactive)
REMARK    1  A    between atoms: C_1  and  C_2
REMARK    2  A    between atoms: C_2  and  O_3
REMARK    3  A    between atoms: C_6  and  N_7
REMARK    4  A    between atoms: C_15  and  O_16
REMARK                            x       y       z     vdW  Elec       q    Type
REMARK                         _______ _______ _______ _____ _____    ______ ____
ROOT
ATOM      1  C   UNL     1       5.284   6.490  15.263  0.00  0.00    +0.000 C 
ATOM      2  C   UNL     1       6.067   5.753  16.353  0.00  0.00    +0.000 C 
ATOM      3  C   UNL     1       6.153   6.603  17.621  0.00  0.00    +0.000 C 
ATOM      4  S   UNL     1       6.458   5.436  18.961  0.00  0.00    +0.000 S 
ATOM      5  C   UNL     1       5.513   4.076  18.191  0.00  0.00    +0.000 C 
ATOM      6  C   UNL     1       5.390   4.397  16.678  0.00  0.00    +0.000 C 
ENDROOT
BRANCH   5   7
ATOM      7  N   UNL     1       4.190   3.908  18.830  0.00  0.00    +0.000 N 
ATOM      8  C   UNL     1       3.094   4.632  18.403  0.00  0.00    +0.000 A 
ATOM      9  C   UNL     1       1.879   4.426  18.902  0.00  0.00    +0.000 A 
ATOM     10  C   UNL     1       1.780   3.375  19.927  0.00  0.00    +0.000 A 
ATOM     11  N   UNL     1       0.562   3.104  20.482  0.00  0.00    +0.000 N 
ATOM     12  N   UNL     1       2.800   2.694  20.342  0.00  0.00    +0.000 NA
ATOM     13  C   UNL     1       4.050   2.914  19.809  0.00  0.00    +0.000 A 
ATOM     14  O   UNL     1       5.006   2.237  20.182  0.00  0.00    +0.000 OA
ATOM     15  H   UNL     1      -0.109   3.859  20.540  0.00  0.00    +0.000 HD
ATOM     16  H   UNL     1       0.638   2.555  21.333  0.00  0.00    +0.000 HD
ENDBRANCH   5   7
BRANCH   2  17
ATOM     17  O   UNL     1       7.391   5.492  15.848  0.00  0.00    +0.000 OA
ATOM     18  H   UNL     1       7.305   5.008  15.006  0.00  0.00    +0.000 HD
ENDBRANCH   2  17
BRANCH   6  19
ATOM     19  O   UNL     1       5.996   3.369  15.871  0.00  0.00    +0.000 OA
ATOM     20  H   UNL     1       6.616   3.845  15.276  0.00  0.00    +0.000 HD
ENDBRANCH   6  19
TORSDOF 3
ENDMDL
MODEL 4
REMARK VINA RESULT:      -6.8      1.133      1.169
REMARK  Name = 
REMARK  4 active torsions:
REMARK  status: ('A' for Active; 'I' for Inactive)
REMARK    1  A    between atoms: C_1  and  C_2
REMARK    2  A    between atoms: C_2  and  O_3
REMARK    3  A    between atoms: C_6  and  N_7
REMARK    4  A    between atoms: C_15  and  O_16
REMARK                            x       y       z     vdW  Elec       q    Type
REMARK                         _______ _______ _______ _____ _____    ______ ____
ROOT
ATOM      1  C   UNL     1       6.769   4.550  14.809  0.00  0.00    +0.000 C 
ATOM      2  C   UNL     1       6.434   5.415  16.028  0.00  0.00    +0.000 C 
ATOM      3  C   UNL     1       5.256   6.341  15.723  0.00  0.00    +0.000 C 
ATOM      4  S   UNL     1       4.554   6.768  17.328  0.00  0.00    +0.000 S 
ATOM      5  C   UNL     1       4.977   5.169  18.105  0.00  0.00    +0.000 C 
ATOM      6  C   UNL     1       6.093   4.519  17.246  0.00  0.00    +0.000 C 
ENDROOT
BRANCH   5   7
ATOM      7  N   UNL     1       3.790   4.296  18.222  0.00  0.00    +0.000 N 
ATOM      8  C   UNL     1       3.594   3.237  17.357  0.00  0.00    +0.000 A 
ATOM      9  C   UNL     1       2.584   2.386  17.506  0.00  0.00    +0.000 A 
ATOM     10  C   UNL     1       1.699   2.641  18.654  0.00  0.00    +0.000 A 
ATOM     11  N   UNL     1       0.641   1.806  18.874  0.00  0.00    +0.000 N 
ATOM     12  N   UNL     1       1.866   3.634  19.468  0.00  0.00    +0.000 NA
ATOM     13  C   UNL     1       2.922   4.501  19.304  0.00  0.00    +0.000 A 
ATOM     14  O   UNL     1       3.095   5.420  20.103  0.00  0.00    +0.000 OA
ATOM     15  H   UNL     1       0.225   1.350  18.071  0.00  0.00    +0.000 HD
ATOM     16  H   UNL     1      -0.035   2.199  19.521  0.00  0.00    +0.000 HD
ENDBRANCH   5   7
BRANCH   2  17
ATOM     17  O   UNL     1       7.601   6.197  16.350  0.00  0.00    +0.000 OA
ATOM     18  H   UNL     1       8.274   5.599  16.723  0.00  0.00    +0.000 HD
ENDBRANCH   2  17
BRANCH   6  19
ATOM     19  O   UNL     1       7.292   4.305  18.016  0.00  0.00    +0.000 OA
ATOM     20  H   UNL     1       7.843   5.101  17.856  0.00  0.00    +0.000 HD
ENDBRANCH   6  19
TORSDOF 3
ENDMDL
MODEL 5
REMARK VINA RESULT:      -6.7      2.755      5.431
REMARK  Name = 
REMARK  4 active torsions:
REMARK  status: ('A' for Active; 'I' for Inactive)
REMARK    1  A    between atoms: C_1  and  C_2
REMARK    2  A    between atoms: C_2  and  O_3
REMARK    3  A    between atoms: C_6  and  N_7
REMARK    4  A    between atoms: C_15  and  O_16
REMARK                            x       y       z     vdW  Elec       q    Type
REMARK                         _______ _______ _______ _____ _____    ______ ____
ROOT
ATOM      1  C   UNL     1       2.044   1.708  18.923  0.00  0.00    +0.000 C 
ATOM      2  C   UNL     1       2.053   3.228  19.103  0.00  0.00    +0.000 C 
ATOM      3  C   UNL     1       3.174   3.652  20.053  0.00  0.00    +0.000 C 
ATOM      4  S   UNL     1       3.508   5.380  19.661  0.00  0.00    +0.000 S 
ATOM      5  C   UNL     1       3.098   5.211  17.889  0.00  0.00    +0.000 C 
ATOM      6  C   UNL     1       2.236   3.931  17.733  0.00  0.00    +0.000 C 
ENDROOT
BRANCH   5   7
ATOM      7  N   UNL     1       4.317   5.161  17.055  0.00  0.00    +0.000 N 
ATOM      8  C   UNL     1       4.836   3.957  16.620  0.00  0.00    +0.000 A 
ATOM      9  C   UNL     1       5.876   3.899  15.793  0.00  0.00    +0.000 A 
ATOM     10  C   UNL     1       6.427   5.195  15.368  0.00  0.00    +0.000 A 
ATOM     11  N   UNL     1       7.493   5.214  14.515  0.00  0.00    +0.000 N 
ATOM     12  N   UNL     1       5.955   6.331  15.774  0.00  0.00    +0.000 NA
ATOM     13  C   UNL     1       4.874   6.374  16.624  0.00  0.00    +0.000 A 
ATOM     14  O   UNL     1       4.409   7.457  16.974  0.00  0.00    +0.000 OA
ATOM     15  H   UNL     1       8.138   4.434  14.549  0.00  0.00    +0.000 HD
ATOM     16  H   UNL     1       7.946   6.122  14.481  0.00  0.00    +0.000 HD
ENDBRANCH   5   7
BRANCH   2  17
ATOM     17  O   UNL     1       0.776   3.617  19.648  0.00  0.00    +0.000 OA
ATOM     18  H   UNL     1       0.088   3.065  19.234  0.00  0.00    +0.000 HD
ENDBRANCH   2  17
BRANCH   6  19
ATOM     19  O   UNL     1       0.937   4.234  17.189  0.00  0.00    +0.000 OA
ATOM     20  H   UNL     1       0.489   4.768  17.881  0.00  0.00    +0.000 HD
ENDBRANCH   6  19
TORSDOF 3
ENDMDL
MODEL 6
REMARK VINA RESULT:      -6.6      2.684      5.037
REMARK  Name = 
REMARK  4 active torsions:
REMARK  status: ('A' for Active; 'I' for Inactive)
REMARK    1  A    between atoms: C_1  and  C_2
REMARK    2  A    between atoms: C_2  and  O_3
REMARK    3  A    between atoms: C_6  and  N_7
REMARK    4  A    between atoms: C_15  and  O_16
REMARK                            x       y       z     vdW  Elec       q    Type
REMARK                         _______ _______ _______ _____ _____    ______ ____
ROOT
ATOM      1  C   UNL     1       2.216   6.758  18.579  0.00  0.00    +0.000 C 
ATOM      2  C   UNL     1       2.738   5.336  18.802  0.00  0.00    +0.000 C 
ATOM      3  C   UNL     1       2.155   4.379  17.762  0.00  0.00    +0.000 C 
ATOM      4  S   UNL     1       3.302   2.989  17.693  0.00  0.00    +0.000 S 
ATOM      5  C   UNL     1       4.779   3.997  18.068  0.00  0.00    +0.000 C 
ATOM      6  C   UNL     1       4.286   5.313  18.725  0.00  0.00    +0.000 C 
ENDROOT
BRANCH   5   7
ATOM      7  N   UNL     1       5.581   4.252  16.853  0.00  0.00    +0.000 N 
ATOM      8  C   UNL     1       4.982   4.370  15.613  0.00  0.00    +0.000 A 
ATOM      9  C   UNL     1       5.676   4.692  14.526  0.00  0.00    +0.000 A 
ATOM     10  C   UNL     1       7.115   4.922  14.732  0.00  0.00    +0.000 A 
ATOM     11  N   UNL     1       7.891   5.262  13.662  0.00  0.00    +0.000 N 
ATOM     12  N   UNL     1       7.690   4.809  15.887  0.00  0.00    +0.000 NA
ATOM     13  C   UNL     1       6.956   4.481  17.004  0.00  0.00    +0.000 A 
ATOM     14  O   UNL     1       7.504   4.411  18.102  0.00  0.00    +0.000 OA
ATOM     15  H   UNL     1       7.611   4.924  12.750  0.00  0.00    +0.000 HD
ATOM     16  H   UNL     1       8.883   5.156  13.854  0.00  0.00    +0.000 HD
ENDBRANCH   5   7
BRANCH   2  17
ATOM     17  O   UNL     1       2.342   4.921  20.125  0.00  0.00    +0.000 OA
ATOM     18  H   UNL     1       1.992   5.700  20.595  0.00  0.00    +0.000 HD
ENDBRANCH   2  17
BRANCH   6  19
ATOM     19  O   UNL     1       4.821   5.471  20.053  0.00  0.00    +0.000 OA
ATOM     20  H   UNL     1       5.586   6.077  19.949  0.00  0.00    +0.000 HD
ENDBRANCH   6  19
TORSDOF 3
ENDMDL
MODEL 7
REMARK VINA RESULT:      -6.4      2.806      5.284
REMARK  Name = 
REMARK  4 active torsions:
REMARK  status: ('A' for Active; 'I' for Inactive)
REMARK    1  A    between atoms: C_1  and  C_2
REMARK    2  A    between atoms: C_2  and  O_3
REMARK    3  A    between atoms: C_6  and  N_7
REMARK    4  A    between atoms: C_15  and  O_16
REMARK                            x       y       z     vdW  Elec       q    Type
REMARK                         _______ _______ _______ _____ _____    ______ ____
ROOT
ATOM      1  C   UNL     1       1.206   4.174  17.651  0.00  0.00    +0.000 C 
ATOM      2  C   UNL     1       2.393   4.424  18.585  0.00  0.00    +0.000 C 
ATOM      3  C   UNL     1       3.213   3.146  18.766  0.00  0.00    +0.000 C 
ATOM      4  S   UNL     1       4.853   3.697  19.274  0.00  0.00    +0.000 S 
ATOM      5  C   UNL     1       4.789   5.254  18.321  0.00  0.00    +0.000 C 
ATOM      6  C   UNL     1       3.296   5.549  18.017  0.00  0.00    +0.000 C 
ENDROOT
BRANCH   5   7
ATOM      7  N   UNL     1       5.597   5.164  17.086  0.00  0.00    +0.000 N 
ATOM      8  C   UNL     1       5.158   4.437  15.997  0.00  0.00    +0.000 A 
ATOM      9  C   UNL     1       5.827   4.423  14.848  0.00  0.00    +0.000 A 
ATOM     10  C   UNL     1       7.052   5.236  14.811  0.00  0.00    +0.000 A 
ATOM     11  N   UNL     1       7.789   5.275  13.662  0.00  0.00    +0.000 N 
ATOM     12  N   UNL     1       7.479   5.917  15.827  0.00  0.00    +0.000 NA
ATOM     13  C   UNL     1       6.771   5.927  17.008  0.00  0.00    +0.000 A 
ATOM     14  O   UNL     1       7.164   6.605  17.955  0.00  0.00    +0.000 OA
ATOM     15  H   UNL     1       7.765   4.462  13.059  0.00  0.00    +0.000 HD
ATOM     16  H   UNL     1       8.720   5.650  13.812  0.00  0.00    +0.000 HD
ENDBRANCH   5   7
BRANCH   2  17
ATOM     17  O   UNL     1       1.873   4.856  19.858  0.00  0.00    +0.000 OA
ATOM     18  H   UNL     1       1.549   4.071  20.336  0.00  0.00    +0.000 HD
ENDBRANCH   2  17
BRANCH   6  19
ATOM     19  O   UNL     1       2.883   6.807  18.583  0.00  0.00    +0.000 OA
ATOM     20  H   UNL     1       2.050   7.036  18.115  0.00  0.00    +0.000 HD
ENDBRANCH   6  19
TORSDOF 3
ENDMDL
MODEL 8
REMARK VINA RESULT:      -6.4      2.509      5.415
REMARK  Name = 
REMARK  4 active torsions:
REMARK  status: ('A' for Active; 'I' for Inactive)
REMARK    1  A    between atoms: C_1  and  C_2
REMARK    2  A    between atoms: C_2  and  O_3
REMARK    3  A    between atoms: C_6  and  N_7
REMARK    4  A    between atoms: C_15  and  O_16
REMARK                            x       y       z     vdW  Elec       q    Type
REMARK                         _______ _______ _______ _____ _____    ______ ____
ROOT
ATOM      1  C   UNL     1       2.348   2.398  21.057  0.00  0.00    +0.000 C 
ATOM      2  C   UNL     1       2.283   2.541  19.534  0.00  0.00    +0.000 C 
ATOM      3  C   UNL     1       1.620   3.862  19.145  0.00  0.00    +0.000 C 
ATOM      4  S   UNL     1       2.197   4.214  17.473  0.00  0.00    +0.000 S 
ATOM      5  C   UNL     1       3.828   3.427  17.710  0.00  0.00    +0.000 C 
ATOM      6  C   UNL     1       3.708   2.472  18.927  0.00  0.00    +0.000 C 
ENDROOT
BRANCH   5   7
ATOM      7  N   UNL     1       4.892   4.435  17.901  0.00  0.00    +0.000 N 
ATOM      8  C   UNL     1       5.368   4.741  19.161  0.00  0.00    +0.000 A 
ATOM      9  C   UNL     1       6.387   5.575  19.343  0.00  0.00    +0.000 A 
ATOM     10  C   UNL     1       6.976   6.140  18.119  0.00  0.00    +0.000 A 
ATOM     11  N   UNL     1       8.030   7.001  18.227  0.00  0.00    +0.000 N 
ATOM     12  N   UNL     1       6.536   5.867  16.932  0.00  0.00    +0.000 NA
ATOM     13  C   UNL     1       5.484   4.996  16.760  0.00  0.00    +0.000 A 
ATOM     14  O   UNL     1       5.096   4.714  15.628  0.00  0.00    +0.000 OA
ATOM     15  H   UNL     1       8.094   7.566  19.064  0.00  0.00    +0.000 HD
ATOM     16  H   UNL     1       8.199   7.516  17.368  0.00  0.00    +0.000 HD
ENDBRANCH   5   7
BRANCH   2  17
ATOM     17  O   UNL     1       1.514   1.436  19.017  0.00  0.00    +0.000 OA
ATOM     18  H   UNL     1       2.070   0.636  19.051  0.00  0.00    +0.000 HD
ENDBRANCH   2  17
BRANCH   6  19
ATOM     19  O   UNL     1       3.991   1.109  18.556  0.00  0.00    +0.000 OA
ATOM     20  H   UNL     1       4.616   1.174  17.801  0.00  0.00    +0.000 HD
ENDBRANCH   6  19
TORSDOF 3
ENDMDL
MODEL 9
REMARK VINA RESULT:      -6.4      2.906      5.247
REMARK  Name = 
REMARK  4 active torsions:
REMARK  status: ('A' for Active; 'I' for Inactive)
REMARK    1  A    between atoms: C_1  and  C_2
REMARK    2  A    between atoms: C_2  and  O_3
REMARK    3  A    between atoms: C_6  and  N_7
REMARK    4  A    between atoms: C_15  and  O_16
REMARK                            x       y       z     vdW  Elec       q    Type
REMARK                         _______ _______ _______ _____ _____    ______ ____
ROOT
ATOM      1  C   UNL     1       1.846   4.448  18.502  0.00  0.00    +0.000 C 
ATOM      2  C   UNL     1       3.170   5.070  18.954  0.00  0.00    +0.000 C 
ATOM      3  C   UNL     1       4.173   3.982  19.338  0.00  0.00    +0.000 C 
ATOM      4  S   UNL     1       5.797   4.752  19.186  0.00  0.00    +0.000 S 
ATOM      5  C   UNL     1       5.310   5.854  17.812  0.00  0.00    +0.000 C 
ATOM      6  C   UNL     1       3.762   5.953  17.825  0.00  0.00    +0.000 C 
ENDROOT
BRANCH   5   7
ATOM      7  N   UNL     1       5.822   5.360  16.517  0.00  0.00    +0.000 N 
ATOM      8  C   UNL     1       5.089   4.477  15.749  0.00  0.00    +0.000 A 
ATOM      9  C   UNL     1       5.491   4.097  14.540  0.00  0.00    +0.000 A 
ATOM     10  C   UNL     1       6.757   4.683  14.075  0.00  0.00    +0.000 A 
ATOM     11  N   UNL     1       7.231   4.342  12.840  0.00  0.00    +0.000 N 
ATOM     12  N   UNL     1       7.459   5.506  14.787  0.00  0.00    +0.000 NA
ATOM     13  C   UNL     1       7.025   5.896  16.033  0.00  0.00    +0.000 A 
ATOM     14  O   UNL     1       7.678   6.706  16.688  0.00  0.00    +0.000 OA
ATOM     15  H   UNL     1       6.995   3.426  12.481  0.00  0.00    +0.000 HD
ATOM     16  H   UNL     1       8.207   4.595  12.717  0.00  0.00    +0.000 HD
ENDBRANCH   5   7
BRANCH   2  17
ATOM     17  O   UNL     1       2.898   5.910  20.093  0.00  0.00    +0.000 OA
ATOM     18  H   UNL     1       1.968   5.778  20.353  0.00  0.00    +0.000 HD
ENDBRANCH   2  17
BRANCH   6  19
ATOM     19  O   UNL     1       3.323   7.311  18.017  0.00  0.00    +0.000 OA
ATOM     20  H   UNL     1       2.544   7.245  18.612  0.00  0.00    +0.000 HD
ENDBRANCH   6  19
TORSDOF 3
ENDMDL
