MODEL 1
REMARK VINA RESULT:      -8.4      0.000      0.000
REMARK  Name = 
REMARK  4 active torsions:
REMARK  status: ('A' for Active; 'I' for Inactive)
REMARK    1  A    between atoms: C_2  and  C_3
REMARK    2  A    between atoms: C_4  and  C_5
REMARK    3  A    between atoms: C_12  and  C_13
REMARK    4  A    between atoms: N_19  and  C_20
REMARK                            x       y       z     vdW  Elec       q    Type
REMARK                         _______ _______ _______ _____ _____    ______ ____
ROOT
ATOM      1  C   UNL     1       2.183   6.899  19.611  0.00  0.00    +0.000 A 
ATOM      2  C   UNL     1       2.486   7.677  18.511  0.00  0.00    +0.000 A 
ATOM      3  C   UNL     1       3.361   7.261  17.609  0.00  0.00    +0.000 A 
ATOM      4  C   UNL     1       3.979   6.098  17.727  0.00  0.00    +0.000 A 
ATOM      5  N   UNL     1       3.722   5.273  18.802  0.00  0.00    +0.000 N 
ATOM      6  C   UNL     1       2.808   5.671  19.764  0.00  0.00    +0.000 A 
ATOM      7  S   UNL     1       2.475   4.725  21.036  0.00  0.00    +0.000 S 
ENDROOT
BRANCH   5   8
ATOM      8  C   UNL     1       4.563   3.050  19.508  0.00  0.00    +0.000 C 
ATOM      9  O   UNL     1       4.510   4.136  19.313  0.00  0.00    +0.000 OA
ATOM     10  C   UNL     1       4.510   4.136  19.313  0.00  0.00    +0.000 C 
ATOM     11  C   UNL     1       4.510   4.136  19.313  0.00  0.00    +0.000 C 
ATOM     12  O   UNL     1       4.510   4.136  19.313  0.00  0.00    +0.000 OA
ATOM     13  C   UNL     1       4.510   4.136  19.313  0.00  0.00    +0.000 C 
ATOM     14  O   UNL     1       4.510   4.136  19.313  0.00  0.00    +0.000 OA
ATOM     15  C   UNL     1       4.510   4.136  19.313  0.00  0.00    +0.000 C 
ATOM     16  O   UNL     1       4.510   4.136  19.313  0.00  0.00    +0.000 OA
ENDBRANCH   5   8
BRANCH   2  17
ATOM     17  C   UNL     1       1.807   9.026  18.334  0.00  0.00    +0.000 A 
ATOM     18  C   UNL     1       2.589  10.211  18.266  0.00  0.00    +0.000 A 
ATOM     19  C   UNL     1       1.961  11.461  18.401  0.00  0.00    +0.000 A 
ATOM     20  C   UNL     1       0.666  11.551  18.313  0.00  0.00    +0.000 A 
ATOM     21  C   UNL     1      -0.103  10.404  18.073  0.00  0.00    +0.000 A 
ATOM     22  C   UNL     1       0.481   9.124  18.238  0.00  0.00    +0.000 A 
ENDBRANCH   2  17
BRANCH   4  23
ATOM     23  C   UNL     1       4.981   5.668  16.669  0.00  0.00    +0.000 A 
ATOM     24  C   UNL     1       4.625   4.708  15.683  0.00  0.00    +0.000 A 
ATOM     25  C   UNL     1       5.633   4.107  14.911  0.00  0.00    +0.000 A 
ATOM     26  C   UNL     1       6.832   4.610  14.900  0.00  0.00    +0.000 A 
ATOM     27  C   UNL     1       7.118   5.759  15.650  0.00  0.00    +0.000 A 
ATOM     28  C   UNL     1       6.211   6.185  16.650  0.00  0.00    +0.000 A 
ENDBRANCH   4  23
BRANCH   1  30
ATOM     29  N   UNL     1       0.342   7.786  21.497  0.00  0.00    +0.000 NA
ATOM     30  C   UNL     1       1.177   7.384  20.642  0.00  0.00    +0.000 C 
ENDBRANCH   1  30
TORSDOF 4
ENDMDL
MODEL 2
REMARK VINA RESULT:      -8.4      3.722      6.583
REMARK  Name = 
REMARK  4 active torsions:
REMARK  status: ('A' for Active; 'I' for Inactive)
REMARK    1  A    between atoms: C_2  and  C_3
REMARK    2  A    between atoms: C_4  and  C_5
REMARK    3  A    between atoms: C_12  and  C_13
REMARK    4  A    between atoms: N_19  and  C_20
REMARK                            x       y       z     vdW  Elec       q    Type
REMARK                         _______ _______ _______ _____ _____    ______ ____
ROOT
ATOM      1  C   UNL     1       6.390   4.843  15.211  0.00  0.00    +0.000 A 
ATOM      2  C   UNL     1       5.415   3.992  14.734  0.00  0.00    +0.000 A 
ATOM      3  C   UNL     1       4.441   3.568  15.524  0.00  0.00    +0.000 A 
ATOM      4  C   UNL     1       4.370   3.933  16.793  0.00  0.00    +0.000 A 
ATOM      5  N   UNL     1       5.314   4.782  17.333  0.00  0.00    +0.000 N 
ATOM      6  C   UNL     1       6.343   5.252  16.536  0.00  0.00    +0.000 A 
ATOM      7  S   UNL     1       7.466   6.256  17.133  0.00  0.00    +0.000 S 
ENDROOT
BRANCH   5   8
ATOM      8  C   UNL     1       5.658   5.769  19.581  0.00  0.00    +0.000 C 
ATOM      9  O   UNL     1       5.673   5.058  18.737  0.00  0.00    +0.000 OA
ATOM     10  C   UNL     1       5.673   5.058  18.737  0.00  0.00    +0.000 C 
ATOM     11  C   UNL     1       5.673   5.058  18.737  0.00  0.00    +0.000 C 
ATOM     12  O   UNL     1       5.673   5.058  18.737  0.00  0.00    +0.000 OA
ATOM     13  C   UNL     1       5.673   5.058  18.737  0.00  0.00    +0.000 C 
ATOM     14  O   UNL     1       5.673   5.058  18.737  0.00  0.00    +0.000 OA
ATOM     15  C   UNL     1       5.673   5.058  18.737  0.00  0.00    +0.000 C 
ATOM     16  O   UNL     1       5.673   5.058  18.737  0.00  0.00    +0.000 OA
ENDBRANCH   5   8
BRANCH   2  17
ATOM     17  C   UNL     1       5.456   3.537  13.284  0.00  0.00    +0.000 A 
ATOM     18  C   UNL     1       4.358   3.811  12.422  0.00  0.00    +0.000 A 
ATOM     19  C   UNL     1       4.266   3.143  11.189  0.00  0.00    +0.000 A 
ATOM     20  C   UNL     1       5.294   2.500  10.719  0.00  0.00    +0.000 A 
ATOM     21  C   UNL     1       6.498   2.480  11.437  0.00  0.00    +0.000 A 
ATOM     22  C   UNL     1       6.510   2.882  12.795  0.00  0.00    +0.000 A 
ENDBRANCH   2  17
BRANCH   4  23
ATOM     23  C   UNL     1       3.238   3.413  17.663  0.00  0.00    +0.000 A 
ATOM     24  C   UNL     1       2.106   4.228  17.942  0.00  0.00    +0.000 A 
ATOM     25  C   UNL     1       1.226   3.857  18.972  0.00  0.00    +0.000 A 
ATOM     26  C   UNL     1       1.283   2.659  19.477  0.00  0.00    +0.000 A 
ATOM     27  C   UNL     1       2.215   1.734  18.986  0.00  0.00    +0.000 A 
ATOM     28  C   UNL     1       3.288   2.184  18.178  0.00  0.00    +0.000 A 
ENDBRANCH   4  23
BRANCH   1  30
ATOM     29  N   UNL     1       8.428   5.727  13.537  0.00  0.00    +0.000 NA
ATOM     30  C   UNL     1       7.504   5.326  14.296  0.00  0.00    +0.000 C 
ENDBRANCH   1  30
TORSDOF 4
ENDMDL
MODEL 3
REMARK VINA RESULT:      -8.3      3.786      5.401
REMARK  Name = 
REMARK  4 active torsions:
REMARK  status: ('A' for Active; 'I' for Inactive)
REMARK    1  A    between atoms: C_2  and  C_3
REMARK    2  A    between atoms: C_4  and  C_5
REMARK    3  A    between atoms: C_12  and  C_13
REMARK    4  A    between atoms: N_19  and  C_20
REMARK                            x       y       z     vdW  Elec       q    Type
REMARK                         _______ _______ _______ _____ _____    ______ ____
ROOT
ATOM      1  C   UNL     1       4.353   3.868  17.319  0.00  0.00    +0.000 A 
ATOM      2  C   UNL     1       4.339   4.655  18.454  0.00  0.00    +0.000 A 
ATOM      3  C   UNL     1       5.200   5.650  18.598  0.00  0.00    +0.000 A 
ATOM      4  C   UNL     1       6.105   5.922  17.673  0.00  0.00    +0.000 A 
ATOM      5  N   UNL     1       6.174   5.174  16.516  0.00  0.00    +0.000 N 
ATOM      6  C   UNL     1       5.285   4.129  16.326  0.00  0.00    +0.000 A 
ATOM      7  S   UNL     1       5.331   3.233  14.977  0.00  0.00    +0.000 S 
ENDROOT
BRANCH   5   8
ATOM      8  C   UNL     1       7.622   5.239  14.505  0.00  0.00    +0.000 C 
ATOM      9  O   UNL     1       7.154   4.904  15.447  0.00  0.00    +0.000 OA
ATOM     10  C   UNL     1       7.154   4.904  15.447  0.00  0.00    +0.000 C 
ATOM     11  C   UNL     1       7.154   4.904  15.447  0.00  0.00    +0.000 C 
ATOM     12  O   UNL     1       7.154   4.904  15.447  0.00  0.00    +0.000 OA
ATOM     13  C   UNL     1       7.154   4.904  15.447  0.00  0.00    +0.000 C 
ATOM     14  O   UNL     1       7.154   4.904  15.447  0.00  0.00    +0.000 OA
ATOM     15  C   UNL     1       7.154   4.904  15.447  0.00  0.00    +0.000 C 
ATOM     16  O   UNL     1       7.154   4.904  15.447  0.00  0.00    +0.000 OA
ENDBRANCH   5   8
BRANCH   2  17
ATOM     17  C   UNL     1       3.322   4.378  19.549  0.00  0.00    +0.000 A 
ATOM     18  C   UNL     1       3.504   3.271  20.424  0.00  0.00    +0.000 A 
ATOM     19  C   UNL     1       2.433   2.844  21.227  0.00  0.00    +0.000 A 
ATOM     20  C   UNL     1       1.389   3.604  21.377  0.00  0.00    +0.000 A 
ATOM     21  C   UNL     1       1.334   4.854  20.746  0.00  0.00    +0.000 A 
ATOM     22  C   UNL     1       2.251   5.156  19.711  0.00  0.00    +0.000 A 
ENDBRANCH   2  17
BRANCH   4  23
ATOM     23  C   UNL     1       7.078   7.070  17.887  0.00  0.00    +0.000 A 
ATOM     24  C   UNL     1       8.173   6.933  18.783  0.00  0.00    +0.000 A 
ATOM     25  C   UNL     1       8.876   8.077  19.194  0.00  0.00    +0.000 A 
ATOM     26  C   UNL     1       8.712   9.203  18.563  0.00  0.00    +0.000 A 
ATOM     27  C   UNL     1       7.843   9.272  17.466  0.00  0.00    +0.000 A 
ATOM     28  C   UNL     1       6.918   8.225  17.239  0.00  0.00    +0.000 A 
ENDBRANCH   4  23
BRANCH   1  30
ATOM     29  N   UNL     1       2.536   1.783  17.031  0.00  0.00    +0.000 NA
ATOM     30  C   UNL     1       3.360   2.728  17.162  0.00  0.00    +0.000 C 
ENDBRANCH   1  30
TORSDOF 4
ENDMDL
MODEL 4
REMARK VINA RESULT:      -8.2      5.583      8.232
REMARK  Name = 
REMARK  4 active torsions:
REMARK  status: ('A' for Active; 'I' for Inactive)
REMARK    1  A    between atoms: C_2  and  C_3
REMARK    2  A    between atoms: C_4  and  C_5
REMARK    3  A    between atoms: C_12  and  C_13
REMARK    4  A    between atoms: N_19  and  C_20
REMARK                            x       y       z     vdW  Elec       q    Type
REMARK                         _______ _______ _______ _____ _____    ______ ____
ROOT
ATOM      1  C   UNL     1      -3.292  12.384  19.925  0.00  0.00    +0.000 A 
ATOM      2  C   UNL     1      -2.224  12.394  20.799  0.00  0.00    +0.000 A 
ATOM      3  C   UNL     1      -1.167  11.627  20.585  0.00  0.00    +0.000 A 
ATOM      4  C   UNL     1      -1.096  10.821  19.538  0.00  0.00    +0.000 A 
ATOM      5  N   UNL     1      -2.130  10.762  18.627  0.00  0.00    +0.000 N 
ATOM      6  C   UNL     1      -3.249  11.555  18.813  0.00  0.00    +0.000 A 
ATOM      7  S   UNL     1      -4.480  11.518  17.760  0.00  0.00    +0.000 S 
ENDROOT
BRANCH   5   8
ATOM      8  C   UNL     1      -2.519   9.474  16.544  0.00  0.00    +0.000 C 
ATOM      9  O   UNL     1      -2.660   9.902  17.552  0.00  0.00    +0.000 OA
ATOM     10  C   UNL     1      -2.660   9.902  17.552  0.00  0.00    +0.000 C 
ATOM     11  C   UNL     1      -2.660   9.902  17.552  0.00  0.00    +0.000 C 
ATOM     12  O   UNL     1      -2.660   9.902  17.552  0.00  0.00    +0.000 OA
ATOM     13  C   UNL     1      -2.660   9.902  17.552  0.00  0.00    +0.000 C 
ATOM     14  O   UNL     1      -2.660   9.902  17.552  0.00  0.00    +0.000 OA
ATOM     15  C   UNL     1      -2.660   9.902  17.552  0.00  0.00    +0.000 C 
ATOM     16  O   UNL     1      -2.660   9.902  17.552  0.00  0.00    +0.000 OA
ENDBRANCH   5   8
BRANCH   2  17
ATOM     17  C   UNL     1      -2.261  13.298  22.020  0.00  0.00    +0.000 A 
ATOM     18  C   UNL     1      -2.939  12.875  23.197  0.00  0.00    +0.000 A 
ATOM     19  C   UNL     1      -3.225  13.814  24.203  0.00  0.00    +0.000 A 
ATOM     20  C   UNL     1      -2.646  14.979  24.190  0.00  0.00    +0.000 A 
ATOM     21  C   UNL     1      -1.728  15.296  23.179  0.00  0.00    +0.000 A 
ATOM     22  C   UNL     1      -1.665  14.491  22.015  0.00  0.00    +0.000 A 
ENDBRANCH   2  17
BRANCH   4  23
ATOM     23  C   UNL     1       0.135   9.953  19.340  0.00  0.00    +0.000 A 
ATOM     24  C   UNL     1       0.921  10.070  18.160  0.00  0.00    +0.000 A 
ATOM     25  C   UNL     1       1.863   9.073  17.858  0.00  0.00    +0.000 A 
ATOM     26  C   UNL     1       2.209   8.207  18.764  0.00  0.00    +0.000 A 
ATOM     27  C   UNL     1       1.650   8.275  20.048  0.00  0.00    +0.000 A 
ATOM     28  C   UNL     1       0.498   9.067  20.269  0.00  0.00    +0.000 A 
ENDBRANCH   4  23
BRANCH   1  30
ATOM     29  N   UNL     1      -5.505  14.003  20.388  0.00  0.00    +0.000 NA
ATOM     30  C   UNL     1      -4.502  13.269  20.178  0.00  0.00    +0.000 C 
ENDBRANCH   1  30
TORSDOF 4
ENDMDL
MODEL 5
REMARK VINA RESULT:      -8.1      6.494      9.082
REMARK  Name = 
REMARK  4 active torsions:
REMARK  status: ('A' for Active; 'I' for Inactive)
REMARK    1  A    between atoms: C_2  and  C_3
REMARK    2  A    between atoms: C_4  and  C_5
REMARK    3  A    between atoms: C_12  and  C_13
REMARK    4  A    between atoms: N_19  and  C_20
REMARK                            x       y       z     vdW  Elec       q    Type
REMARK                         _______ _______ _______ _____ _____    ______ ____
ROOT
ATOM      1  C   UNL     1      -4.216  12.374  19.602  0.00  0.00    +0.000 A 
ATOM      2  C   UNL     1      -3.198  12.588  20.508  0.00  0.00    +0.000 A 
ATOM      3  C   UNL     1      -1.950  12.259  20.214  0.00  0.00    +0.000 A 
ATOM      4  C   UNL     1      -1.633  11.708  19.054  0.00  0.00    +0.000 A 
ATOM      5  N   UNL     1      -2.604  11.466  18.104  0.00  0.00    +0.000 N 
ATOM      6  C   UNL     1      -3.920  11.804  18.373  0.00  0.00    +0.000 A 
ATOM      7  S   UNL     1      -5.086  11.542  17.278  0.00  0.00    +0.000 S 
ENDROOT
BRANCH   5   8
ATOM      8  C   UNL     1      -2.579  10.491  15.825  0.00  0.00    +0.000 C 
ATOM      9  O   UNL     1      -2.803  11.158  16.675  0.00  0.00    +0.000 OA
ATOM     10  C   UNL     1      -2.803  11.158  16.675  0.00  0.00    +0.000 C 
ATOM     11  C   UNL     1      -2.803  11.158  16.675  0.00  0.00    +0.000 C 
ATOM     12  O   UNL     1      -2.803  11.158  16.675  0.00  0.00    +0.000 OA
ATOM     13  C   UNL     1      -2.803  11.158  16.675  0.00  0.00    +0.000 C 
ATOM     14  O   UNL     1      -2.803  11.158  16.675  0.00  0.00    +0.000 OA
ATOM     15  C   UNL     1      -2.803  11.158  16.675  0.00  0.00    +0.000 C 
ATOM     16  O   UNL     1      -2.803  11.158  16.675  0.00  0.00    +0.000 OA
ENDBRANCH   5   8
BRANCH   2  17
ATOM     17  C   UNL     1      -3.511  13.212  21.859  0.00  0.00    +0.000 A 
ATOM     18  C   UNL     1      -3.628  14.625  21.978  0.00  0.00    +0.000 A 
ATOM     19  C   UNL     1      -3.619  15.211  23.255  0.00  0.00    +0.000 A 
ATOM     20  C   UNL     1      -3.780  14.471  24.312  0.00  0.00    +0.000 A 
ATOM     21  C   UNL     1      -3.972  13.089  24.179  0.00  0.00    +0.000 A 
ATOM     22  C   UNL     1      -3.682  12.458  22.945  0.00  0.00    +0.000 A 
ENDBRANCH   2  17
BRANCH   4  23
ATOM     23  C   UNL     1      -0.188  11.340  18.766  0.00  0.00    +0.000 A 
ATOM     24  C   UNL     1       0.826  12.338  18.756  0.00  0.00    +0.000 A 
ATOM     25  C   UNL     1       2.081  12.039  18.202  0.00  0.00    +0.000 A 
ATOM     26  C   UNL     1       2.407  10.804  17.955  0.00  0.00    +0.000 A 
ATOM     27  C   UNL     1       1.510   9.769  18.251  0.00  0.00    +0.000 A 
ATOM     28  C   UNL     1       0.153  10.074  18.517  0.00  0.00    +0.000 A 
ENDBRANCH   4  23
BRANCH   1  30
ATOM     29  N   UNL     1      -6.833  13.074  20.234  0.00  0.00    +0.000 NA
ATOM     30  C   UNL     1      -5.646  12.756  19.947  0.00  0.00    +0.000 C 
ENDBRANCH   1  30
TORSDOF 4
ENDMDL
MODEL 6
REMARK VINA RESULT:      -8.1      6.292      8.908
REMARK  Name = 
REMARK  4 active torsions:
REMARK  status: ('A' for Active; 'I' for Inactive)
REMARK    1  A    between atoms: C_2  and  C_3
REMARK    2  A    between atoms: C_4  and  C_5
REMARK    3  A    between atoms: C_12  and  C_13
REMARK    4  A    between atoms: N_19  and  C_20
REMARK                            x       y       z     vdW  Elec       q    Type
REMARK                         _______ _______ _______ _____ _____    ______ ____
ROOT
ATOM      1  C   UNL     1      -4.010  12.376  19.595  0.00  0.00    +0.000 A 
ATOM      2  C   UNL     1      -2.924  12.508  20.438  0.00  0.00    +0.000 A 
ATOM      3  C   UNL     1      -1.723  12.097  20.063  0.00  0.00    +0.000 A 
ATOM      4  C   UNL     1      -1.518  11.542  18.880  0.00  0.00    +0.000 A 
ATOM      5  N   UNL     1      -2.560  11.381  17.990  0.00  0.00    +0.000 N 
ATOM      6  C   UNL     1      -3.830  11.805  18.344  0.00  0.00    +0.000 A 
ATOM      7  S   UNL     1      -5.077  11.639  17.323  0.00  0.00    +0.000 S 
ENDROOT
BRANCH   5   8
ATOM      8  C   UNL     1      -2.745  10.437  15.705  0.00  0.00    +0.000 C 
ATOM      9  O   UNL     1      -2.742  11.155  16.544  0.00  0.00    +0.000 OA
ATOM     10  C   UNL     1      -2.742  11.155  16.544  0.00  0.00    +0.000 C 
ATOM     11  C   UNL     1      -2.742  11.155  16.544  0.00  0.00    +0.000 C 
ATOM     12  O   UNL     1      -2.742  11.155  16.544  0.00  0.00    +0.000 OA
ATOM     13  C   UNL     1      -2.742  11.155  16.544  0.00  0.00    +0.000 C 
ATOM     14  O   UNL     1      -2.742  11.155  16.544  0.00  0.00    +0.000 OA
ATOM     15  C   UNL     1      -2.742  11.155  16.544  0.00  0.00    +0.000 C 
ATOM     16  O   UNL     1      -2.742  11.155  16.544  0.00  0.00    +0.000 OA
ENDBRANCH   5   8
BRANCH   2  17
ATOM     17  C   UNL     1      -3.109  13.133  21.811  0.00  0.00    +0.000 A 
ATOM     18  C   UNL     1      -3.323  12.303  22.946  0.00  0.00    +0.000 A 
ATOM     19  C   UNL     1      -3.785  12.877  24.143  0.00  0.00    +0.000 A 
ATOM     20  C   UNL     1      -3.755  14.168  24.299  0.00  0.00    +0.000 A 
ATOM     21  C   UNL     1      -3.253  14.987  23.279  0.00  0.00    +0.000 A 
ATOM     22  C   UNL     1      -3.075  14.455  21.978  0.00  0.00    +0.000 A 
ENDBRANCH   2  17
BRANCH   4  23
ATOM     23  C   UNL     1      -0.122  11.079  18.498  0.00  0.00    +0.000 A 
ATOM     24  C   UNL     1       0.123   9.718  18.165  0.00  0.00    +0.000 A 
ATOM     25  C   UNL     1       1.446   9.251  18.109  0.00  0.00    +0.000 A 
ATOM     26  C   UNL     1       2.436  10.095  18.089  0.00  0.00    +0.000 A 
ATOM     27  C   UNL     1       2.182  11.473  18.111  0.00  0.00    +0.000 A 
ATOM     28  C   UNL     1       0.895  11.942  18.470  0.00  0.00    +0.000 A 
ENDBRANCH   4  23
BRANCH   1  30
ATOM     29  N   UNL     1      -6.526  13.246  20.397  0.00  0.00    +0.000 NA
ATOM     30  C   UNL     1      -5.385  12.852  20.033  0.00  0.00    +0.000 C 
ENDBRANCH   1  30
TORSDOF 4
ENDMDL
MODEL 7
REMARK VINA RESULT:      -7.9      1.766      2.240
REMARK  Name = 
REMARK  4 active torsions:
REMARK  status: ('A' for Active; 'I' for Inactive)
REMARK    1  A    between atoms: C_2  and  C_3
REMARK    2  A    between atoms: C_4  and  C_5
REMARK    3  A    between atoms: C_12  and  C_13
REMARK    4  A    between atoms: N_19  and  C_20
REMARK                            x       y       z     vdW  Elec       q    Type
REMARK                         _______ _______ _______ _____ _____    ______ ____
ROOT
ATOM      1  C   UNL     1       2.100   5.076  19.209  0.00  0.00    +0.000 A 
ATOM      2  C   UNL     1       2.650   6.132  18.511  0.00  0.00    +0.000 A 
ATOM      3  C   UNL     1       3.607   5.928  17.619  0.00  0.00    +0.000 A 
ATOM      4  C   UNL     1       4.076   4.717  17.370  0.00  0.00    +0.000 A 
ATOM      5  N   UNL     1       3.570   3.618  18.034  0.00  0.00    +0.000 N 
ATOM      6  C   UNL     1       2.563   3.791  18.969  0.00  0.00    +0.000 A 
ATOM      7  S   UNL     1       1.939   2.524  19.763  0.00  0.00    +0.000 S 
ENDROOT
BRANCH   5   8
ATOM      8  C   UNL     1       4.056   1.188  17.964  0.00  0.00    +0.000 C 
ATOM      9  O   UNL     1       3.510   2.148  17.937  0.00  0.00    +0.000 OA
ATOM     10  C   UNL     1       3.510   2.148  17.937  0.00  0.00    +0.000 C 
ATOM     11  C   UNL     1       3.510   2.148  17.937  0.00  0.00    +0.000 C 
ATOM     12  O   UNL     1       3.510   2.148  17.937  0.00  0.00    +0.000 OA
ATOM     13  C   UNL     1       3.510   2.148  17.937  0.00  0.00    +0.000 C 
ATOM     14  O   UNL     1       3.510   2.148  17.937  0.00  0.00    +0.000 OA
ATOM     15  C   UNL     1       3.510   2.148  17.937  0.00  0.00    +0.000 C 
ATOM     16  O   UNL     1       3.510   2.148  17.937  0.00  0.00    +0.000 OA
ENDBRANCH   5   8
BRANCH   2  17
ATOM     17  C   UNL     1       2.150   7.545  18.766  0.00  0.00    +0.000 A 
ATOM     18  C   UNL     1       1.935   7.992  20.099  0.00  0.00    +0.000 A 
ATOM     19  C   UNL     1       1.202   9.170  20.321  0.00  0.00    +0.000 A 
ATOM     20  C   UNL     1       0.961   9.982  19.334  0.00  0.00    +0.000 A 
ATOM     21  C   UNL     1       1.441   9.689  18.050  0.00  0.00    +0.000 A 
ATOM     22  C   UNL     1       1.906   8.384  17.758  0.00  0.00    +0.000 A 
ENDBRANCH   2  17
BRANCH   4  23
ATOM     23  C   UNL     1       5.181   4.534  16.344  0.00  0.00    +0.000 A 
ATOM     24  C   UNL     1       6.546   4.674  16.717  0.00  0.00    +0.000 A 
ATOM     25  C   UNL     1       7.525   4.799  15.717  0.00  0.00    +0.000 A 
ATOM     26  C   UNL     1       7.233   4.519  14.481  0.00  0.00    +0.000 A 
ATOM     27  C   UNL     1       5.943   4.081  14.147  0.00  0.00    +0.000 A 
ATOM     28  C   UNL     1       4.887   4.241  15.075  0.00  0.00    +0.000 A 
ENDBRANCH   4  23
BRANCH   1  30
ATOM     29  N   UNL     1       0.088   5.521  21.077  0.00  0.00    +0.000 NA
ATOM     30  C   UNL     1       1.000   5.319  20.230  0.00  0.00    +0.000 C 
ENDBRANCH   1  30
TORSDOF 4
ENDMDL
MODEL 8
REMARK VINA RESULT:      -7.9      5.793      8.520
REMARK  Name = 
REMARK  4 active torsions:
REMARK  status: ('A' for Active; 'I' for Inactive)
REMARK    1  A    between atoms: C_2  and  C_3
REMARK    2  A    between atoms: C_4  and  C_5
REMARK    3  A    between atoms: C_12  and  C_13
REMARK    4  A    between atoms: N_19  and  C_20
REMARK                            x       y       z     vdW  Elec       q    Type
REMARK                         _______ _______ _______ _____ _____    ______ ____
ROOT
ATOM      1  C   UNL     1      -3.852  12.487  19.666  0.00  0.00    +0.000 A 
ATOM      2  C   UNL     1      -2.819  12.623  20.572  0.00  0.00    +0.000 A 
ATOM      3  C   UNL     1      -1.705  11.920  20.438  0.00  0.00    +0.000 A 
ATOM      4  C   UNL     1      -1.543  11.061  19.446  0.00  0.00    +0.000 A 
ATOM      5  N   UNL     1      -2.537  10.876  18.507  0.00  0.00    +0.000 N 
ATOM      6  C   UNL     1      -3.713  11.599  18.610  0.00  0.00    +0.000 A 
ATOM      7  S   UNL     1      -4.900  11.415  17.522  0.00  0.00    +0.000 S 
ENDROOT
BRANCH   5   8
ATOM      8  C   UNL     1      -2.764   9.444  16.496  0.00  0.00    +0.000 C 
ATOM      9  O   UNL     1      -2.899   9.846  17.516  0.00  0.00    +0.000 OA
ATOM     10  C   UNL     1      -2.899   9.846  17.516  0.00  0.00    +0.000 C 
ATOM     11  C   UNL     1      -2.899   9.846  17.516  0.00  0.00    +0.000 C 
ATOM     12  O   UNL     1      -2.899   9.846  17.516  0.00  0.00    +0.000 OA
ATOM     13  C   UNL     1      -2.899   9.846  17.516  0.00  0.00    +0.000 C 
ATOM     14  O   UNL     1      -2.899   9.846  17.516  0.00  0.00    +0.000 OA
ATOM     15  C   UNL     1      -2.899   9.846  17.516  0.00  0.00    +0.000 C 
ATOM     16  O   UNL     1      -2.899   9.846  17.516  0.00  0.00    +0.000 OA
ENDBRANCH   5   8
BRANCH   2  17
ATOM     17  C   UNL     1      -2.960  13.593  21.734  0.00  0.00    +0.000 A 
ATOM     18  C   UNL     1      -2.589  14.956  21.570  0.00  0.00    +0.000 A 
ATOM     19  C   UNL     1      -2.438  15.771  22.705  0.00  0.00    +0.000 A 
ATOM     20  C   UNL     1      -2.890  15.372  23.857  0.00  0.00    +0.000 A 
ATOM     21  C   UNL     1      -3.539  14.135  23.966  0.00  0.00    +0.000 A 
ATOM     22  C   UNL     1      -3.428  13.191  22.916  0.00  0.00    +0.000 A 
ENDBRANCH   2  17
BRANCH   4  23
ATOM     23  C   UNL     1      -0.250  10.270  19.340  0.00  0.00    +0.000 A 
ATOM     24  C   UNL     1       0.656  10.503  18.268  0.00  0.00    +0.000 A 
ATOM     25  C   UNL     1       1.681   9.577  18.018  0.00  0.00    +0.000 A 
ATOM     26  C   UNL     1       1.972   8.671  18.905  0.00  0.00    +0.000 A 
ATOM     27  C   UNL     1       1.269   8.627  20.118  0.00  0.00    +0.000 A 
ATOM     28  C   UNL     1       0.056   9.345  20.251  0.00  0.00    +0.000 A 
ENDBRANCH   4  23
BRANCH   1  30
ATOM     29  N   UNL     1      -6.184  13.973  19.960  0.00  0.00    +0.000 NA
ATOM     30  C   UNL     1      -5.127  13.299  19.827  0.00  0.00    +0.000 C 
ENDBRANCH   1  30
TORSDOF 4
ENDMDL
MODEL 9
REMARK VINA RESULT:      -7.9      0.878      1.349
REMARK  Name = 
REMARK  4 active torsions:
REMARK  status: ('A' for Active; 'I' for Inactive)
REMARK    1  A    between atoms: C_2  and  C_3
REMARK    2  A    between atoms: C_4  and  C_5
REMARK    3  A    between atoms: C_12  and  C_13
REMARK    4  A    between atoms: N_19  and  C_20
REMARK                            x       y       z     vdW  Elec       q    Type
REMARK                         _______ _______ _______ _____ _____    ______ ____
ROOT
ATOM      1  C   UNL     1       2.197   6.227  19.898  0.00  0.00    +0.000 A 
ATOM      2  C   UNL     1       2.653   7.075  18.909  0.00  0.00    +0.000 A 
ATOM      3  C   UNL     1       3.556   6.666  18.031  0.00  0.00    +0.000 A 
ATOM      4  C   UNL     1       4.057   5.443  18.070  0.00  0.00    +0.000 A 
ATOM      5  N   UNL     1       3.644   4.546  19.034  0.00  0.00    +0.000 N 
ATOM      6  C   UNL     1       2.696   4.935  19.965  0.00  0.00    +0.000 A 
ATOM      7  S   UNL     1       2.180   3.907  21.107  0.00  0.00    +0.000 S 
ENDROOT
BRANCH   5   8
ATOM      8  C   UNL     1       4.225   2.194  19.562  0.00  0.00    +0.000 C 
ATOM      9  O   UNL     1       4.264   3.297  19.513  0.00  0.00    +0.000 OA
ATOM     10  C   UNL     1       4.264   3.297  19.513  0.00  0.00    +0.000 C 
ATOM     11  C   UNL     1       4.264   3.297  19.513  0.00  0.00    +0.000 C 
ATOM     12  O   UNL     1       4.264   3.297  19.513  0.00  0.00    +0.000 OA
ATOM     13  C   UNL     1       4.264   3.297  19.513  0.00  0.00    +0.000 C 
ATOM     14  O   UNL     1       4.264   3.297  19.513  0.00  0.00    +0.000 OA
ATOM     15  C   UNL     1       4.264   3.297  19.513  0.00  0.00    +0.000 C 
ATOM     16  O   UNL     1       4.264   3.297  19.513  0.00  0.00    +0.000 OA
ENDBRANCH   5   8
BRANCH   2  17
ATOM     17  C   UNL     1       2.113   8.494  18.825  0.00  0.00    +0.000 A 
ATOM     18  C   UNL     1       1.506   9.091  19.964  0.00  0.00    +0.000 A 
ATOM     19  C   UNL     1       0.752  10.266  19.807  0.00  0.00    +0.000 A 
ATOM     20  C   UNL     1       0.832  10.947  18.703  0.00  0.00    +0.000 A 
ATOM     21  C   UNL     1       1.678  10.517  17.671  0.00  0.00    +0.000 A 
ATOM     22  C   UNL     1       2.197   9.199  17.697  0.00  0.00    +0.000 A 
ENDBRANCH   2  17
BRANCH   4  23
ATOM     23  C   UNL     1       5.097   5.023  17.046  0.00  0.00    +0.000 A 
ATOM     24  C   UNL     1       6.468   5.350  17.230  0.00  0.00    +0.000 A 
ATOM     25  C   UNL     1       7.358   5.223  16.151  0.00  0.00    +0.000 A 
ATOM     26  C   UNL     1       7.003   4.562  15.088  0.00  0.00    +0.000 A 
ATOM     27  C   UNL     1       5.736   3.968  15.022  0.00  0.00    +0.000 A 
ATOM     28  C   UNL     1       4.739   4.340  15.957  0.00  0.00    +0.000 A 
ENDBRANCH   4  23
BRANCH   1  30
ATOM     29  N   UNL     1       0.299   7.101  21.733  0.00  0.00    +0.000 NA
ATOM     30  C   UNL     1       1.159   6.705  20.901  0.00  0.00    +0.000 C 
ENDBRANCH   1  30
TORSDOF 4
ENDMDL
