MODEL 1
REMARK VINA RESULT:      -6.6      0.000      0.000
REMARK  Name = 
REMARK  3 active torsions:
REMARK  status: ('A' for Active; 'I' for Inactive)
REMARK    1  A    between atoms: C_1  and  C_2
REMARK    2  A    between atoms: C_7  and  N_8
REMARK    3  A    between atoms: N_9  and  C_10
REMARK                            x       y       z     vdW  Elec       q    Type
REMARK                         _______ _______ _______ _____ _____    ______ ____
ROOT
ATOM      1  N   UNL     1       4.768   3.800  18.172  0.00  0.00    +0.000 NA
ATOM      2  N   UNL     1       3.582   4.191  18.093  0.00  0.00    +0.000 NA
ENDROOT
BRANCH   1   9
ATOM      3  C   UNL     1       6.969   5.686  18.903  0.00  0.00    +0.000 C 
ATOM      4  C   UNL     1       6.670   5.244  17.503  0.00  0.00    +0.000 A 
ATOM      5  C   UNL     1       7.468   5.687  16.453  0.00  0.00    +0.000 A 
ATOM      6  N   UNL     1       7.279   5.357  15.157  0.00  0.00    +0.000 NA
ATOM      7  C   UNL     1       6.235   4.551  14.886  0.00  0.00    +0.000 A 
ATOM      8  C   UNL     1       5.377   4.054  15.852  0.00  0.00    +0.000 A 
ATOM      9  C   UNL     1       5.588   4.402  17.191  0.00  0.00    +0.000 A 
ENDBRANCH   1   9
BRANCH   2  10
ATOM     10  C   UNL     1       2.806   3.692  19.160  0.00  0.00    +0.000 A 
ATOM     11  C   UNL     1       3.449   3.072  20.240  0.00  0.00    +0.000 A 
ATOM     12  C   UNL     1       2.720   2.617  21.344  0.00  0.00    +0.000 A 
ATOM     13  C   UNL     1       1.338   2.782  21.380  0.00  0.00    +0.000 A 
ATOM     14  C   UNL     1       0.686   3.398  20.314  0.00  0.00    +0.000 A 
ATOM     15  C   UNL     1       1.416   3.849  19.210  0.00  0.00    +0.000 A 
ENDBRANCH   2  10
TORSDOF 2
ENDMDL
MODEL 2
REMARK VINA RESULT:      -6.5      1.131      1.305
REMARK  Name = 
REMARK  3 active torsions:
REMARK  status: ('A' for Active; 'I' for Inactive)
REMARK    1  A    between atoms: C_1  and  C_2
REMARK    2  A    between atoms: C_7  and  N_8
REMARK    3  A    between atoms: N_9  and  C_10
REMARK                            x       y       z     vdW  Elec       q    Type
REMARK                         _______ _______ _______ _____ _____    ______ ____
ROOT
ATOM      1  N   UNL     1       4.337   3.939  17.379  0.00  0.00    +0.000 NA
ATOM      2  N   UNL     1       3.398   4.753  17.525  0.00  0.00    +0.000 NA
ENDROOT
BRANCH   1   9
ATOM      3  C   UNL     1       6.593   5.505  18.561  0.00  0.00    +0.000 C 
ATOM      4  C   UNL     1       6.480   5.157  17.107  0.00  0.00    +0.000 A 
ATOM      5  C   UNL     1       7.488   5.535  16.226  0.00  0.00    +0.000 A 
ATOM      6  N   UNL     1       7.479   5.281  14.900  0.00  0.00    +0.000 NA
ATOM      7  C   UNL     1       6.407   4.624  14.419  0.00  0.00    +0.000 A 
ATOM      8  C   UNL     1       5.348   4.202  15.204  0.00  0.00    +0.000 A 
ATOM      9  C   UNL     1       5.374   4.470  16.577  0.00  0.00    +0.000 A 
ENDBRANCH   1   9
BRANCH   2  10
ATOM     10  C   UNL     1       2.437   4.267  18.436  0.00  0.00    +0.000 A 
ATOM     11  C   UNL     1       1.759   3.075  18.142  0.00  0.00    +0.000 A 
ATOM     12  C   UNL     1       0.841   2.531  19.047  0.00  0.00    +0.000 A 
ATOM     13  C   UNL     1       0.597   3.170  20.259  0.00  0.00    +0.000 A 
ATOM     14  C   UNL     1       1.264   4.355  20.565  0.00  0.00    +0.000 A 
ATOM     15  C   UNL     1       2.178   4.900  19.658  0.00  0.00    +0.000 A 
ENDBRANCH   2  10
TORSDOF 2
ENDMDL
MODEL 3
REMARK VINA RESULT:      -6.5      0.320      1.281
REMARK  Name = 
REMARK  3 active torsions:
REMARK  status: ('A' for Active; 'I' for Inactive)
REMARK    1  A    between atoms: C_1  and  C_2
REMARK    2  A    between atoms: C_7  and  N_8
REMARK    3  A    between atoms: N_9  and  C_10
REMARK                            x       y       z     vdW  Elec       q    Type
REMARK                         _______ _______ _______ _____ _____    ______ ____
ROOT
ATOM      1  N   UNL     1       4.898   3.955  18.135  0.00  0.00    +0.000 NA
ATOM      2  N   UNL     1       3.669   4.085  17.940  0.00  0.00    +0.000 NA
ENDROOT
BRANCH   1   9
ATOM      3  C   UNL     1       7.436   5.485  18.531  0.00  0.00    +0.000 C 
ATOM      4  C   UNL     1       6.885   5.099  17.192  0.00  0.00    +0.000 A 
ATOM      5  C   UNL     1       7.591   5.420  16.036  0.00  0.00    +0.000 A 
ATOM      6  N   UNL     1       7.180   5.128  14.783  0.00  0.00    +0.000 NA
ATOM      7  C   UNL     1       6.001   4.489  14.669  0.00  0.00    +0.000 A 
ATOM      8  C   UNL     1       5.217   4.124  15.749  0.00  0.00    +0.000 A 
ATOM      9  C   UNL     1       5.658   4.431  17.042  0.00  0.00    +0.000 A 
ENDBRANCH   1   9
BRANCH   2  10
ATOM     10  C   UNL     1       2.929   3.737  19.089  0.00  0.00    +0.000 A 
ATOM     11  C   UNL     1       1.566   4.062  19.147  0.00  0.00    +0.000 A 
ATOM     12  C   UNL     1       0.784   3.683  20.244  0.00  0.00    +0.000 A 
ATOM     13  C   UNL     1       1.358   2.969  21.293  0.00  0.00    +0.000 A 
ATOM     14  C   UNL     1       2.711   2.638  21.248  0.00  0.00    +0.000 A 
ATOM     15  C   UNL     1       3.492   3.021  20.152  0.00  0.00    +0.000 A 
ENDBRANCH   2  10
TORSDOF 2
ENDMDL
MODEL 4
REMARK VINA RESULT:      -6.4      1.060      1.129
REMARK  Name = 
REMARK  3 active torsions:
REMARK  status: ('A' for Active; 'I' for Inactive)
REMARK    1  A    between atoms: C_1  and  C_2
REMARK    2  A    between atoms: C_7  and  N_8
REMARK    3  A    between atoms: N_9  and  C_10
REMARK                            x       y       z     vdW  Elec       q    Type
REMARK                         _______ _______ _______ _____ _____    ______ ____
ROOT
ATOM      1  N   UNL     1       4.457   3.882  17.466  0.00  0.00    +0.000 NA
ATOM      2  N   UNL     1       3.425   4.587  17.514  0.00  0.00    +0.000 NA
ENDROOT
BRANCH   1   9
ATOM      3  C   UNL     1       6.639   5.603  18.570  0.00  0.00    +0.000 C 
ATOM      4  C   UNL     1       6.521   5.215  17.127  0.00  0.00    +0.000 A 
ATOM      5  C   UNL     1       7.490   5.630  16.218  0.00  0.00    +0.000 A 
ATOM      6  N   UNL     1       7.472   5.345  14.898  0.00  0.00    +0.000 NA
ATOM      7  C   UNL     1       6.432   4.615  14.453  0.00  0.00    +0.000 A 
ATOM      8  C   UNL     1       5.413   4.152  15.267  0.00  0.00    +0.000 A 
ATOM      9  C   UNL     1       5.448   4.453  16.633  0.00  0.00    +0.000 A 
ENDBRANCH   1   9
BRANCH   2  10
ATOM     10  C   UNL     1       2.502   4.081  18.452  0.00  0.00    +0.000 A 
ATOM     11  C   UNL     1       2.315   4.763  19.663  0.00  0.00    +0.000 A 
ATOM     12  C   UNL     1       1.367   4.326  20.594  0.00  0.00    +0.000 A 
ATOM     13  C   UNL     1       0.592   3.202  20.321  0.00  0.00    +0.000 A 
ATOM     14  C   UNL     1       0.765   2.515  19.121  0.00  0.00    +0.000 A 
ATOM     15  C   UNL     1       1.717   2.951  18.193  0.00  0.00    +0.000 A 
ENDBRANCH   2  10
TORSDOF 2
ENDMDL
MODEL 5
REMARK VINA RESULT:      -6.4      1.785      2.609
REMARK  Name = 
REMARK  3 active torsions:
REMARK  status: ('A' for Active; 'I' for Inactive)
REMARK    1  A    between atoms: C_1  and  C_2
REMARK    2  A    between atoms: C_7  and  N_8
REMARK    3  A    between atoms: N_9  and  C_10
REMARK                            x       y       z     vdW  Elec       q    Type
REMARK                         _______ _______ _______ _____ _____    ______ ____
ROOT
ATOM      1  N   UNL     1       4.658   4.803  18.422  0.00  0.00    +0.000 NA
ATOM      2  N   UNL     1       3.886   5.284  19.281  0.00  0.00    +0.000 NA
ENDROOT
BRANCH   1   9
ATOM      3  C   UNL     1       5.044   6.735  16.173  0.00  0.00    +0.000 C 
ATOM      4  C   UNL     1       6.030   6.526  17.283  0.00  0.00    +0.000 A 
ATOM      5  C   UNL     1       7.193   7.289  17.326  0.00  0.00    +0.000 A 
ATOM      6  N   UNL     1       8.148   7.173  18.274  0.00  0.00    +0.000 NA
ATOM      7  C   UNL     1       7.943   6.244  19.227  0.00  0.00    +0.000 A 
ATOM      8  C   UNL     1       6.824   5.431  19.279  0.00  0.00    +0.000 A 
ATOM      9  C   UNL     1       5.842   5.566  18.291  0.00  0.00    +0.000 A 
ENDBRANCH   1   9
BRANCH   2  10
ATOM     10  C   UNL     1       2.776   4.442  19.500  0.00  0.00    +0.000 A 
ATOM     11  C   UNL     1       2.144   3.845  18.401  0.00  0.00    +0.000 A 
ATOM     12  C   UNL     1       1.077   2.957  18.581  0.00  0.00    +0.000 A 
ATOM     13  C   UNL     1       0.635   2.653  19.866  0.00  0.00    +0.000 A 
ATOM     14  C   UNL     1       1.255   3.238  20.968  0.00  0.00    +0.000 A 
ATOM     15  C   UNL     1       2.319   4.128  20.786  0.00  0.00    +0.000 A 
ENDBRANCH   2  10
TORSDOF 2
ENDMDL
MODEL 6
REMARK VINA RESULT:      -6.4      2.029      6.316
REMARK  Name = 
REMARK  3 active torsions:
REMARK  status: ('A' for Active; 'I' for Inactive)
REMARK    1  A    between atoms: C_1  and  C_2
REMARK    2  A    between atoms: C_7  and  N_8
REMARK    3  A    between atoms: N_9  and  C_10
REMARK                            x       y       z     vdW  Elec       q    Type
REMARK                         _______ _______ _______ _____ _____    ______ ____
ROOT
ATOM      1  N   UNL     1       3.737   5.207  19.104  0.00  0.00    +0.000 NA
ATOM      2  N   UNL     1       4.872   4.692  19.203  0.00  0.00    +0.000 NA
ENDROOT
BRANCH   1   9
ATOM      3  C   UNL     1       1.409   4.098  17.591  0.00  0.00    +0.000 C 
ATOM      4  C   UNL     1       1.672   3.835  19.042  0.00  0.00    +0.000 A 
ATOM      5  C   UNL     1       0.824   2.995  19.757  0.00  0.00    +0.000 A 
ATOM      6  N   UNL     1       0.965   2.701  21.068  0.00  0.00    +0.000 NA
ATOM      7  C   UNL     1       2.000   3.278  21.707  0.00  0.00    +0.000 A 
ATOM      8  C   UNL     1       2.903   4.130  21.095  0.00  0.00    +0.000 A 
ATOM      9  C   UNL     1       2.745   4.422  19.736  0.00  0.00    +0.000 A 
ENDBRANCH   1   9
BRANCH   2  10
ATOM     10  C   UNL     1       5.870   5.548  18.693  0.00  0.00    +0.000 A 
ATOM     11  C   UNL     1       5.562   6.386  17.612  0.00  0.00    +0.000 A 
ATOM     12  C   UNL     1       6.506   7.292  17.114  0.00  0.00    +0.000 A 
ATOM     13  C   UNL     1       7.767   7.371  17.698  0.00  0.00    +0.000 A 
ATOM     14  C   UNL     1       8.087   6.546  18.774  0.00  0.00    +0.000 A 
ATOM     15  C   UNL     1       7.143   5.638  19.268  0.00  0.00    +0.000 A 
ENDBRANCH   2  10
TORSDOF 2
ENDMDL
MODEL 7
REMARK VINA RESULT:      -6.3      1.991      5.818
REMARK  Name = 
REMARK  3 active torsions:
REMARK  status: ('A' for Active; 'I' for Inactive)
REMARK    1  A    between atoms: C_1  and  C_2
REMARK    2  A    between atoms: C_7  and  N_8
REMARK    3  A    between atoms: N_9  and  C_10
REMARK                            x       y       z     vdW  Elec       q    Type
REMARK                         _______ _______ _______ _____ _____    ______ ____
ROOT
ATOM      1  N   UNL     1       4.090   4.936  19.112  0.00  0.00    +0.000 NA
ATOM      2  N   UNL     1       4.704   4.983  18.023  0.00  0.00    +0.000 NA
ENDROOT
BRANCH   1   9
ATOM      3  C   UNL     1       1.624   5.295  20.765  0.00  0.00    +0.000 C 
ATOM      4  C   UNL     1       1.832   4.172  19.795  0.00  0.00    +0.000 A 
ATOM      5  C   UNL     1       0.821   3.237  19.595  0.00  0.00    +0.000 A 
ATOM      6  N   UNL     1       0.910   2.183  18.754  0.00  0.00    +0.000 NA
ATOM      7  C   UNL     1       2.068   2.044  18.083  0.00  0.00    +0.000 A 
ATOM      8  C   UNL     1       3.138   2.912  18.207  0.00  0.00    +0.000 A 
ATOM      9  C   UNL     1       3.029   4.001  19.079  0.00  0.00    +0.000 A 
ENDBRANCH   1   9
BRANCH   2  10
ATOM     10  C   UNL     1       5.841   5.813  18.112  0.00  0.00    +0.000 A 
ATOM     11  C   UNL     1       6.845   5.499  19.039  0.00  0.00    +0.000 A 
ATOM     12  C   UNL     1       8.014   6.264  19.117  0.00  0.00    +0.000 A 
ATOM     13  C   UNL     1       8.193   7.349  18.263  0.00  0.00    +0.000 A 
ATOM     14  C   UNL     1       7.204   7.672  17.336  0.00  0.00    +0.000 A 
ATOM     15  C   UNL     1       6.034   6.909  17.262  0.00  0.00    +0.000 A 
ENDBRANCH   2  10
TORSDOF 2
ENDMDL
MODEL 8
REMARK VINA RESULT:      -6.3      0.839      1.862
REMARK  Name = 
REMARK  3 active torsions:
REMARK  status: ('A' for Active; 'I' for Inactive)
REMARK    1  A    between atoms: C_1  and  C_2
REMARK    2  A    between atoms: C_7  and  N_8
REMARK    3  A    between atoms: N_9  and  C_10
REMARK                            x       y       z     vdW  Elec       q    Type
REMARK                         _______ _______ _______ _____ _____    ______ ____
ROOT
ATOM      1  N   UNL     1       4.901   4.106  18.551  0.00  0.00    +0.000 NA
ATOM      2  N   UNL     1       3.878   4.785  18.788  0.00  0.00    +0.000 NA
ENDROOT
BRANCH   1   9
ATOM      3  C   UNL     1       5.455   3.623  15.653  0.00  0.00    +0.000 C 
ATOM      4  C   UNL     1       6.116   4.691  16.470  0.00  0.00    +0.000 A 
ATOM      5  C   UNL     1       7.023   5.559  15.868  0.00  0.00    +0.000 A 
ATOM      6  N   UNL     1       7.679   6.547  16.514  0.00  0.00    +0.000 NA
ATOM      7  C   UNL     1       7.430   6.675  17.831  0.00  0.00    +0.000 A 
ATOM      8  C   UNL     1       6.550   5.867  18.530  0.00  0.00    +0.000 A 
ATOM      9  C   UNL     1       5.875   4.851  17.845  0.00  0.00    +0.000 A 
ENDBRANCH   1   9
BRANCH   2  10
ATOM     10  C   UNL     1       2.975   4.079  19.610  0.00  0.00    +0.000 A 
ATOM     11  C   UNL     1       3.478   3.229  20.606  0.00  0.00    +0.000 A 
ATOM     12  C   UNL     1       2.616   2.557  21.478  0.00  0.00    +0.000 A 
ATOM     13  C   UNL     1       1.239   2.732  21.367  0.00  0.00    +0.000 A 
ATOM     14  C   UNL     1       0.725   3.574  20.384  0.00  0.00    +0.000 A 
ATOM     15  C   UNL     1       1.588   4.242  19.509  0.00  0.00    +0.000 A 
ENDBRANCH   2  10
TORSDOF 2
ENDMDL
MODEL 9
REMARK VINA RESULT:      -6.3      0.865      2.223
REMARK  Name = 
REMARK  3 active torsions:
REMARK  status: ('A' for Active; 'I' for Inactive)
REMARK    1  A    between atoms: C_1  and  C_2
REMARK    2  A    between atoms: C_7  and  N_8
REMARK    3  A    between atoms: N_9  and  C_10
REMARK                            x       y       z     vdW  Elec       q    Type
REMARK                         _______ _______ _______ _____ _____    ______ ____
ROOT
ATOM      1  N   UNL     1       4.998   4.165  18.593  0.00  0.00    +0.000 NA
ATOM      2  N   UNL     1       3.943   4.816  18.767  0.00  0.00    +0.000 NA
ENDROOT
BRANCH   1   9
ATOM      3  C   UNL     1       5.458   3.519  15.710  0.00  0.00    +0.000 C 
ATOM      4  C   UNL     1       6.130   4.643  16.439  0.00  0.00    +0.000 A 
ATOM      5  C   UNL     1       7.002   5.486  15.756  0.00  0.00    +0.000 A 
ATOM      6  N   UNL     1       7.665   6.519  16.320  0.00  0.00    +0.000 NA
ATOM      7  C   UNL     1       7.460   6.722  17.634  0.00  0.00    +0.000 A 
ATOM      8  C   UNL     1       6.617   5.944  18.410  0.00  0.00    +0.000 A 
ATOM      9  C   UNL     1       5.934   4.880  17.811  0.00  0.00    +0.000 A 
ENDBRANCH   1   9
BRANCH   2  10
ATOM     10  C   UNL     1       3.075   4.154  19.660  0.00  0.00    +0.000 A 
ATOM     11  C   UNL     1       1.702   4.435  19.612  0.00  0.00    +0.000 A 
ATOM     12  C   UNL     1       0.802   3.757  20.441  0.00  0.00    +0.000 A 
ATOM     13  C   UNL     1       1.266   2.786  21.324  0.00  0.00    +0.000 A 
ATOM     14  C   UNL     1       2.627   2.495  21.382  0.00  0.00    +0.000 A 
ATOM     15  C   UNL     1       3.527   3.177  20.555  0.00  0.00    +0.000 A 
ENDBRANCH   2  10
TORSDOF 2
ENDMDL
