MODEL 1
REMARK VINA RESULT:      -8.0      0.000      0.000
REMARK  Name = 
REMARK  5 active torsions:
REMARK  status: ('A' for Active; 'I' for Inactive)
REMARK    1  A    between atoms: C_1  and  C_2
REMARK    2  A    between atoms: C_2  and  C_3
REMARK    3  A    between atoms: C_2  and  C_12
REMARK    4  A    between atoms: N_5  and  C_6
REMARK    5  A    between atoms: C_15  and  C_16
REMARK                            x       y       z     vdW  Elec       q    Type
REMARK                         _______ _______ _______ _____ _____    ______ ____
ROOT
ATOM      1  C   UNL     1       1.000   9.398  19.987  0.00  0.00    +0.000 A 
ATOM      2  C   UNL     1       1.111   8.312  20.864  0.00  0.00    +0.000 A 
ATOM      3  C   UNL     1       1.794   7.152  20.481  0.00  0.00    +0.000 A 
ATOM      4  C   UNL     1       2.383   7.024  19.209  0.00  0.00    +0.000 A 
ATOM      5  C   UNL     1       2.266   8.132  18.352  0.00  0.00    +0.000 A 
ATOM      6  F   UNL     1       2.785   8.105  17.114  0.00  0.00    +0.000 F 
ATOM      7  C   UNL     1       1.595   9.298  18.728  0.00  0.00    +0.000 A 
ENDROOT
BRANCH   4   8
ATOM      8  C   UNL     1       3.081   5.776  18.814  0.00  0.00    +0.000 A 
ATOM      9  C   UNL     1       4.344   5.447  19.346  0.00  0.00    +0.000 A 
ATOM     10  C   UNL     1       5.021   4.285  18.963  0.00  0.00    +0.000 A 
ATOM     11  C   UNL     1       4.441   3.411  18.050  0.00  0.00    +0.000 A 
ATOM     12  C   UNL     1       3.189   3.701  17.519  0.00  0.00    +0.000 A 
ATOM     13  C   UNL     1       2.524   4.873  17.892  0.00  0.00    +0.000 A 
ENDBRANCH   4   8
BRANCH   1  15
ATOM     14  C   UNL     1       1.203  11.732  20.857  0.00  0.00    +0.000 C 
ATOM     15  C   UNL     1       0.230  10.645  20.372  0.00  0.00    +0.000 C 
BRANCH  15  16
ATOM     16  C   UNL     1      -0.629  11.176  19.221  0.00  0.00    +0.000 C 
ATOM     17  O   UNL     1      -0.414  12.284  18.743  0.00  0.00    +0.000 OA
ATOM     18  N   UNL     1      -1.657  10.328  18.827  0.00  0.00    +0.000 N 
ATOM     19  H   UNL     1      -1.859   9.531  19.416  0.00  0.00    +0.000 HD
BRANCH  18  20
ATOM     20  C   UNL     1      -2.497  10.524  17.706  0.00  0.00    +0.000 A 
ATOM     21  C   UNL     1      -3.678  11.269  17.771  0.00  0.00    +0.000 A 
ATOM     22  C   UNL     1      -4.487  11.436  16.647  0.00  0.00    +0.000 A 
ATOM     23  C   UNL     1      -4.119  10.861  15.436  0.00  0.00    +0.000 A 
ATOM     24  C   UNL     1      -2.934  10.134  15.349  0.00  0.00    +0.000 A 
ATOM     25  C   UNL     1      -2.118   9.974  16.477  0.00  0.00    +0.000 A 
ENDBRANCH  18  20
ENDBRANCH  15  16
ENDBRANCH   1  15
TORSDOF 4
ENDMDL
MODEL 2
REMARK VINA RESULT:      -7.9      0.083      1.389
REMARK  Name = 
REMARK  5 active torsions:
REMARK  status: ('A' for Active; 'I' for Inactive)
REMARK    1  A    between atoms: C_1  and  C_2
REMARK    2  A    between atoms: C_2  and  C_3
REMARK    3  A    between atoms: C_2  and  C_12
REMARK    4  A    between atoms: N_5  and  C_6
REMARK    5  A    between atoms: C_15  and  C_16
REMARK                            x       y       z     vdW  Elec       q    Type
REMARK                         _______ _______ _______ _____ _____    ______ ____
ROOT
ATOM      1  C   UNL     1       0.990   9.466  19.980  0.00  0.00    +0.000 A 
ATOM      2  C   UNL     1       1.099   8.390  20.869  0.00  0.00    +0.000 A 
ATOM      3  C   UNL     1       1.775   7.222  20.497  0.00  0.00    +0.000 A 
ATOM      4  C   UNL     1       2.358   7.076  19.224  0.00  0.00    +0.000 A 
ATOM      5  C   UNL     1       2.244   8.175  18.355  0.00  0.00    +0.000 A 
ATOM      6  F   UNL     1       2.758   8.131  17.116  0.00  0.00    +0.000 F 
ATOM      7  C   UNL     1       1.579   9.349  18.719  0.00  0.00    +0.000 A 
ENDROOT
BRANCH   4   8
ATOM      8  C   UNL     1       3.049   5.821  18.841  0.00  0.00    +0.000 A 
ATOM      9  C   UNL     1       2.493   4.941  17.892  0.00  0.00    +0.000 A 
ATOM     10  C   UNL     1       3.125   3.744  17.542  0.00  0.00    +0.000 A 
ATOM     11  C   UNL     1       4.343   3.405  18.121  0.00  0.00    +0.000 A 
ATOM     12  C   UNL     1       4.925   4.260  19.050  0.00  0.00    +0.000 A 
ATOM     13  C   UNL     1       4.280   5.448  19.410  0.00  0.00    +0.000 A 
ENDBRANCH   4   8
BRANCH   1  15
ATOM     14  C   UNL     1       1.208  11.814  20.810  0.00  0.00    +0.000 C 
ATOM     15  C   UNL     1       0.227  10.722  20.353  0.00  0.00    +0.000 C 
BRANCH  15  16
ATOM     16  C   UNL     1      -0.642  11.237  19.202  0.00  0.00    +0.000 C 
ATOM     17  O   UNL     1      -0.467  12.359  18.744  0.00  0.00    +0.000 OA
ATOM     18  N   UNL     1      -1.633  10.356  18.787  0.00  0.00    +0.000 N 
ATOM     19  H   UNL     1      -1.809   9.542  19.362  0.00  0.00    +0.000 HD
BRANCH  18  20
ATOM     20  C   UNL     1      -2.471  10.536  17.662  0.00  0.00    +0.000 A 
ATOM     21  C   UNL     1      -2.196   9.960  16.418  0.00  0.00    +0.000 A 
ATOM     22  C   UNL     1      -3.041  10.165  15.327  0.00  0.00    +0.000 A 
ATOM     23  C   UNL     1      -4.180  10.949  15.469  0.00  0.00    +0.000 A 
ATOM     24  C   UNL     1      -4.479  11.514  16.707  0.00  0.00    +0.000 A 
ATOM     25  C   UNL     1      -3.635  11.300  17.805  0.00  0.00    +0.000 A 
ENDBRANCH  18  20
ENDBRANCH  15  16
ENDBRANCH   1  15
TORSDOF 4
ENDMDL
MODEL 3
REMARK VINA RESULT:      -7.8      3.310      8.123
REMARK  Name = 
REMARK  5 active torsions:
REMARK  status: ('A' for Active; 'I' for Inactive)
REMARK    1  A    between atoms: C_1  and  C_2
REMARK    2  A    between atoms: C_2  and  C_3
REMARK    3  A    between atoms: C_2  and  C_12
REMARK    4  A    between atoms: N_5  and  C_6
REMARK    5  A    between atoms: C_15  and  C_16
REMARK                            x       y       z     vdW  Elec       q    Type
REMARK                         _______ _______ _______ _____ _____    ______ ____
ROOT
ATOM      1  C   UNL     1       2.099   6.855  19.848  0.00  0.00    +0.000 A 
ATOM      2  C   UNL     1       2.258   7.410  18.573  0.00  0.00    +0.000 A 
ATOM      3  C   UNL     1       1.778   8.693  18.287  0.00  0.00    +0.000 A 
ATOM      4  C   UNL     1       1.112   9.469  19.255  0.00  0.00    +0.000 A 
ATOM      5  C   UNL     1       0.975   8.893  20.530  0.00  0.00    +0.000 A 
ATOM      6  F   UNL     1       0.347   9.548  21.519  0.00  0.00    +0.000 F 
ATOM      7  C   UNL     1       1.459   7.616  20.828  0.00  0.00    +0.000 A 
ENDROOT
BRANCH   4   8
ATOM      8  C   UNL     1       0.590  10.817  18.924  0.00  0.00    +0.000 A 
ATOM      9  C   UNL     1      -0.758  11.009  18.562  0.00  0.00    +0.000 A 
ATOM     10  C   UNL     1      -1.254  12.272  18.226  0.00  0.00    +0.000 A 
ATOM     11  C   UNL     1      -0.417  13.381  18.263  0.00  0.00    +0.000 A 
ATOM     12  C   UNL     1       0.915  13.226  18.632  0.00  0.00    +0.000 A 
ATOM     13  C   UNL     1       1.411  11.958  18.950  0.00  0.00    +0.000 A 
ENDBRANCH   4   8
BRANCH   1  15
ATOM     14  C   UNL     1       1.378   4.553  20.504  0.00  0.00    +0.000 C 
ATOM     15  C   UNL     1       2.578   5.452  20.162  0.00  0.00    +0.000 C 
BRANCH  15  16
ATOM     16  C   UNL     1       3.387   4.844  19.013  0.00  0.00    +0.000 C 
ATOM     17  O   UNL     1       3.022   3.805  18.476  0.00  0.00    +0.000 OA
ATOM     18  N   UNL     1       4.548   5.537  18.693  0.00  0.00    +0.000 N 
ATOM     19  H   UNL     1       4.849   6.266  19.326  0.00  0.00    +0.000 HD
BRANCH  18  20
ATOM     20  C   UNL     1       5.389   5.261  17.590  0.00  0.00    +0.000 A 
ATOM     21  C   UNL     1       6.652   4.677  17.733  0.00  0.00    +0.000 A 
ATOM     22  C   UNL     1       7.458   4.426  16.623  0.00  0.00    +0.000 A 
ATOM     23  C   UNL     1       7.008   4.752  15.349  0.00  0.00    +0.000 A 
ATOM     24  C   UNL     1       5.743   5.315  15.188  0.00  0.00    +0.000 A 
ATOM     25  C   UNL     1       4.930   5.559  16.302  0.00  0.00    +0.000 A 
ENDBRANCH  18  20
ENDBRANCH  15  16
ENDBRANCH   1  15
TORSDOF 4
ENDMDL
MODEL 4
REMARK VINA RESULT:      -7.8      3.312      8.074
REMARK  Name = 
REMARK  5 active torsions:
REMARK  status: ('A' for Active; 'I' for Inactive)
REMARK    1  A    between atoms: C_1  and  C_2
REMARK    2  A    between atoms: C_2  and  C_3
REMARK    3  A    between atoms: C_2  and  C_12
REMARK    4  A    between atoms: N_5  and  C_6
REMARK    5  A    between atoms: C_15  and  C_16
REMARK                            x       y       z     vdW  Elec       q    Type
REMARK                         _______ _______ _______ _____ _____    ______ ____
ROOT
ATOM      1  C   UNL     1       2.123   6.967  19.854  0.00  0.00    +0.000 A 
ATOM      2  C   UNL     1       2.284   7.529  18.582  0.00  0.00    +0.000 A 
ATOM      3  C   UNL     1       1.803   8.813  18.304  0.00  0.00    +0.000 A 
ATOM      4  C   UNL     1       1.135   9.583  19.275  0.00  0.00    +0.000 A 
ATOM      5  C   UNL     1       0.997   8.999  20.546  0.00  0.00    +0.000 A 
ATOM      6  F   UNL     1       0.366   9.648  21.538  0.00  0.00    +0.000 F 
ATOM      7  C   UNL     1       1.481   7.721  20.838  0.00  0.00    +0.000 A 
ENDROOT
BRANCH   4   8
ATOM      8  C   UNL     1       0.612  10.932  18.952  0.00  0.00    +0.000 A 
ATOM      9  C   UNL     1       1.434  12.073  19.036  0.00  0.00    +0.000 A 
ATOM     10  C   UNL     1       0.944  13.352  18.756  0.00  0.00    +0.000 A 
ATOM     11  C   UNL     1      -0.379  13.521  18.363  0.00  0.00    +0.000 A 
ATOM     12  C   UNL     1      -1.211  12.411  18.256  0.00  0.00    +0.000 A 
ATOM     13  C   UNL     1      -0.721  11.136  18.554  0.00  0.00    +0.000 A 
ENDBRANCH   4   8
BRANCH   1  15
ATOM     14  C   UNL     1       1.409   4.672  20.542  0.00  0.00    +0.000 C 
ATOM     15  C   UNL     1       2.603   5.562  20.161  0.00  0.00    +0.000 C 
BRANCH  15  16
ATOM     16  C   UNL     1       3.374   4.943  18.991  0.00  0.00    +0.000 C 
ATOM     17  O   UNL     1       2.954   3.938  18.430  0.00  0.00    +0.000 OA
ATOM     18  N   UNL     1       4.566   5.585  18.679  0.00  0.00    +0.000 N 
ATOM     19  H   UNL     1       4.907   6.283  19.328  0.00  0.00    +0.000 HD
BRANCH  18  20
ATOM     20  C   UNL     1       5.386   5.296  17.564  0.00  0.00    +0.000 A 
ATOM     21  C   UNL     1       4.977   5.532  16.247  0.00  0.00    +0.000 A 
ATOM     22  C   UNL     1       5.809   5.227  15.170  0.00  0.00    +0.000 A 
ATOM     23  C   UNL     1       7.068   4.685  15.397  0.00  0.00    +0.000 A 
ATOM     24  C   UNL     1       7.498   4.463  16.703  0.00  0.00    +0.000 A 
ATOM     25  C   UNL     1       6.666   4.777  17.785  0.00  0.00    +0.000 A 
ENDBRANCH  18  20
ENDBRANCH  15  16
ENDBRANCH   1  15
TORSDOF 4
ENDMDL
MODEL 5
REMARK VINA RESULT:      -7.8      1.162      1.533
REMARK  Name = 
REMARK  5 active torsions:
REMARK  status: ('A' for Active; 'I' for Inactive)
REMARK    1  A    between atoms: C_1  and  C_2
REMARK    2  A    between atoms: C_2  and  C_3
REMARK    3  A    between atoms: C_2  and  C_12
REMARK    4  A    between atoms: N_5  and  C_6
REMARK    5  A    between atoms: C_15  and  C_16
REMARK                            x       y       z     vdW  Elec       q    Type
REMARK                         _______ _______ _______ _____ _____    ______ ____
ROOT
ATOM      1  C   UNL     1       1.208   9.805  19.542  0.00  0.00    +0.000 A 
ATOM      2  C   UNL     1       1.661   9.683  18.223  0.00  0.00    +0.000 A 
ATOM      3  C   UNL     1       2.204   8.479  17.763  0.00  0.00    +0.000 A 
ATOM      4  C   UNL     1       2.327   7.353  18.599  0.00  0.00    +0.000 A 
ATOM      5  C   UNL     1       1.854   7.498  19.915  0.00  0.00    +0.000 A 
ATOM      6  F   UNL     1       1.935   6.485  20.792  0.00  0.00    +0.000 F 
ATOM      7  C   UNL     1       1.302   8.693  20.382  0.00  0.00    +0.000 A 
ENDROOT
BRANCH   4   8
ATOM      8  C   UNL     1       2.928   6.093  18.098  0.00  0.00    +0.000 A 
ATOM      9  C   UNL     1       4.300   6.010  17.790  0.00  0.00    +0.000 A 
ATOM     10  C   UNL     1       4.871   4.834  17.295  0.00  0.00    +0.000 A 
ATOM     11  C   UNL     1       4.085   3.701  17.113  0.00  0.00    +0.000 A 
ATOM     12  C   UNL     1       2.730   3.747  17.422  0.00  0.00    +0.000 A 
ATOM     13  C   UNL     1       2.160   4.931  17.901  0.00  0.00    +0.000 A 
ENDBRANCH   4   8
BRANCH   1  15
ATOM     14  C   UNL     1       1.779  12.156  20.169  0.00  0.00    +0.000 C 
ATOM     15  C   UNL     1       0.654  11.114  20.067  0.00  0.00    +0.000 C 
BRANCH  15  16
ATOM     16  C   UNL     1      -0.489  11.650  19.200  0.00  0.00    +0.000 C 
ATOM     17  O   UNL     1      -0.513  12.826  18.858  0.00  0.00    +0.000 OA
ATOM     18  N   UNL     1      -1.473  10.717  18.898  0.00  0.00    +0.000 N 
ATOM     19  H   UNL     1      -1.450   9.834  19.391  0.00  0.00    +0.000 HD
BRANCH  18  20
ATOM     20  C   UNL     1      -2.552  10.923  18.007  0.00  0.00    +0.000 A 
ATOM     21  C   UNL     1      -3.739  11.554  18.394  0.00  0.00    +0.000 A 
ATOM     22  C   UNL     1      -4.786  11.734  17.491  0.00  0.00    +0.000 A 
ATOM     23  C   UNL     1      -4.658  11.288  16.181  0.00  0.00    +0.000 A 
ATOM     24  C   UNL     1      -3.474  10.676  15.774  0.00  0.00    +0.000 A 
ATOM     25  C   UNL     1      -2.419  10.503  16.679  0.00  0.00    +0.000 A 
ENDBRANCH  18  20
ENDBRANCH  15  16
ENDBRANCH   1  15
TORSDOF 4
ENDMDL
MODEL 6
REMARK VINA RESULT:      -7.8      1.342      1.926
REMARK  Name = 
REMARK  5 active torsions:
REMARK  status: ('A' for Active; 'I' for Inactive)
REMARK    1  A    between atoms: C_1  and  C_2
REMARK    2  A    between atoms: C_2  and  C_3
REMARK    3  A    between atoms: C_2  and  C_12
REMARK    4  A    between atoms: N_5  and  C_6
REMARK    5  A    between atoms: C_15  and  C_16
REMARK                            x       y       z     vdW  Elec       q    Type
REMARK                         _______ _______ _______ _____ _____    ______ ____
ROOT
ATOM      1  C   UNL     1       1.144   9.287  19.597  0.00  0.00    +0.000 A 
ATOM      2  C   UNL     1       1.605   9.459  18.286  0.00  0.00    +0.000 A 
ATOM      3  C   UNL     1       2.394   8.480  17.672  0.00  0.00    +0.000 A 
ATOM      4  C   UNL     1       2.764   7.298  18.341  0.00  0.00    +0.000 A 
ATOM      5  C   UNL     1       2.279   7.145  19.652  0.00  0.00    +0.000 A 
ATOM      6  F   UNL     1       2.585   6.058  20.377  0.00  0.00    +0.000 F 
ATOM      7  C   UNL     1       1.483   8.112  20.271  0.00  0.00    +0.000 A 
ENDROOT
BRANCH   4   8
ATOM      8  C   UNL     1       3.621   6.284  17.680  0.00  0.00    +0.000 A 
ATOM      9  C   UNL     1       4.811   6.651  17.022  0.00  0.00    +0.000 A 
ATOM     10  C   UNL     1       5.614   5.706  16.377  0.00  0.00    +0.000 A 
ATOM     11  C   UNL     1       5.255   4.363  16.389  0.00  0.00    +0.000 A 
ATOM     12  C   UNL     1       4.094   3.967  17.044  0.00  0.00    +0.000 A 
ATOM     13  C   UNL     1       3.285   4.919  17.673  0.00  0.00    +0.000 A 
ENDBRANCH   4   8
BRANCH   1  15
ATOM     14  C   UNL     1       1.251  11.405  20.920  0.00  0.00    +0.000 C 
ATOM     15  C   UNL     1       0.322  10.356  20.289  0.00  0.00    +0.000 C 
BRANCH  15  16
ATOM     16  C   UNL     1      -0.673  11.029  19.340  0.00  0.00    +0.000 C 
ATOM     17  O   UNL     1      -0.642  12.240  19.162  0.00  0.00    +0.000 OA
ATOM     18  N   UNL     1      -1.600  10.167  18.767  0.00  0.00    +0.000 N 
ATOM     19  H   UNL     1      -1.654   9.225  19.132  0.00  0.00    +0.000 HD
BRANCH  18  20
ATOM     20  C   UNL     1      -2.529  10.515  17.759  0.00  0.00    +0.000 A 
ATOM     21  C   UNL     1      -2.335  10.193  16.412  0.00  0.00    +0.000 A 
ATOM     22  C   UNL     1      -3.269  10.559  15.443  0.00  0.00    +0.000 A 
ATOM     23  C   UNL     1      -4.417  11.251  15.811  0.00  0.00    +0.000 A 
ATOM     24  C   UNL     1      -4.635  11.561  17.152  0.00  0.00    +0.000 A 
ATOM     25  C   UNL     1      -3.701  11.186  18.126  0.00  0.00    +0.000 A 
ENDBRANCH  18  20
ENDBRANCH  15  16
ENDBRANCH   1  15
TORSDOF 4
ENDMDL
MODEL 7
REMARK VINA RESULT:      -7.8      1.532      2.267
REMARK  Name = 
REMARK  5 active torsions:
REMARK  status: ('A' for Active; 'I' for Inactive)
REMARK    1  A    between atoms: C_1  and  C_2
REMARK    2  A    between atoms: C_2  and  C_3
REMARK    3  A    between atoms: C_2  and  C_12
REMARK    4  A    between atoms: N_5  and  C_6
REMARK    5  A    between atoms: C_15  and  C_16
REMARK                            x       y       z     vdW  Elec       q    Type
REMARK                         _______ _______ _______ _____ _____    ______ ____
ROOT
ATOM      1  C   UNL     1       1.729   8.596  19.045  0.00  0.00    +0.000 A 
ATOM      2  C   UNL     1       2.195   8.056  17.841  0.00  0.00    +0.000 A 
ATOM      3  C   UNL     1       2.557   6.706  17.757  0.00  0.00    +0.000 A 
ATOM      4  C   UNL     1       2.480   5.847  18.869  0.00  0.00    +0.000 A 
ATOM      5  C   UNL     1       1.999   6.413  20.063  0.00  0.00    +0.000 A 
ATOM      6  F   UNL     1       1.897   5.678  21.182  0.00  0.00    +0.000 F 
ATOM      7  C   UNL     1       1.626   7.756  20.155  0.00  0.00    +0.000 A 
ENDROOT
BRANCH   4   8
ATOM      8  C   UNL     1       2.891   4.426  18.764  0.00  0.00    +0.000 A 
ATOM      9  C   UNL     1       2.218   3.532  17.909  0.00  0.00    +0.000 A 
ATOM     10  C   UNL     1       2.583   2.185  17.821  0.00  0.00    +0.000 A 
ATOM     11  C   UNL     1       3.648   1.702  18.574  0.00  0.00    +0.000 A 
ATOM     12  C   UNL     1       4.342   2.564  19.416  0.00  0.00    +0.000 A 
ATOM     13  C   UNL     1       3.962   3.906  19.514  0.00  0.00    +0.000 A 
ENDBRANCH   4   8
BRANCH   1  15
ATOM     14  C   UNL     1       2.094  10.870  18.071  0.00  0.00    +0.000 C 
ATOM     15  C   UNL     1       1.370  10.065  19.162  0.00  0.00    +0.000 C 
BRANCH  15  16
ATOM     16  C   UNL     1      -0.140  10.301  19.084  0.00  0.00    +0.000 C 
ATOM     17  O   UNL     1      -0.813  10.377  20.105  0.00  0.00    +0.000 OA
ATOM     18  N   UNL     1      -0.649  10.369  17.792  0.00  0.00    +0.000 N 
ATOM     19  H   UNL     1      -0.038  10.101  17.032  0.00  0.00    +0.000 HD
BRANCH  18  20
ATOM     20  C   UNL     1      -1.978  10.714  17.452  0.00  0.00    +0.000 A 
ATOM     21  C   UNL     1      -2.819  11.418  18.320  0.00  0.00    +0.000 A 
ATOM     22  C   UNL     1      -4.127  11.736  17.955  0.00  0.00    +0.000 A 
ATOM     23  C   UNL     1      -4.612  11.355  16.709  0.00  0.00    +0.000 A 
ATOM     24  C   UNL     1      -3.779  10.671  15.824  0.00  0.00    +0.000 A 
ATOM     25  C   UNL     1      -2.463  10.360  16.188  0.00  0.00    +0.000 A 
ENDBRANCH  18  20
ENDBRANCH  15  16
ENDBRANCH   1  15
TORSDOF 4
ENDMDL
MODEL 8
REMARK VINA RESULT:      -7.8      3.170      8.008
REMARK  Name = 
REMARK  5 active torsions:
REMARK  status: ('A' for Active; 'I' for Inactive)
REMARK    1  A    between atoms: C_1  and  C_2
REMARK    2  A    between atoms: C_2  and  C_3
REMARK    3  A    between atoms: C_2  and  C_12
REMARK    4  A    between atoms: N_5  and  C_6
REMARK    5  A    between atoms: C_15  and  C_16
REMARK                            x       y       z     vdW  Elec       q    Type
REMARK                         _______ _______ _______ _____ _____    ______ ____
ROOT
ATOM      1  C   UNL     1       2.169   6.869  19.908  0.00  0.00    +0.000 A 
ATOM      2  C   UNL     1       1.459   7.613  20.858  0.00  0.00    +0.000 A 
ATOM      3  C   UNL     1       0.948   8.876  20.538  0.00  0.00    +0.000 A 
ATOM      4  C   UNL     1       1.133   9.451  19.267  0.00  0.00    +0.000 A 
ATOM      5  C   UNL     1       1.840   8.679  18.329  0.00  0.00    +0.000 A 
ATOM      6  F   UNL     1       2.078   9.144  17.092  0.00  0.00    +0.000 F 
ATOM      7  C   UNL     1       2.347   7.413  18.635  0.00  0.00    +0.000 A 
ENDROOT
BRANCH   4   8
ATOM      8  C   UNL     1       0.604  10.802  18.957  0.00  0.00    +0.000 A 
ATOM      9  C   UNL     1      -0.769  11.012  18.720  0.00  0.00    +0.000 A 
ATOM     10  C   UNL     1      -1.274  12.276  18.405  0.00  0.00    +0.000 A 
ATOM     11  C   UNL     1      -0.418  13.370  18.336  0.00  0.00    +0.000 A 
ATOM     12  C   UNL     1       0.940  13.198  18.579  0.00  0.00    +0.000 A 
ATOM     13  C   UNL     1       1.443  11.928  18.878  0.00  0.00    +0.000 A 
ENDBRANCH   4   8
BRANCH   1  15
ATOM     14  C   UNL     1       1.659   4.572  20.754  0.00  0.00    +0.000 C 
ATOM     15  C   UNL     1       2.763   5.517  20.251  0.00  0.00    +0.000 C 
BRANCH  15  16
ATOM     16  C   UNL     1       3.500   4.889  19.065  0.00  0.00    +0.000 C 
ATOM     17  O   UNL     1       3.080   3.864  18.542  0.00  0.00    +0.000 OA
ATOM     18  N   UNL     1       4.666   5.548  18.694  0.00  0.00    +0.000 N 
ATOM     19  H   UNL     1       5.017   6.266  19.314  0.00  0.00    +0.000 HD
BRANCH  18  20
ATOM     20  C   UNL     1       5.447   5.251  17.553  0.00  0.00    +0.000 A 
ATOM     21  C   UNL     1       6.712   4.659  17.639  0.00  0.00    +0.000 A 
ATOM     22  C   UNL     1       7.458   4.387  16.492  0.00  0.00    +0.000 A 
ATOM     23  C   UNL     1       6.945   4.700  15.239  0.00  0.00    +0.000 A 
ATOM     24  C   UNL     1       5.678   5.270  15.135  0.00  0.00    +0.000 A 
ATOM     25  C   UNL     1       4.925   5.536  16.286  0.00  0.00    +0.000 A 
ENDBRANCH  18  20
ENDBRANCH  15  16
ENDBRANCH   1  15
TORSDOF 4
ENDMDL
MODEL 9
REMARK VINA RESULT:      -7.8      3.222      7.977
REMARK  Name = 
REMARK  5 active torsions:
REMARK  status: ('A' for Active; 'I' for Inactive)
REMARK    1  A    between atoms: C_1  and  C_2
REMARK    2  A    between atoms: C_2  and  C_3
REMARK    3  A    between atoms: C_2  and  C_12
REMARK    4  A    between atoms: N_5  and  C_6
REMARK    5  A    between atoms: C_15  and  C_16
REMARK                            x       y       z     vdW  Elec       q    Type
REMARK                         _______ _______ _______ _____ _____    ______ ____
ROOT
ATOM      1  C   UNL     1       2.073   6.829  19.992  0.00  0.00    +0.000 A 
ATOM      2  C   UNL     1       1.395   7.606  20.938  0.00  0.00    +0.000 A 
ATOM      3  C   UNL     1       0.946   8.892  20.617  0.00  0.00    +0.000 A 
ATOM      4  C   UNL     1       1.164   9.458  19.346  0.00  0.00    +0.000 A 
ATOM      5  C   UNL     1       1.838   8.653  18.412  0.00  0.00    +0.000 A 
ATOM      6  F   UNL     1       2.103   9.105  17.176  0.00  0.00    +0.000 F 
ATOM      7  C   UNL     1       2.282   7.364  18.719  0.00  0.00    +0.000 A 
ENDROOT
BRANCH   4   8
ATOM      8  C   UNL     1       0.702  10.832  19.034  0.00  0.00    +0.000 A 
ATOM      9  C   UNL     1      -0.661  11.110  18.807  0.00  0.00    +0.000 A 
ATOM     10  C   UNL     1      -1.104  12.397  18.489  0.00  0.00    +0.000 A 
ATOM     11  C   UNL     1      -0.195  13.446  18.410  0.00  0.00    +0.000 A 
ATOM     12  C   UNL     1       1.155  13.207  18.644  0.00  0.00    +0.000 A 
ATOM     13  C   UNL     1       1.595  11.914  18.944  0.00  0.00    +0.000 A 
ENDBRANCH   4   8
BRANCH   1  15
ATOM     14  C   UNL     1       1.433   4.520  20.703  0.00  0.00    +0.000 C 
ATOM     15  C   UNL     1       2.600   5.450  20.337  0.00  0.00    +0.000 C 
BRANCH  15  16
ATOM     16  C   UNL     1       3.427   4.843  19.200  0.00  0.00    +0.000 C 
ATOM     17  O   UNL     1       3.132   3.751  18.730  0.00  0.00    +0.000 OA
ATOM     18  N   UNL     1       4.522   5.605  18.810  0.00  0.00    +0.000 N 
ATOM     19  H   UNL     1       4.779   6.390  19.393  0.00  0.00    +0.000 HD
BRANCH  18  20
ATOM     20  C   UNL     1       5.355   5.334  17.699  0.00  0.00    +0.000 A 
ATOM     21  C   UNL     1       4.973   5.617  16.384  0.00  0.00    +0.000 A 
ATOM     22  C   UNL     1       5.818   5.330  15.312  0.00  0.00    +0.000 A 
ATOM     23  C   UNL     1       7.063   4.756  15.543  0.00  0.00    +0.000 A 
ATOM     24  C   UNL     1       7.466   4.487  16.850  0.00  0.00    +0.000 A 
ATOM     25  C   UNL     1       6.621   4.784  17.927  0.00  0.00    +0.000 A 
ENDBRANCH  18  20
ENDBRANCH  15  16
ENDBRANCH   1  15
TORSDOF 4
ENDMDL
