MODEL 1
REMARK VINA RESULT:      -7.7      0.000      0.000
REMARK  Name = 
REMARK  10 active torsions:
REMARK  status: ('A' for Active; 'I' for Inactive)
REMARK    1  A    between atoms: C_1  and  O_2
REMARK    2  A    between atoms: O_2  and  C_3
REMARK    3  A    between atoms: C_7  and  N_8
REMARK    4  A    between atoms: C_12  and  S_13
REMARK    5  A    between atoms: S_13  and  C_14
REMARK    6  A    between atoms: C_14  and  C_15
REMARK    7  A    between atoms: N_17  and  C_18
REMARK    8  A    between atoms: C_19  and  C_20
REMARK    9  A    between atoms: C_22  and  C_23
REMARK   10  A    between atoms: C_25  and  C_26
REMARK                            x       y       z     vdW  Elec       q    Type
REMARK                         _______ _______ _______ _____ _____    ______ ____
ROOT
ATOM      1  S   UNL     1       2.474   6.847  19.498  0.00  0.00    +0.000 S 
ENDROOT
BRANCH   1   6
ATOM      2  N   UNL     1       3.508   4.603  18.207  0.00  0.00    +0.000 N 
ATOM      3  C   UNL     1       2.971   3.438  17.681  0.00  0.00    +0.000 A 
ATOM      4  C   UNL     1       1.674   3.373  18.131  0.00  0.00    +0.000 A 
ATOM      5  N   UNL     1       1.358   4.476  18.868  0.00  0.00    +0.000 NA
ATOM      6  C   UNL     1       2.445   5.217  18.877  0.00  0.00    +0.000 A 
BRANCH   2  11
ATOM      7  C   UNL     1       6.777   5.515  16.633  0.00  0.00    +0.000 A 
ATOM      8  C   UNL     1       7.546   5.778  17.768  0.00  0.00    +0.000 A 
ATOM      9  C   UNL     1       7.003   5.628  19.040  0.00  0.00    +0.000 A 
ATOM     10  C   UNL     1       5.677   5.226  19.190  0.00  0.00    +0.000 A 
ATOM     11  C   UNL     1       4.874   4.999  18.066  0.00  0.00    +0.000 A 
ATOM     12  C   UNL     1       5.441   5.127  16.781  0.00  0.00    +0.000 A 
BRANCH   7  14
ATOM     13  C   UNL     1       7.016   4.909  14.339  0.00  0.00    +0.000 C 
ATOM     14  O   UNL     1       7.449   5.677  15.453  0.00  0.00    +0.000 OA
ENDBRANCH   7  14
ENDBRANCH   2  11
ENDBRANCH   1   6
BRANCH   1  15
ATOM     15  C   UNL     1       2.449   7.834  17.974  0.00  0.00    +0.000 C 
BRANCH  15  16
ATOM     16  C   UNL     1       1.696   9.143  18.193  0.00  0.00    +0.000 C 
ATOM     17  O   UNL     1       2.076  10.190  17.671  0.00  0.00    +0.000 OA
ATOM     18  N   UNL     1       0.554   9.013  18.982  0.00  0.00    +0.000 N 
ATOM     19  H   UNL     1       0.638   8.281  19.678  0.00  0.00    +0.000 HD
BRANCH  18  20
ATOM     20  C   UNL     1      -0.259  10.120  19.329  0.00  0.00    +0.000 A 
ATOM     21  C   UNL     1      -1.269  10.599  18.469  0.00  0.00    +0.000 A 
ATOM     22  C   UNL     1      -1.655   9.943  17.171  0.00  0.00    +0.000 C 
ATOM     23  C   UNL     1      -2.035  11.716  18.861  0.00  0.00    +0.000 A 
ATOM     24  C   UNL     1      -1.849  12.328  20.101  0.00  0.00    +0.000 A 
ATOM     25  C   UNL     1      -2.689  13.497  20.523  0.00  0.00    +0.000 C 
ATOM     26  C   UNL     1      -0.876  11.817  20.964  0.00  0.00    +0.000 A 
ATOM     27  C   UNL     1      -0.076  10.721  20.595  0.00  0.00    +0.000 A 
ATOM     28  C   UNL     1       0.978  10.253  21.562  0.00  0.00    +0.000 C 
ENDBRANCH  18  20
ENDBRANCH  15  16
ENDBRANCH   1  15
TORSDOF 6
ENDMDL
MODEL 2
REMARK VINA RESULT:      -7.4      3.082      4.775
REMARK  Name = 
REMARK  10 active torsions:
REMARK  status: ('A' for Active; 'I' for Inactive)
REMARK    1  A    between atoms: C_1  and  O_2
REMARK    2  A    between atoms: O_2  and  C_3
REMARK    3  A    between atoms: C_7  and  N_8
REMARK    4  A    between atoms: C_12  and  S_13
REMARK    5  A    between atoms: S_13  and  C_14
REMARK    6  A    between atoms: C_14  and  C_15
REMARK    7  A    between atoms: N_17  and  C_18
REMARK    8  A    between atoms: C_19  and  C_20
REMARK    9  A    between atoms: C_22  and  C_23
REMARK   10  A    between atoms: C_25  and  C_26
REMARK                            x       y       z     vdW  Elec       q    Type
REMARK                         _______ _______ _______ _____ _____    ______ ____
ROOT
ATOM      1  S   UNL     1       4.866   3.283  17.415  0.00  0.00    +0.000 S 
ENDROOT
BRANCH   1   6
ATOM      2  N   UNL     1       6.602   4.886  15.936  0.00  0.00    +0.000 N 
ATOM      3  C   UNL     1       6.865   5.064  14.586  0.00  0.00    +0.000 A 
ATOM      4  C   UNL     1       6.235   4.033  13.931  0.00  0.00    +0.000 A 
ATOM      5  N   UNL     1       5.541   3.251  14.806  0.00  0.00    +0.000 NA
ATOM      6  C   UNL     1       5.738   3.788  15.991  0.00  0.00    +0.000 A 
BRANCH   2  11
ATOM      7  C   UNL     1       7.814   7.875  17.832  0.00  0.00    +0.000 A 
ATOM      8  C   UNL     1       8.245   7.273  19.015  0.00  0.00    +0.000 A 
ATOM      9  C   UNL     1       8.164   5.893  19.177  0.00  0.00    +0.000 A 
ATOM     10  C   UNL     1       7.638   5.101  18.159  0.00  0.00    +0.000 A 
ATOM     11  C   UNL     1       7.160   5.687  16.980  0.00  0.00    +0.000 A 
ATOM     12  C   UNL     1       7.271   7.083  16.814  0.00  0.00    +0.000 A 
BRANCH   7  14
ATOM     13  C   UNL     1       8.935   9.797  18.690  0.00  0.00    +0.000 C 
ATOM     14  O   UNL     1       7.980   9.232  17.803  0.00  0.00    +0.000 OA
ENDBRANCH   7  14
ENDBRANCH   2  11
ENDBRANCH   1   6
BRANCH   1  15
ATOM     15  C   UNL     1       3.148   3.273  16.824  0.00  0.00    +0.000 C 
BRANCH  15  16
ATOM     16  C   UNL     1       2.309   4.290  17.592  0.00  0.00    +0.000 C 
ATOM     17  O   UNL     1       1.091   4.354  17.437  0.00  0.00    +0.000 OA
ATOM     18  N   UNL     1       3.043   5.072  18.481  0.00  0.00    +0.000 N 
ATOM     19  H   UNL     1       3.992   5.238  18.169  0.00  0.00    +0.000 HD
BRANCH  18  20
ATOM     20  C   UNL     1       2.449   6.096  19.260  0.00  0.00    +0.000 A 
ATOM     21  C   UNL     1       2.432   7.440  18.831  0.00  0.00    +0.000 A 
ATOM     22  C   UNL     1       2.934   7.907  17.492  0.00  0.00    +0.000 C 
ATOM     23  C   UNL     1       1.841   8.418  19.657  0.00  0.00    +0.000 A 
ATOM     24  C   UNL     1       1.232   8.079  20.866  0.00  0.00    +0.000 A 
ATOM     25  C   UNL     1       0.579   9.123  21.724  0.00  0.00    +0.000 C 
ATOM     26  C   UNL     1       1.215   6.739  21.259  0.00  0.00    +0.000 A 
ATOM     27  C   UNL     1       1.818   5.741  20.472  0.00  0.00    +0.000 A 
ATOM     28  C   UNL     1       1.794   4.325  20.982  0.00  0.00    +0.000 C 
ENDBRANCH  18  20
ENDBRANCH  15  16
ENDBRANCH   1  15
TORSDOF 6
ENDMDL
MODEL 3
REMARK VINA RESULT:      -7.4      0.167      1.686
REMARK  Name = 
REMARK  10 active torsions:
REMARK  status: ('A' for Active; 'I' for Inactive)
REMARK    1  A    between atoms: C_1  and  O_2
REMARK    2  A    between atoms: O_2  and  C_3
REMARK    3  A    between atoms: C_7  and  N_8
REMARK    4  A    between atoms: C_12  and  S_13
REMARK    5  A    between atoms: S_13  and  C_14
REMARK    6  A    between atoms: C_14  and  C_15
REMARK    7  A    between atoms: N_17  and  C_18
REMARK    8  A    between atoms: C_19  and  C_20
REMARK    9  A    between atoms: C_22  and  C_23
REMARK   10  A    between atoms: C_25  and  C_26
REMARK                            x       y       z     vdW  Elec       q    Type
REMARK                         _______ _______ _______ _____ _____    ______ ____
ROOT
ATOM      1  S   UNL     1       2.437   6.861  19.581  0.00  0.00    +0.000 S 
ENDROOT
BRANCH   1   6
ATOM      2  N   UNL     1       3.446   4.639  18.236  0.00  0.00    +0.000 N 
ATOM      3  C   UNL     1       2.899   3.483  17.699  0.00  0.00    +0.000 A 
ATOM      4  C   UNL     1       1.610   3.412  18.169  0.00  0.00    +0.000 A 
ATOM      5  N   UNL     1       1.308   4.503  18.929  0.00  0.00    +0.000 NA
ATOM      6  C   UNL     1       2.396   5.243  18.933  0.00  0.00    +0.000 A 
BRANCH   2  11
ATOM      7  C   UNL     1       6.672   5.640  16.625  0.00  0.00    +0.000 A 
ATOM      8  C   UNL     1       7.478   5.817  17.751  0.00  0.00    +0.000 A 
ATOM      9  C   UNL     1       6.974   5.582  19.026  0.00  0.00    +0.000 A 
ATOM     10  C   UNL     1       5.651   5.178  19.190  0.00  0.00    +0.000 A 
ATOM     11  C   UNL     1       4.811   5.035  18.079  0.00  0.00    +0.000 A 
ATOM     12  C   UNL     1       5.338   5.250  16.788  0.00  0.00    +0.000 A 
BRANCH   7  14
ATOM     13  C   UNL     1       7.164   4.913  14.408  0.00  0.00    +0.000 C 
ATOM     14  O   UNL     1       7.307   5.881  15.439  0.00  0.00    +0.000 OA
ENDBRANCH   7  14
ENDBRANCH   2  11
ENDBRANCH   1   6
BRANCH   1  15
ATOM     15  C   UNL     1       2.318   7.874  18.077  0.00  0.00    +0.000 C 
BRANCH  15  16
ATOM     16  C   UNL     1       1.585   9.181  18.366  0.00  0.00    +0.000 C 
ATOM     17  O   UNL     1       2.028  10.258  17.969  0.00  0.00    +0.000 OA
ATOM     18  N   UNL     1       0.388   9.017  19.060  0.00  0.00    +0.000 N 
ATOM     19  H   UNL     1       0.404   8.223  19.689  0.00  0.00    +0.000 HD
BRANCH  18  20
ATOM     20  C   UNL     1      -0.418  10.114  19.452  0.00  0.00    +0.000 A 
ATOM     21  C   UNL     1      -0.236  10.766  20.690  0.00  0.00    +0.000 A 
ATOM     22  C   UNL     1       0.870  10.446  21.659  0.00  0.00    +0.000 C 
ATOM     23  C   UNL     1      -1.081  11.841  21.032  0.00  0.00    +0.000 A 
ATOM     24  C   UNL     1      -2.062  12.305  20.154  0.00  0.00    +0.000 A 
ATOM     25  C   UNL     1      -2.936  13.470  20.515  0.00  0.00    +0.000 C 
ATOM     26  C   UNL     1      -2.203  11.681  18.913  0.00  0.00    +0.000 A 
ATOM     27  C   UNL     1      -1.395  10.589  18.549  0.00  0.00    +0.000 A 
ATOM     28  C   UNL     1      -1.634   9.944  17.210  0.00  0.00    +0.000 C 
ENDBRANCH  18  20
ENDBRANCH  15  16
ENDBRANCH   1  15
TORSDOF 6
ENDMDL
MODEL 4
REMARK VINA RESULT:      -7.3      2.279      3.924
REMARK  Name = 
REMARK  10 active torsions:
REMARK  status: ('A' for Active; 'I' for Inactive)
REMARK    1  A    between atoms: C_1  and  O_2
REMARK    2  A    between atoms: O_2  and  C_3
REMARK    3  A    between atoms: C_7  and  N_8
REMARK    4  A    between atoms: C_12  and  S_13
REMARK    5  A    between atoms: S_13  and  C_14
REMARK    6  A    between atoms: C_14  and  C_15
REMARK    7  A    between atoms: N_17  and  C_18
REMARK    8  A    between atoms: C_19  and  C_20
REMARK    9  A    between atoms: C_22  and  C_23
REMARK   10  A    between atoms: C_25  and  C_26
REMARK                            x       y       z     vdW  Elec       q    Type
REMARK                         _______ _______ _______ _____ _____    ______ ____
ROOT
ATOM      1  S   UNL     1       2.505   7.430  18.549  0.00  0.00    +0.000 S 
ENDROOT
BRANCH   1   6
ATOM      2  N   UNL     1       4.186   5.396  17.652  0.00  0.00    +0.000 N 
ATOM      3  C   UNL     1       5.407   5.348  16.997  0.00  0.00    +0.000 A 
ATOM      4  C   UNL     1       5.656   6.623  16.550  0.00  0.00    +0.000 A 
ATOM      5  N   UNL     1       4.672   7.479  16.948  0.00  0.00    +0.000 NA
ATOM      6  C   UNL     1       3.821   6.745  17.632  0.00  0.00    +0.000 A 
BRANCH   2  11
ATOM      7  C   UNL     1       2.847   2.899  20.097  0.00  0.00    +0.000 A 
ATOM      8  C   UNL     1       2.179   2.028  19.236  0.00  0.00    +0.000 A 
ATOM      9  C   UNL     1       2.192   2.243  17.861  0.00  0.00    +0.000 A 
ATOM     10  C   UNL     1       2.866   3.343  17.333  0.00  0.00    +0.000 A 
ATOM     11  C   UNL     1       3.507   4.254  18.181  0.00  0.00    +0.000 A 
ATOM     12  C   UNL     1       3.511   4.013  19.570  0.00  0.00    +0.000 A 
BRANCH   7  14
ATOM     13  C   UNL     1       1.483   2.507  22.013  0.00  0.00    +0.000 C 
ATOM     14  O   UNL     1       2.772   2.549  21.416  0.00  0.00    +0.000 OA
ENDBRANCH   7  14
ENDBRANCH   2  11
ENDBRANCH   1   6
BRANCH   1  15
ATOM     15  C   UNL     1       2.177   8.973  17.647  0.00  0.00    +0.000 C 
BRANCH  15  16
ATOM     16  C   UNL     1       1.535  10.007  18.566  0.00  0.00    +0.000 C 
ATOM     17  O   UNL     1       1.897  11.183  18.550  0.00  0.00    +0.000 OA
ATOM     18  N   UNL     1       0.507   9.499  19.358  0.00  0.00    +0.000 N 
ATOM     19  H   UNL     1       0.645   8.526  19.605  0.00  0.00    +0.000 HD
BRANCH  18  20
ATOM     20  C   UNL     1      -0.188  10.295  20.302  0.00  0.00    +0.000 A 
ATOM     21  C   UNL     1      -1.167  11.230  19.908  0.00  0.00    +0.000 A 
ATOM     22  C   UNL     1      -1.643  11.410  18.492  0.00  0.00    +0.000 C 
ATOM     23  C   UNL     1      -1.813  12.007  20.892  0.00  0.00    +0.000 A 
ATOM     24  C   UNL     1      -1.541  11.835  22.250  0.00  0.00    +0.000 A 
ATOM     25  C   UNL     1      -2.256  12.645  23.291  0.00  0.00    +0.000 C 
ATOM     26  C   UNL     1      -0.603  10.874  22.632  0.00  0.00    +0.000 A 
ATOM     27  C   UNL     1       0.080  10.101  21.676  0.00  0.00    +0.000 A 
ATOM     28  C   UNL     1       1.106   9.113  22.163  0.00  0.00    +0.000 C 
ENDBRANCH  18  20
ENDBRANCH  15  16
ENDBRANCH   1  15
TORSDOF 6
ENDMDL
MODEL 5
REMARK VINA RESULT:      -7.3      1.216      1.843
REMARK  Name = 
REMARK  10 active torsions:
REMARK  status: ('A' for Active; 'I' for Inactive)
REMARK    1  A    between atoms: C_1  and  O_2
REMARK    2  A    between atoms: O_2  and  C_3
REMARK    3  A    between atoms: C_7  and  N_8
REMARK    4  A    between atoms: C_12  and  S_13
REMARK    5  A    between atoms: S_13  and  C_14
REMARK    6  A    between atoms: C_14  and  C_15
REMARK    7  A    between atoms: N_17  and  C_18
REMARK    8  A    between atoms: C_19  and  C_20
REMARK    9  A    between atoms: C_22  and  C_23
REMARK   10  A    between atoms: C_25  and  C_26
REMARK                            x       y       z     vdW  Elec       q    Type
REMARK                         _______ _______ _______ _____ _____    ______ ____
ROOT
ATOM      1  S   UNL     1       2.696   6.086  19.675  0.00  0.00    +0.000 S 
ENDROOT
BRANCH   1   6
ATOM      2  N   UNL     1       3.124   3.812  18.121  0.00  0.00    +0.000 N 
ATOM      3  C   UNL     1       2.351   2.730  17.729  0.00  0.00    +0.000 A 
ATOM      4  C   UNL     1       1.211   2.772  18.496  0.00  0.00    +0.000 A 
ATOM      5  N   UNL     1       1.211   3.867  19.309  0.00  0.00    +0.000 NA
ATOM      6  C   UNL     1       2.338   4.497  19.053  0.00  0.00    +0.000 A 
BRANCH   2  11
ATOM      7  C   UNL     1       6.759   4.701  18.085  0.00  0.00    +0.000 A 
ATOM      8  C   UNL     1       7.037   4.596  16.722  0.00  0.00    +0.000 A 
ATOM      9  C   UNL     1       6.032   4.265  15.818  0.00  0.00    +0.000 A 
ATOM     10  C   UNL     1       4.737   4.021  16.273  0.00  0.00    +0.000 A 
ATOM     11  C   UNL     1       4.444   4.078  17.641  0.00  0.00    +0.000 A 
ATOM     12  C   UNL     1       5.463   4.441  18.546  0.00  0.00    +0.000 A 
BRANCH   7  14
ATOM     13  C   UNL     1       8.134   6.446  18.952  0.00  0.00    +0.000 C 
ATOM     14  O   UNL     1       7.835   5.061  18.849  0.00  0.00    +0.000 OA
ENDBRANCH   7  14
ENDBRANCH   2  11
ENDBRANCH   1   6
BRANCH   1  15
ATOM     15  C   UNL     1       2.544   7.119  18.188  0.00  0.00    +0.000 C 
BRANCH  15  16
ATOM     16  C   UNL     1       1.954   8.481  18.538  0.00  0.00    +0.000 C 
ATOM     17  O   UNL     1       2.334   9.503  17.969  0.00  0.00    +0.000 OA
ATOM     18  N   UNL     1       0.948   8.431  19.501  0.00  0.00    +0.000 N 
ATOM     19  H   UNL     1       1.079   7.680  20.168  0.00  0.00    +0.000 HD
BRANCH  18  20
ATOM     20  C   UNL     1       0.301   9.596  19.985  0.00  0.00    +0.000 A 
ATOM     21  C   UNL     1      -0.576  10.349  19.176  0.00  0.00    +0.000 A 
ATOM     22  C   UNL     1      -0.992   9.955  17.785  0.00  0.00    +0.000 C 
ATOM     23  C   UNL     1      -1.176  11.508  19.707  0.00  0.00    +0.000 A 
ATOM     24  C   UNL     1      -0.960  11.901  21.029  0.00  0.00    +0.000 A 
ATOM     25  C   UNL     1      -1.628  13.120  21.595  0.00  0.00    +0.000 C 
ATOM     26  C   UNL     1      -0.126  11.122  21.834  0.00  0.00    +0.000 A 
ATOM     27  C   UNL     1       0.511   9.974  21.330  0.00  0.00    +0.000 A 
ATOM     28  C   UNL     1       1.427   9.209  22.247  0.00  0.00    +0.000 C 
ENDBRANCH  18  20
ENDBRANCH  15  16
ENDBRANCH   1  15
TORSDOF 6
ENDMDL
MODEL 6
REMARK VINA RESULT:      -7.2      1.758      2.107
REMARK  Name = 
REMARK  10 active torsions:
REMARK  status: ('A' for Active; 'I' for Inactive)
REMARK    1  A    between atoms: C_1  and  O_2
REMARK    2  A    between atoms: O_2  and  C_3
REMARK    3  A    between atoms: C_7  and  N_8
REMARK    4  A    between atoms: C_12  and  S_13
REMARK    5  A    between atoms: S_13  and  C_14
REMARK    6  A    between atoms: C_14  and  C_15
REMARK    7  A    between atoms: N_17  and  C_18
REMARK    8  A    between atoms: C_19  and  C_20
REMARK    9  A    between atoms: C_22  and  C_23
REMARK   10  A    between atoms: C_25  and  C_26
REMARK                            x       y       z     vdW  Elec       q    Type
REMARK                         _______ _______ _______ _____ _____    ______ ____
ROOT
ATOM      1  S   UNL     1       2.587   6.700  19.393  0.00  0.00    +0.000 S 
ENDROOT
BRANCH   1   6
ATOM      2  N   UNL     1       4.198   4.971  17.916  0.00  0.00    +0.000 N 
ATOM      3  C   UNL     1       3.967   3.927  17.033  0.00  0.00    +0.000 A 
ATOM      4  C   UNL     1       2.632   3.619  17.140  0.00  0.00    +0.000 A 
ATOM      5  N   UNL     1       2.005   4.463  18.008  0.00  0.00    +0.000 NA
ATOM      6  C   UNL     1       2.939   5.285  18.437  0.00  0.00    +0.000 A 
BRANCH   2  11
ATOM      7  C   UNL     1       7.206   7.187  17.714  0.00  0.00    +0.000 A 
ATOM      8  C   UNL     1       8.002   6.634  18.717  0.00  0.00    +0.000 A 
ATOM      9  C   UNL     1       7.566   5.524  19.434  0.00  0.00    +0.000 A 
ATOM     10  C   UNL     1       6.320   4.963  19.163  0.00  0.00    +0.000 A 
ATOM     11  C   UNL     1       5.486   5.527  18.190  0.00  0.00    +0.000 A 
ATOM     12  C   UNL     1       5.947   6.635  17.450  0.00  0.00    +0.000 A 
BRANCH   7  14
ATOM     13  C   UNL     1       8.251   9.324  17.879  0.00  0.00    +0.000 C 
ATOM     14  O   UNL     1       7.773   8.255  17.075  0.00  0.00    +0.000 OA
ENDBRANCH   7  14
ENDBRANCH   2  11
ENDBRANCH   1   6
BRANCH   1  15
ATOM     15  C   UNL     1       2.438   7.990  18.122  0.00  0.00    +0.000 C 
BRANCH  15  16
ATOM     16  C   UNL     1       1.431   9.054  18.551  0.00  0.00    +0.000 C 
ATOM     17  O   UNL     1       0.532   9.417  17.796  0.00  0.00    +0.000 OA
ATOM     18  N   UNL     1       1.615   9.513  19.854  0.00  0.00    +0.000 N 
ATOM     19  H   UNL     1       2.585   9.498  20.143  0.00  0.00    +0.000 HD
BRANCH  18  20
ATOM     20  C   UNL     1       0.804  10.526  20.423  0.00  0.00    +0.000 A 
ATOM     21  C   UNL     1       0.922  11.877  20.035  0.00  0.00    +0.000 A 
ATOM     22  C   UNL     1       1.822  12.366  18.934  0.00  0.00    +0.000 C 
ATOM     23  C   UNL     1       0.099  12.843  20.650  0.00  0.00    +0.000 A 
ATOM     24  C   UNL     1      -0.862  12.486  21.596  0.00  0.00    +0.000 A 
ATOM     25  C   UNL     1      -1.754  13.517  22.222  0.00  0.00    +0.000 C 
ATOM     26  C   UNL     1      -1.001  11.139  21.939  0.00  0.00    +0.000 A 
ATOM     27  C   UNL     1      -0.180  10.152  21.366  0.00  0.00    +0.000 A 
ATOM     28  C   UNL     1      -0.362   8.727  21.815  0.00  0.00    +0.000 C 
ENDBRANCH  18  20
ENDBRANCH  15  16
ENDBRANCH   1  15
TORSDOF 6
ENDMDL
MODEL 7
REMARK VINA RESULT:      -7.2      1.872      2.405
REMARK  Name = 
REMARK  10 active torsions:
REMARK  status: ('A' for Active; 'I' for Inactive)
REMARK    1  A    between atoms: C_1  and  O_2
REMARK    2  A    between atoms: O_2  and  C_3
REMARK    3  A    between atoms: C_7  and  N_8
REMARK    4  A    between atoms: C_12  and  S_13
REMARK    5  A    between atoms: S_13  and  C_14
REMARK    6  A    between atoms: C_14  and  C_15
REMARK    7  A    between atoms: N_17  and  C_18
REMARK    8  A    between atoms: C_19  and  C_20
REMARK    9  A    between atoms: C_22  and  C_23
REMARK   10  A    between atoms: C_25  and  C_26
REMARK                            x       y       z     vdW  Elec       q    Type
REMARK                         _______ _______ _______ _____ _____    ______ ____
ROOT
ATOM      1  S   UNL     1       2.582   7.120  19.297  0.00  0.00    +0.000 S 
ENDROOT
BRANCH   1   6
ATOM      2  N   UNL     1       4.080   5.223  17.910  0.00  0.00    +0.000 N 
ATOM      3  C   UNL     1       3.784   4.156  17.074  0.00  0.00    +0.000 A 
ATOM      4  C   UNL     1       2.431   3.942  17.186  0.00  0.00    +0.000 A 
ATOM      5  N   UNL     1       1.859   4.864  18.011  0.00  0.00    +0.000 NA
ATOM      6  C   UNL     1       2.843   5.642  18.408  0.00  0.00    +0.000 A 
BRANCH   2  11
ATOM      7  C   UNL     1       7.188   7.296  17.699  0.00  0.00    +0.000 A 
ATOM      8  C   UNL     1       7.983   6.668  18.660  0.00  0.00    +0.000 A 
ATOM      9  C   UNL     1       7.512   5.555  19.350  0.00  0.00    +0.000 A 
ATOM     10  C   UNL     1       6.232   5.066  19.095  0.00  0.00    +0.000 A 
ATOM     11  C   UNL     1       5.401   5.705  18.167  0.00  0.00    +0.000 A 
ATOM     12  C   UNL     1       5.897   6.816  17.453  0.00  0.00    +0.000 A 
BRANCH   7  14
ATOM     13  C   UNL     1       8.333   9.377  17.909  0.00  0.00    +0.000 C 
ATOM     14  O   UNL     1       7.790   8.357  17.082  0.00  0.00    +0.000 OA
ENDBRANCH   7  14
ENDBRANCH   2  11
ENDBRANCH   1   6
BRANCH   1  15
ATOM     15  C   UNL     1       1.886   8.211  18.022  0.00  0.00    +0.000 C 
BRANCH  15  16
ATOM     16  C   UNL     1       1.013   9.290  18.655  0.00  0.00    +0.000 C 
ATOM     17  O   UNL     1       0.068   9.783  18.042  0.00  0.00    +0.000 OA
ATOM     18  N   UNL     1       1.366   9.605  19.966  0.00  0.00    +0.000 N 
ATOM     19  H   UNL     1       2.357   9.500  20.143  0.00  0.00    +0.000 HD
BRANCH  18  20
ATOM     20  C   UNL     1       0.696  10.607  20.712  0.00  0.00    +0.000 A 
ATOM     21  C   UNL     1      -0.211  10.285  21.742  0.00  0.00    +0.000 A 
ATOM     22  C   UNL     1      -0.485   8.885  22.221  0.00  0.00    +0.000 C 
ATOM     23  C   UNL     1      -0.860  11.325  22.438  0.00  0.00    +0.000 A 
ATOM     24  C   UNL     1      -0.588  12.666  22.163  0.00  0.00    +0.000 A 
ATOM     25  C   UNL     1      -1.261  13.767  22.930  0.00  0.00    +0.000 C 
ATOM     26  C   UNL     1       0.347  12.973  21.172  0.00  0.00    +0.000 A 
ATOM     27  C   UNL     1       0.993  11.961  20.440  0.00  0.00    +0.000 A 
ATOM     28  C   UNL     1       1.958  12.371  19.360  0.00  0.00    +0.000 C 
ENDBRANCH  18  20
ENDBRANCH  15  16
ENDBRANCH   1  15
TORSDOF 6
ENDMDL
MODEL 8
REMARK VINA RESULT:      -7.2      1.901      2.459
REMARK  Name = 
REMARK  10 active torsions:
REMARK  status: ('A' for Active; 'I' for Inactive)
REMARK    1  A    between atoms: C_1  and  O_2
REMARK    2  A    between atoms: O_2  and  C_3
REMARK    3  A    between atoms: C_7  and  N_8
REMARK    4  A    between atoms: C_12  and  S_13
REMARK    5  A    between atoms: S_13  and  C_14
REMARK    6  A    between atoms: C_14  and  C_15
REMARK    7  A    between atoms: N_17  and  C_18
REMARK    8  A    between atoms: C_19  and  C_20
REMARK    9  A    between atoms: C_22  and  C_23
REMARK   10  A    between atoms: C_25  and  C_26
REMARK                            x       y       z     vdW  Elec       q    Type
REMARK                         _______ _______ _______ _____ _____    ______ ____
ROOT
ATOM      1  S   UNL     1       2.556   6.771  19.420  0.00  0.00    +0.000 S 
ENDROOT
BRANCH   1   6
ATOM      2  N   UNL     1       4.125   5.057  17.881  0.00  0.00    +0.000 N 
ATOM      3  C   UNL     1       3.869   4.045  16.968  0.00  0.00    +0.000 A 
ATOM      4  C   UNL     1       2.529   3.760  17.074  0.00  0.00    +0.000 A 
ATOM      5  N   UNL     1       1.924   4.589  17.971  0.00  0.00    +0.000 NA
ATOM      6  C   UNL     1       2.875   5.379  18.419  0.00  0.00    +0.000 A 
BRANCH   2  11
ATOM      7  C   UNL     1       7.192   7.192  17.697  0.00  0.00    +0.000 A 
ATOM      8  C   UNL     1       7.966   6.621  18.708  0.00  0.00    +0.000 A 
ATOM      9  C   UNL     1       7.495   5.525  19.425  0.00  0.00    +0.000 A 
ATOM     10  C   UNL     1       6.236   4.997  19.145  0.00  0.00    +0.000 A 
ATOM     11  C   UNL     1       5.425   5.580  18.164  0.00  0.00    +0.000 A 
ATOM     12  C   UNL     1       5.921   6.673  17.424  0.00  0.00    +0.000 A 
BRANCH   7  14
ATOM     13  C   UNL     1       8.244   9.326  17.860  0.00  0.00    +0.000 C 
ATOM     14  O   UNL     1       7.793   8.243  17.060  0.00  0.00    +0.000 OA
ENDBRANCH   7  14
ENDBRANCH   2  11
ENDBRANCH   1   6
BRANCH   1  15
ATOM     15  C   UNL     1       2.015   8.001  18.198  0.00  0.00    +0.000 C 
BRANCH  15  16
ATOM     16  C   UNL     1       1.469   9.246  18.892  0.00  0.00    +0.000 C 
ATOM     17  O   UNL     1       1.355   9.292  20.116  0.00  0.00    +0.000 OA
ATOM     18  N   UNL     1       1.171  10.293  18.023  0.00  0.00    +0.000 N 
ATOM     19  H   UNL     1       0.870   9.973  17.110  0.00  0.00    +0.000 HD
BRANCH  18  20
ATOM     20  C   UNL     1       0.621  11.520  18.472  0.00  0.00    +0.000 A 
ATOM     21  C   UNL     1       1.415  12.674  18.634  0.00  0.00    +0.000 A 
ATOM     22  C   UNL     1       2.870  12.760  18.261  0.00  0.00    +0.000 C 
ATOM     23  C   UNL     1       0.814  13.861  19.102  0.00  0.00    +0.000 A 
ATOM     24  C   UNL     1      -0.555  13.932  19.360  0.00  0.00    +0.000 A 
ATOM     25  C   UNL     1      -1.190  15.209  19.828  0.00  0.00    +0.000 C 
ATOM     26  C   UNL     1      -1.339  12.795  19.152  0.00  0.00    +0.000 A 
ATOM     27  C   UNL     1      -0.769  11.587  18.713  0.00  0.00    +0.000 A 
ATOM     28  C   UNL     1      -1.672  10.394  18.550  0.00  0.00    +0.000 C 
ENDBRANCH  18  20
ENDBRANCH  15  16
ENDBRANCH   1  15
TORSDOF 6
ENDMDL
MODEL 9
REMARK VINA RESULT:      -7.1      2.525      4.140
REMARK  Name = 
REMARK  10 active torsions:
REMARK  status: ('A' for Active; 'I' for Inactive)
REMARK    1  A    between atoms: C_1  and  O_2
REMARK    2  A    between atoms: O_2  and  C_3
REMARK    3  A    between atoms: C_7  and  N_8
REMARK    4  A    between atoms: C_12  and  S_13
REMARK    5  A    between atoms: S_13  and  C_14
REMARK    6  A    between atoms: C_14  and  C_15
REMARK    7  A    between atoms: N_17  and  C_18
REMARK    8  A    between atoms: C_19  and  C_20
REMARK    9  A    between atoms: C_22  and  C_23
REMARK   10  A    between atoms: C_25  and  C_26
REMARK                            x       y       z     vdW  Elec       q    Type
REMARK                         _______ _______ _______ _____ _____    ______ ____
ROOT
ATOM      1  S   UNL     1       2.466   7.353  18.645  0.00  0.00    +0.000 S 
ENDROOT
BRANCH   1   6
ATOM      2  N   UNL     1       4.177   5.389  17.652  0.00  0.00    +0.000 N 
ATOM      3  C   UNL     1       5.388   5.391  16.977  0.00  0.00    +0.000 A 
ATOM      4  C   UNL     1       5.602   6.687  16.572  0.00  0.00    +0.000 A 
ATOM      5  N   UNL     1       4.606   7.506  17.015  0.00  0.00    +0.000 NA
ATOM      6  C   UNL     1       3.782   6.730  17.685  0.00  0.00    +0.000 A 
BRANCH   2  11
ATOM      7  C   UNL     1       2.869   2.817  20.034  0.00  0.00    +0.000 A 
ATOM      8  C   UNL     1       2.267   1.925  19.146  0.00  0.00    +0.000 A 
ATOM      9  C   UNL     1       2.316   2.152  17.774  0.00  0.00    +0.000 A 
ATOM     10  C   UNL     1       2.957   3.284  17.276  0.00  0.00    +0.000 A 
ATOM     11  C   UNL     1       3.531   4.215  18.150  0.00  0.00    +0.000 A 
ATOM     12  C   UNL     1       3.500   3.963  19.538  0.00  0.00    +0.000 A 
BRANCH   7  14
ATOM     13  C   UNL     1       1.501   2.606  21.976  0.00  0.00    +0.000 C 
ATOM     14  O   UNL     1       2.766   2.452  21.348  0.00  0.00    +0.000 OA
ENDBRANCH   7  14
ENDBRANCH   2  11
ENDBRANCH   1   6
BRANCH   1  15
ATOM     15  C   UNL     1       1.982   8.834  17.710  0.00  0.00    +0.000 C 
BRANCH  15  16
ATOM     16  C   UNL     1       0.999   9.680  18.513  0.00  0.00    +0.000 C 
ATOM     17  O   UNL     1      -0.106   9.972  18.060  0.00  0.00    +0.000 OA
ATOM     18  N   UNL     1       1.461  10.031  19.781  0.00  0.00    +0.000 N 
ATOM     19  H   UNL     1       2.467  10.139  19.818  0.00  0.00    +0.000 HD
BRANCH  18  20
ATOM     20  C   UNL     1       0.707  10.844  20.664  0.00  0.00    +0.000 A 
ATOM     21  C   UNL     1       0.775  12.252  20.617  0.00  0.00    +0.000 A 
ATOM     22  C   UNL     1       1.550  13.028  19.588  0.00  0.00    +0.000 C 
ATOM     23  C   UNL     1       0.015  13.008  21.534  0.00  0.00    +0.000 A 
ATOM     24  C   UNL     1      -0.838  12.395  22.453  0.00  0.00    +0.000 A 
ATOM     25  C   UNL     1      -1.666  13.209  23.404  0.00  0.00    +0.000 C 
ATOM     26  C   UNL     1      -0.931  11.002  22.460  0.00  0.00    +0.000 A 
ATOM     27  C   UNL     1      -0.168  10.216  21.578  0.00  0.00    +0.000 A 
ATOM     28  C   UNL     1      -0.292   8.719  21.672  0.00  0.00    +0.000 C 
ENDBRANCH  18  20
ENDBRANCH  15  16
ENDBRANCH   1  15
TORSDOF 6
ENDMDL
