MODEL 1
REMARK VINA RESULT:      -7.3      0.000      0.000
REMARK  Name = 
REMARK  9 active torsions:
REMARK  status: ('A' for Active; 'I' for Inactive)
REMARK    1  A    between atoms: C_1  and  O_2
REMARK    2  A    between atoms: O_2  and  C_3
REMARK    3  A    between atoms: C_5  and  C_6
REMARK    4  A    between atoms: C_6  and  N_7
REMARK    5  A    between atoms: C_11  and  C_12
REMARK    6  A    between atoms: C_22  and  O_23
REMARK    7  A    between atoms: O_23  and  C_24
REMARK    8  A    between atoms: C_25  and  O_26
REMARK    9  A    between atoms: O_26  and  C_27
REMARK                            x       y       z     vdW  Elec       q    Type
REMARK                         _______ _______ _______ _____ _____    ______ ____
ROOT
ATOM      1  N   UNL     1       3.987   5.457  18.173  0.00  0.00    +0.000 N 
ATOM      2  C   UNL     1       3.381   4.588  17.304  0.00  0.00    +0.000 A 
ATOM      3  N   UNL     1       4.105   4.390  16.224  0.00  0.00    +0.000 NA
ATOM      4  C   UNL     1       5.245   5.155  16.410  0.00  0.00    +0.000 A 
ATOM      5  C   UNL     1       6.399   5.384  15.656  0.00  0.00    +0.000 A 
ATOM      6  N   UNL     1       7.370   6.205  16.140  0.00  0.00    +0.000 NA
ATOM      7  C   UNL     1       7.177   6.761  17.349  0.00  0.00    +0.000 A 
ATOM      8  N   UNL     1       6.125   6.612  18.172  0.00  0.00    +0.000 NA
ATOM      9  C   UNL     1       5.194   5.809  17.632  0.00  0.00    +0.000 A 
ENDROOT
BRANCH   5  10
ATOM     10  C   UNL     1       6.588   4.762  14.359  0.00  0.00    +0.000 A 
ATOM     11  C   UNL     1       6.023   3.676  13.714  0.00  0.00    +0.000 A 
ATOM     12  C   UNL     1       6.645   3.585  12.447  0.00  0.00    +0.000 A 
ATOM     13  C   UNL     1       7.550   4.615  12.391  0.00  0.00    +0.000 A 
ATOM     14  O   UNL     1       7.524   5.331  13.541  0.00  0.00    +0.000 OA
ENDBRANCH   5  10
BRANCH   1  15
ATOM     15  C   UNL     1       3.522   5.802  19.494  0.00  0.00    +0.000 C 
BRANCH  15  18
ATOM     16  C   UNL     1       0.941   8.270  20.801  0.00  0.00    +0.000 A 
ATOM     17  C   UNL     1       1.671   7.085  20.609  0.00  0.00    +0.000 A 
ATOM     18  C   UNL     1       2.526   6.933  19.519  0.00  0.00    +0.000 A 
ATOM     19  C   UNL     1       2.523   7.927  18.539  0.00  0.00    +0.000 A 
ATOM     20  C   UNL     1       1.740   9.090  18.664  0.00  0.00    +0.000 A 
ATOM     21  C   UNL     1       0.952   9.285  19.817  0.00  0.00    +0.000 A 
BRANCH  16  23
ATOM     22  C   UNL     1       0.712   9.326  22.915  0.00  0.00    +0.000 C 
ATOM     23  O   UNL     1       0.187   8.426  21.938  0.00  0.00    +0.000 OA
ENDBRANCH  16  23
BRANCH  20  24
ATOM     24  O   UNL     1       1.917   9.918  17.584  0.00  0.00    +0.000 OA
ATOM     25  C   UNL     1       2.454  11.217  17.770  0.00  0.00    +0.000 C 
ENDBRANCH  20  24
BRANCH  21  26
ATOM     26  O   UNL     1       0.237  10.453  19.877  0.00  0.00    +0.000 OA
ATOM     27  C   UNL     1      -1.051  10.521  19.284  0.00  0.00    +0.000 C 
ENDBRANCH  21  26
ENDBRANCH  15  18
ENDBRANCH   1  15
TORSDOF 6
ENDMDL
MODEL 2
REMARK VINA RESULT:      -7.1      4.024      6.188
REMARK  Name = 
REMARK  9 active torsions:
REMARK  status: ('A' for Active; 'I' for Inactive)
REMARK    1  A    between atoms: C_1  and  O_2
REMARK    2  A    between atoms: O_2  and  C_3
REMARK    3  A    between atoms: C_5  and  C_6
REMARK    4  A    between atoms: C_6  and  N_7
REMARK    5  A    between atoms: C_11  and  C_12
REMARK    6  A    between atoms: C_22  and  O_23
REMARK    7  A    between atoms: O_23  and  C_24
REMARK    8  A    between atoms: C_25  and  O_26
REMARK    9  A    between atoms: O_26  and  C_27
REMARK                            x       y       z     vdW  Elec       q    Type
REMARK                         _______ _______ _______ _____ _____    ______ ____
ROOT
ATOM      1  N   UNL     1       1.096   9.303  20.023  0.00  0.00    +0.000 N 
ATOM      2  C   UNL     1       0.683   8.655  21.158  0.00  0.00    +0.000 A 
ATOM      3  N   UNL     1       1.092   7.405  21.184  0.00  0.00    +0.000 NA
ATOM      4  C   UNL     1       1.822   7.241  20.018  0.00  0.00    +0.000 A 
ATOM      5  C   UNL     1       2.520   6.174  19.447  0.00  0.00    +0.000 A 
ATOM      6  N   UNL     1       3.163   6.345  18.261  0.00  0.00    +0.000 NA
ATOM      7  C   UNL     1       3.105   7.558  17.685  0.00  0.00    +0.000 A 
ATOM      8  N   UNL     1       2.482   8.661  18.134  0.00  0.00    +0.000 NA
ATOM      9  C   UNL     1       1.850   8.425  19.295  0.00  0.00    +0.000 A 
ENDROOT
BRANCH   5  10
ATOM     10  C   UNL     1       2.577   4.877  20.096  0.00  0.00    +0.000 A 
ATOM     11  C   UNL     1       1.806   4.235  21.049  0.00  0.00    +0.000 A 
ATOM     12  C   UNL     1       2.394   2.967  21.263  0.00  0.00    +0.000 A 
ATOM     13  C   UNL     1       3.486   2.907  20.434  0.00  0.00    +0.000 A 
ATOM     14  O   UNL     1       3.606   4.056  19.726  0.00  0.00    +0.000 OA
ENDBRANCH   5  10
BRANCH   1  15
ATOM     15  C   UNL     1       0.919  10.705  19.733  0.00  0.00    +0.000 C 
BRANCH  15  18
ATOM     16  C   UNL     1      -2.215  10.450  17.593  0.00  0.00    +0.000 A 
ATOM     17  C   UNL     1      -0.873  10.368  18.003  0.00  0.00    +0.000 A 
ATOM     18  C   UNL     1      -0.423  11.044  19.136  0.00  0.00    +0.000 A 
ATOM     19  C   UNL     1      -1.303  11.927  19.767  0.00  0.00    +0.000 A 
ATOM     20  C   UNL     1      -2.630  12.090  19.329  0.00  0.00    +0.000 A 
ATOM     21  C   UNL     1      -3.110  11.329  18.243  0.00  0.00    +0.000 A 
BRANCH  16  23
ATOM     22  C   UNL     1      -2.788  10.382  15.290  0.00  0.00    +0.000 C 
ATOM     23  O   UNL     1      -2.647   9.691  16.533  0.00  0.00    +0.000 OA
ENDBRANCH  16  23
BRANCH  20  24
ATOM     24  O   UNL     1      -3.296  12.998  20.114  0.00  0.00    +0.000 OA
ATOM     25  C   UNL     1      -2.590  13.733  21.098  0.00  0.00    +0.000 C 
ENDBRANCH  20  24
BRANCH  21  26
ATOM     26  O   UNL     1      -4.420  11.526  17.891  0.00  0.00    +0.000 OA
ATOM     27  C   UNL     1      -5.436  10.730  18.483  0.00  0.00    +0.000 C 
ENDBRANCH  21  26
ENDBRANCH  15  18
ENDBRANCH   1  15
TORSDOF 6
ENDMDL
MODEL 3
REMARK VINA RESULT:      -7.1      3.684      5.848
REMARK  Name = 
REMARK  9 active torsions:
REMARK  status: ('A' for Active; 'I' for Inactive)
REMARK    1  A    between atoms: C_1  and  O_2
REMARK    2  A    between atoms: O_2  and  C_3
REMARK    3  A    between atoms: C_5  and  C_6
REMARK    4  A    between atoms: C_6  and  N_7
REMARK    5  A    between atoms: C_11  and  C_12
REMARK    6  A    between atoms: C_22  and  O_23
REMARK    7  A    between atoms: O_23  and  C_24
REMARK    8  A    between atoms: C_25  and  O_26
REMARK    9  A    between atoms: O_26  and  C_27
REMARK                            x       y       z     vdW  Elec       q    Type
REMARK                         _______ _______ _______ _____ _____    ______ ____
ROOT
ATOM      1  N   UNL     1       1.351  10.160  18.769  0.00  0.00    +0.000 N 
ATOM      2  C   UNL     1       2.056   9.874  17.630  0.00  0.00    +0.000 A 
ATOM      3  N   UNL     1       2.561   8.660  17.658  0.00  0.00    +0.000 NA
ATOM      4  C   UNL     1       2.148   8.127  18.868  0.00  0.00    +0.000 A 
ATOM      5  C   UNL     1       2.333   6.897  19.504  0.00  0.00    +0.000 A 
ATOM      6  N   UNL     1       1.768   6.675  20.721  0.00  0.00    +0.000 NA
ATOM      7  C   UNL     1       1.035   7.663  21.263  0.00  0.00    +0.000 A 
ATOM      8  N   UNL     1       0.775   8.879  20.752  0.00  0.00    +0.000 NA
ATOM      9  C   UNL     1       1.375   9.045  19.562  0.00  0.00    +0.000 A 
ENDROOT
BRANCH   5  10
ATOM     10  C   UNL     1       3.118   5.841  18.891  0.00  0.00    +0.000 A 
ATOM     11  C   UNL     1       2.941   5.012  17.798  0.00  0.00    +0.000 A 
ATOM     12  C   UNL     1       4.085   4.184  17.724  0.00  0.00    +0.000 A 
ATOM     13  C   UNL     1       4.892   4.553  18.771  0.00  0.00    +0.000 A 
ATOM     14  O   UNL     1       4.316   5.553  19.483  0.00  0.00    +0.000 OA
ENDBRANCH   5  10
BRANCH   1  15
ATOM     15  C   UNL     1       0.578  11.354  19.015  0.00  0.00    +0.000 C 
BRANCH  15  18
ATOM     16  C   UNL     1      -3.166  11.937  19.327  0.00  0.00    +0.000 A 
ATOM     17  C   UNL     1      -1.801  11.854  19.650  0.00  0.00    +0.000 A 
ATOM     18  C   UNL     1      -0.906  11.174  18.826  0.00  0.00    +0.000 A 
ATOM     19  C   UNL     1      -1.424  10.448  17.751  0.00  0.00    +0.000 A 
ATOM     20  C   UNL     1      -2.799  10.447  17.451  0.00  0.00    +0.000 A 
ATOM     21  C   UNL     1      -3.688  11.217  18.229  0.00  0.00    +0.000 A 
BRANCH  16  23
ATOM     22  C   UNL     1      -3.401  13.829  20.742  0.00  0.00    +0.000 C 
ATOM     23  O   UNL     1      -4.002  12.700  20.106  0.00  0.00    +0.000 OA
ENDBRANCH  16  23
BRANCH  20  24
ATOM     24  O   UNL     1      -3.059   9.673  16.348  0.00  0.00    +0.000 OA
ATOM     25  C   UNL     1      -2.975  10.239  15.052  0.00  0.00    +0.000 C 
ENDBRANCH  20  24
BRANCH  21  26
ATOM     26  O   UNL     1      -5.007  11.184  17.860  0.00  0.00    +0.000 OA
ATOM     27  C   UNL     1      -5.548  12.242  17.081  0.00  0.00    +0.000 C 
ENDBRANCH  21  26
ENDBRANCH  15  18
ENDBRANCH   1  15
TORSDOF 6
ENDMDL
MODEL 4
REMARK VINA RESULT:      -7.1      2.932      8.299
REMARK  Name = 
REMARK  9 active torsions:
REMARK  status: ('A' for Active; 'I' for Inactive)
REMARK    1  A    between atoms: C_1  and  O_2
REMARK    2  A    between atoms: O_2  and  C_3
REMARK    3  A    between atoms: C_5  and  C_6
REMARK    4  A    between atoms: C_6  and  N_7
REMARK    5  A    between atoms: C_11  and  C_12
REMARK    6  A    between atoms: C_22  and  O_23
REMARK    7  A    between atoms: O_23  and  C_24
REMARK    8  A    between atoms: C_25  and  O_26
REMARK    9  A    between atoms: O_26  and  C_27
REMARK                            x       y       z     vdW  Elec       q    Type
REMARK                         _______ _______ _______ _____ _____    ______ ____
ROOT
ATOM      1  N   UNL     1       1.966   7.760  19.255  0.00  0.00    +0.000 N 
ATOM      2  C   UNL     1       2.010   8.392  18.040  0.00  0.00    +0.000 A 
ATOM      3  N   UNL     1       1.590   9.636  18.120  0.00  0.00    +0.000 NA
ATOM      4  C   UNL     1       1.275   9.824  19.456  0.00  0.00    +0.000 A 
ATOM      5  C   UNL     1       0.787  10.902  20.199  0.00  0.00    +0.000 A 
ATOM      6  N   UNL     1       0.592  10.764  21.538  0.00  0.00    +0.000 NA
ATOM      7  C   UNL     1       0.890   9.579  22.098  0.00  0.00    +0.000 A 
ATOM      8  N   UNL     1       1.372   8.477  21.499  0.00  0.00    +0.000 NA
ATOM      9  C   UNL     1       1.525   8.667  20.178  0.00  0.00    +0.000 A 
ENDROOT
BRANCH   5  10
ATOM     10  C   UNL     1       0.485  12.175  19.572  0.00  0.00    +0.000 A 
ATOM     11  C   UNL     1      -0.606  12.684  18.890  0.00  0.00    +0.000 A 
ATOM     12  C   UNL     1      -0.276  14.010  18.525  0.00  0.00    +0.000 A 
ATOM     13  C   UNL     1       0.991  14.234  19.003  0.00  0.00    +0.000 A 
ATOM     14  O   UNL     1       1.460  13.132  19.637  0.00  0.00    +0.000 OA
ENDBRANCH   5  10
BRANCH   1  15
ATOM     15  C   UNL     1       2.459   6.435  19.542  0.00  0.00    +0.000 C 
BRANCH  15  18
ATOM     16  C   UNL     1       5.336   6.104  17.077  0.00  0.00    +0.000 A 
ATOM     17  C   UNL     1       4.315   6.665  17.864  0.00  0.00    +0.000 A 
ATOM     18  C   UNL     1       3.347   5.864  18.468  0.00  0.00    +0.000 A 
ATOM     19  C   UNL     1       3.328   4.504  18.148  0.00  0.00    +0.000 A 
ATOM     20  C   UNL     1       4.291   3.928  17.299  0.00  0.00    +0.000 A 
ATOM     21  C   UNL     1       5.327   4.725  16.769  0.00  0.00    +0.000 A 
BRANCH  16  23
ATOM     22  C   UNL     1       7.433   7.151  17.458  0.00  0.00    +0.000 C 
ATOM     23  O   UNL     1       6.331   6.911  16.582  0.00  0.00    +0.000 OA
ENDBRANCH  16  23
BRANCH  20  24
ATOM     24  O   UNL     1       4.069   2.582  17.148  0.00  0.00    +0.000 OA
ATOM     25  C   UNL     1       3.351   1.870  18.140  0.00  0.00    +0.000 C 
ENDBRANCH  20  24
BRANCH  21  26
ATOM     26  O   UNL     1       6.240   4.087  15.970  0.00  0.00    +0.000 OA
ATOM     27  C   UNL     1       6.048   4.059  14.563  0.00  0.00    +0.000 C 
ENDBRANCH  21  26
ENDBRANCH  15  18
ENDBRANCH   1  15
TORSDOF 6
ENDMDL
MODEL 5
REMARK VINA RESULT:      -7.1      3.784      5.728
REMARK  Name = 
REMARK  9 active torsions:
REMARK  status: ('A' for Active; 'I' for Inactive)
REMARK    1  A    between atoms: C_1  and  O_2
REMARK    2  A    between atoms: O_2  and  C_3
REMARK    3  A    between atoms: C_5  and  C_6
REMARK    4  A    between atoms: C_6  and  N_7
REMARK    5  A    between atoms: C_11  and  C_12
REMARK    6  A    between atoms: C_22  and  O_23
REMARK    7  A    between atoms: O_23  and  C_24
REMARK    8  A    between atoms: C_25  and  O_26
REMARK    9  A    between atoms: O_26  and  C_27
REMARK                            x       y       z     vdW  Elec       q    Type
REMARK                         _______ _______ _______ _____ _____    ______ ____
ROOT
ATOM      1  N   UNL     1       1.250   8.927  19.780  0.00  0.00    +0.000 N 
ATOM      2  C   UNL     1       0.846   8.284  20.921  0.00  0.00    +0.000 A 
ATOM      3  N   UNL     1       1.327   7.062  20.992  0.00  0.00    +0.000 NA
ATOM      4  C   UNL     1       2.096   6.912  19.849  0.00  0.00    +0.000 A 
ATOM      5  C   UNL     1       2.871   5.874  19.326  0.00  0.00    +0.000 A 
ATOM      6  N   UNL     1       3.534   6.052  18.151  0.00  0.00    +0.000 NA
ATOM      7  C   UNL     1       3.420   7.244  17.541  0.00  0.00    +0.000 A 
ATOM      8  N   UNL     1       2.721   8.319  17.944  0.00  0.00    +0.000 NA
ATOM      9  C   UNL     1       2.073   8.076  19.095  0.00  0.00    +0.000 A 
ENDROOT
BRANCH   5  10
ATOM     10  C   UNL     1       2.987   4.600  20.011  0.00  0.00    +0.000 A 
ATOM     11  C   UNL     1       2.337   4.013  21.082  0.00  0.00    +0.000 A 
ATOM     12  C   UNL     1       2.921   2.739  21.266  0.00  0.00    +0.000 A 
ATOM     13  C   UNL     1       3.891   2.620  20.302  0.00  0.00    +0.000 A 
ATOM     14  O   UNL     1       3.939   3.740  19.539  0.00  0.00    +0.000 OA
ENDBRANCH   5  10
BRANCH   1  15
ATOM     15  C   UNL     1       0.998  10.308  19.447  0.00  0.00    +0.000 C 
BRANCH  15  18
ATOM     16  C   UNL     1      -2.367  12.078  19.513  0.00  0.00    +0.000 A 
ATOM     17  C   UNL     1      -1.127  11.561  19.925  0.00  0.00    +0.000 A 
ATOM     18  C   UNL     1      -0.448  10.616  19.158  0.00  0.00    +0.000 A 
ATOM     19  C   UNL     1      -1.103  10.081  18.046  0.00  0.00    +0.000 A 
ATOM     20  C   UNL     1      -2.381  10.522  17.655  0.00  0.00    +0.000 A 
ATOM     21  C   UNL     1      -3.021  11.550  18.378  0.00  0.00    +0.000 A 
BRANCH  16  23
ATOM     22  C   UNL     1      -2.101  14.154  20.636  0.00  0.00    +0.000 C 
ATOM     23  O   UNL     1      -2.959  13.081  20.241  0.00  0.00    +0.000 OA
ENDBRANCH  16  23
BRANCH  20  24
ATOM     24  O   UNL     1      -2.805   9.858  16.531  0.00  0.00    +0.000 OA
ATOM     25  C   UNL     1      -2.771  10.507  15.272  0.00  0.00    +0.000 C 
ENDBRANCH  20  24
BRANCH  21  26
ATOM     26  O   UNL     1      -4.252  11.941  17.921  0.00  0.00    +0.000 OA
ATOM     27  C   UNL     1      -5.417  11.259  18.362  0.00  0.00    +0.000 C 
ENDBRANCH  21  26
ENDBRANCH  15  18
ENDBRANCH   1  15
TORSDOF 6
ENDMDL
MODEL 6
REMARK VINA RESULT:      -7.1      0.198      2.267
REMARK  Name = 
REMARK  9 active torsions:
REMARK  status: ('A' for Active; 'I' for Inactive)
REMARK    1  A    between atoms: C_1  and  O_2
REMARK    2  A    between atoms: O_2  and  C_3
REMARK    3  A    between atoms: C_5  and  C_6
REMARK    4  A    between atoms: C_6  and  N_7
REMARK    5  A    between atoms: C_11  and  C_12
REMARK    6  A    between atoms: C_22  and  O_23
REMARK    7  A    between atoms: O_23  and  C_24
REMARK    8  A    between atoms: C_25  and  O_26
REMARK    9  A    between atoms: O_26  and  C_27
REMARK                            x       y       z     vdW  Elec       q    Type
REMARK                         _______ _______ _______ _____ _____    ______ ____
ROOT
ATOM      1  N   UNL     1       3.853   5.311  18.210  0.00  0.00    +0.000 N 
ATOM      2  C   UNL     1       3.257   4.499  17.282  0.00  0.00    +0.000 A 
ATOM      3  N   UNL     1       4.007   4.344  16.213  0.00  0.00    +0.000 NA
ATOM      4  C   UNL     1       5.154   5.077  16.469  0.00  0.00    +0.000 A 
ATOM      5  C   UNL     1       6.331   5.325  15.759  0.00  0.00    +0.000 A 
ATOM      6  N   UNL     1       7.302   6.102  16.310  0.00  0.00    +0.000 NA
ATOM      7  C   UNL     1       7.086   6.598  17.541  0.00  0.00    +0.000 A 
ATOM      8  N   UNL     1       6.009   6.425  18.327  0.00  0.00    +0.000 NA
ATOM      9  C   UNL     1       5.080   5.668  17.722  0.00  0.00    +0.000 A 
ENDROOT
BRANCH   5  10
ATOM     10  C   UNL     1       6.546   4.767  14.436  0.00  0.00    +0.000 A 
ATOM     11  C   UNL     1       5.995   3.713  13.729  0.00  0.00    +0.000 A 
ATOM     12  C   UNL     1       6.641   3.685  12.471  0.00  0.00    +0.000 A 
ATOM     13  C   UNL     1       7.545   4.718  12.482  0.00  0.00    +0.000 A 
ATOM     14  O   UNL     1       7.496   5.377  13.665  0.00  0.00    +0.000 OA
ENDBRANCH   5  10
BRANCH   1  15
ATOM     15  C   UNL     1       3.357   5.595  19.535  0.00  0.00    +0.000 C 
BRANCH  15  18
ATOM     16  C   UNL     1       1.859   8.953  18.565  0.00  0.00    +0.000 A 
ATOM     17  C   UNL     1       2.728   7.850  18.622  0.00  0.00    +0.000 A 
ATOM     18  C   UNL     1       2.641   6.916  19.652  0.00  0.00    +0.000 A 
ATOM     19  C   UNL     1       1.770   7.184  20.710  0.00  0.00    +0.000 A 
ATOM     20  C   UNL     1       0.944   8.324  20.720  0.00  0.00    +0.000 A 
ATOM     21  C   UNL     1       0.964   9.215  19.627  0.00  0.00    +0.000 A 
BRANCH  16  23
ATOM     22  C   UNL     1       2.429  11.103  17.734  0.00  0.00    +0.000 C 
ATOM     23  O   UNL     1       1.905   9.798  17.483  0.00  0.00    +0.000 OA
ENDBRANCH  16  23
BRANCH  20  24
ATOM     24  O   UNL     1       0.172   8.360  21.855  0.00  0.00    +0.000 OA
ATOM     25  C   UNL     1       0.422   9.339  22.847  0.00  0.00    +0.000 C 
ENDBRANCH  20  24
BRANCH  21  26
ATOM     26  O   UNL     1       0.114  10.288  19.699  0.00  0.00    +0.000 OA
ATOM     27  C   UNL     1      -1.116  10.262  18.988  0.00  0.00    +0.000 C 
ENDBRANCH  21  26
ENDBRANCH  15  18
ENDBRANCH   1  15
TORSDOF 6
ENDMDL
MODEL 7
REMARK VINA RESULT:      -6.9      3.416      5.913
REMARK  Name = 
REMARK  9 active torsions:
REMARK  status: ('A' for Active; 'I' for Inactive)
REMARK    1  A    between atoms: C_1  and  O_2
REMARK    2  A    between atoms: O_2  and  C_3
REMARK    3  A    between atoms: C_5  and  C_6
REMARK    4  A    between atoms: C_6  and  N_7
REMARK    5  A    between atoms: C_11  and  C_12
REMARK    6  A    between atoms: C_22  and  O_23
REMARK    7  A    between atoms: O_23  and  C_24
REMARK    8  A    between atoms: C_25  and  O_26
REMARK    9  A    between atoms: O_26  and  C_27
REMARK                            x       y       z     vdW  Elec       q    Type
REMARK                         _______ _______ _______ _____ _____    ______ ____
ROOT
ATOM      1  N   UNL     1       1.305  10.074  19.040  0.00  0.00    +0.000 N 
ATOM      2  C   UNL     1       1.847   9.966  17.787  0.00  0.00    +0.000 A 
ATOM      3  N   UNL     1       2.358   8.773  17.575  0.00  0.00    +0.000 NA
ATOM      4  C   UNL     1       2.119   8.067  18.743  0.00  0.00    +0.000 A 
ATOM      5  C   UNL     1       2.397   6.766  19.169  0.00  0.00    +0.000 A 
ATOM      6  N   UNL     1       2.006   6.364  20.409  0.00  0.00    +0.000 NA
ATOM      7  C   UNL     1       1.350   7.249  21.178  0.00  0.00    +0.000 A 
ATOM      8  N   UNL     1       1.014   8.517  20.882  0.00  0.00    +0.000 NA
ATOM      9  C   UNL     1       1.443   8.861  19.657  0.00  0.00    +0.000 A 
ENDROOT
BRANCH   5  10
ATOM     10  C   UNL     1       3.096   5.825  18.314  0.00  0.00    +0.000 A 
ATOM     11  C   UNL     1       2.743   4.652  17.672  0.00  0.00    +0.000 A 
ATOM     12  C   UNL     1       3.891   4.203  16.979  0.00  0.00    +0.000 A 
ATOM     13  C   UNL     1       4.876   5.124  17.237  0.00  0.00    +0.000 A 
ATOM     14  O   UNL     1       4.406   6.107  18.042  0.00  0.00    +0.000 OA
ENDBRANCH   5  10
BRANCH   1  15
ATOM     15  C   UNL     1       0.566  11.202  19.553  0.00  0.00    +0.000 C 
BRANCH  15  18
ATOM     16  C   UNL     1      -2.623  10.345  17.666  0.00  0.00    +0.000 A 
ATOM     17  C   UNL     1      -1.261  10.467  17.992  0.00  0.00    +0.000 A 
ATOM     18  C   UNL     1      -0.837  11.314  19.015  0.00  0.00    +0.000 A 
ATOM     19  C   UNL     1      -1.784  12.153  19.608  0.00  0.00    +0.000 A 
ATOM     20  C   UNL     1      -3.143  12.110  19.245  0.00  0.00    +0.000 A 
ATOM     21  C   UNL     1      -3.583  11.181  18.279  0.00  0.00    +0.000 A 
BRANCH  16  23
ATOM     22  C   UNL     1      -3.030   9.892  15.372  0.00  0.00    +0.000 C 
ATOM     23  O   UNL     1      -3.014   9.428  16.723  0.00  0.00    +0.000 OA
ENDBRANCH  16  23
BRANCH  20  24
ATOM     24  O   UNL     1      -3.872  13.017  19.973  0.00  0.00    +0.000 OA
ATOM     25  C   UNL     1      -4.572  12.594  21.130  0.00  0.00    +0.000 C 
ENDBRANCH  20  24
BRANCH  21  26
ATOM     26  O   UNL     1      -4.924  11.184  17.997  0.00  0.00    +0.000 OA
ATOM     27  C   UNL     1      -5.461  12.172  17.130  0.00  0.00    +0.000 C 
ENDBRANCH  21  26
ENDBRANCH  15  18
ENDBRANCH   1  15
TORSDOF 6
ENDMDL
MODEL 8
REMARK VINA RESULT:      -6.8      2.516      4.083
REMARK  Name = 
REMARK  9 active torsions:
REMARK  status: ('A' for Active; 'I' for Inactive)
REMARK    1  A    between atoms: C_1  and  O_2
REMARK    2  A    between atoms: O_2  and  C_3
REMARK    3  A    between atoms: C_5  and  C_6
REMARK    4  A    between atoms: C_6  and  N_7
REMARK    5  A    between atoms: C_11  and  C_12
REMARK    6  A    between atoms: C_22  and  O_23
REMARK    7  A    between atoms: O_23  and  C_24
REMARK    8  A    between atoms: C_25  and  O_26
REMARK    9  A    between atoms: O_26  and  C_27
REMARK                            x       y       z     vdW  Elec       q    Type
REMARK                         _______ _______ _______ _____ _____    ______ ____
ROOT
ATOM      1  N   UNL     1       1.817   7.893  19.812  0.00  0.00    +0.000 N 
ATOM      2  C   UNL     1       2.170   8.604  18.696  0.00  0.00    +0.000 A 
ATOM      3  N   UNL     1       2.927   7.898  17.884  0.00  0.00    +0.000 NA
ATOM      4  C   UNL     1       3.057   6.663  18.497  0.00  0.00    +0.000 A 
ATOM      5  C   UNL     1       3.716   5.476  18.167  0.00  0.00    +0.000 A 
ATOM      6  N   UNL     1       3.635   4.404  19.001  0.00  0.00    +0.000 NA
ATOM      7  C   UNL     1       2.903   4.534  20.121  0.00  0.00    +0.000 A 
ATOM      8  N   UNL     1       2.217   5.610  20.543  0.00  0.00    +0.000 NA
ATOM      9  C   UNL     1       2.351   6.639  19.691  0.00  0.00    +0.000 A 
ENDROOT
BRANCH   5  10
ATOM     10  C   UNL     1       4.490   5.358  16.945  0.00  0.00    +0.000 A 
ATOM     11  C   UNL     1       5.112   6.260  16.101  0.00  0.00    +0.000 A 
ATOM     12  C   UNL     1       5.710   5.505  15.066  0.00  0.00    +0.000 A 
ATOM     13  C   UNL     1       5.420   4.191  15.335  0.00  0.00    +0.000 A 
ATOM     14  O   UNL     1       4.683   4.091  16.467  0.00  0.00    +0.000 OA
ENDBRANCH   5  10
BRANCH   1  15
ATOM     15  C   UNL     1       0.906   8.325  20.843  0.00  0.00    +0.000 C 
BRANCH  15  18
ATOM     16  C   UNL     1       0.610  12.116  20.895  0.00  0.00    +0.000 A 
ATOM     17  C   UNL     1       0.911  10.799  21.283  0.00  0.00    +0.000 A 
ATOM     18  C   UNL     1       0.345   9.707  20.628  0.00  0.00    +0.000 A 
ATOM     19  C   UNL     1      -0.646   9.955  19.676  0.00  0.00    +0.000 A 
ATOM     20  C   UNL     1      -1.026  11.263  19.324  0.00  0.00    +0.000 A 
ATOM     21  C   UNL     1      -0.380  12.366  19.919  0.00  0.00    +0.000 A 
BRANCH  16  23
ATOM     22  C   UNL     1       2.484  13.574  20.876  0.00  0.00    +0.000 C 
ATOM     23  O   UNL     1       1.263  13.166  21.494  0.00  0.00    +0.000 OA
ENDBRANCH  16  23
BRANCH  20  24
ATOM     24  O   UNL     1      -2.006  11.246  18.363  0.00  0.00    +0.000 OA
ATOM     25  C   UNL     1      -2.456  10.011  17.835  0.00  0.00    +0.000 C 
ENDBRANCH  20  24
BRANCH  21  26
ATOM     26  O   UNL     1      -0.789  13.608  19.507  0.00  0.00    +0.000 OA
ATOM     27  C   UNL     1      -0.114  14.253  18.436  0.00  0.00    +0.000 C 
ENDBRANCH  21  26
ENDBRANCH  15  18
ENDBRANCH   1  15
TORSDOF 6
ENDMDL
MODEL 9
REMARK VINA RESULT:      -6.8      2.481      4.075
REMARK  Name = 
REMARK  9 active torsions:
REMARK  status: ('A' for Active; 'I' for Inactive)
REMARK    1  A    between atoms: C_1  and  O_2
REMARK    2  A    between atoms: O_2  and  C_3
REMARK    3  A    between atoms: C_5  and  C_6
REMARK    4  A    between atoms: C_6  and  N_7
REMARK    5  A    between atoms: C_11  and  C_12
REMARK    6  A    between atoms: C_22  and  O_23
REMARK    7  A    between atoms: O_23  and  C_24
REMARK    8  A    between atoms: C_25  and  O_26
REMARK    9  A    between atoms: O_26  and  C_27
REMARK                            x       y       z     vdW  Elec       q    Type
REMARK                         _______ _______ _______ _____ _____    ______ ____
ROOT
ATOM      1  N   UNL     1       2.054   7.956  19.382  0.00  0.00    +0.000 N 
ATOM      2  C   UNL     1       2.472   8.562  18.226  0.00  0.00    +0.000 A 
ATOM      3  N   UNL     1       3.237   7.771  17.506  0.00  0.00    +0.000 NA
ATOM      4  C   UNL     1       3.304   6.587  18.222  0.00  0.00    +0.000 A 
ATOM      5  C   UNL     1       3.937   5.358  18.017  0.00  0.00    +0.000 A 
ATOM      6  N   UNL     1       3.790   4.362  18.932  0.00  0.00    +0.000 NA
ATOM      7  C   UNL     1       3.019   4.605  20.006  0.00  0.00    +0.000 A 
ATOM      8  N   UNL     1       2.352   5.731  20.311  0.00  0.00    +0.000 NA
ATOM      9  C   UNL     1       2.552   6.682  19.384  0.00  0.00    +0.000 A 
ENDROOT
BRANCH   5  10
ATOM     10  C   UNL     1       4.753   5.118  16.842  0.00  0.00    +0.000 A 
ATOM     11  C   UNL     1       5.224   5.911  15.810  0.00  0.00    +0.000 A 
ATOM     12  C   UNL     1       5.979   5.069  14.960  0.00  0.00    +0.000 A 
ATOM     13  C   UNL     1       5.925   3.816  15.518  0.00  0.00    +0.000 A 
ATOM     14  O   UNL     1       5.187   3.835  16.655  0.00  0.00    +0.000 OA
ENDBRANCH   5  10
BRANCH   1  15
ATOM     15  C   UNL     1       1.117   8.498  20.336  0.00  0.00    +0.000 C 
BRANCH  15  18
ATOM     16  C   UNL     1      -0.956  11.445  19.121  0.00  0.00    +0.000 A 
ATOM     17  C   UNL     1      -0.363  10.172  19.188  0.00  0.00    +0.000 A 
ATOM     18  C   UNL     1       0.702   9.918  20.050  0.00  0.00    +0.000 A 
ATOM     19  C   UNL     1       1.265  10.997  20.735  0.00  0.00    +0.000 A 
ATOM     20  C   UNL     1       0.742  12.298  20.626  0.00  0.00    +0.000 A 
ATOM     21  C   UNL     1      -0.398  12.533  19.829  0.00  0.00    +0.000 A 
BRANCH  16  23
ATOM     22  C   UNL     1      -2.580  10.468  17.690  0.00  0.00    +0.000 C 
ATOM     23  O   UNL     1      -2.068  11.635  18.337  0.00  0.00    +0.000 OA
ENDBRANCH  16  23
BRANCH  20  24
ATOM     24  O   UNL     1       1.456  13.180  21.399  0.00  0.00    +0.000 OA
ATOM     25  C   UNL     1       2.652  13.751  20.898  0.00  0.00    +0.000 C 
ENDBRANCH  20  24
BRANCH  21  26
ATOM     26  O   UNL     1      -0.862  13.822  19.792  0.00  0.00    +0.000 OA
ATOM     27  C   UNL     1      -0.308  14.745  18.864  0.00  0.00    +0.000 C 
ENDBRANCH  21  26
ENDBRANCH  15  18
ENDBRANCH   1  15
TORSDOF 6
ENDMDL
