MODEL 1
REMARK VINA RESULT:      -7.9      0.000      0.000
REMARK  Name = 
REMARK  5 active torsions:
REMARK  status: ('A' for Active; 'I' for Inactive)
REMARK    1  A    between atoms: C_2  and  C_3
REMARK    2  A    between atoms: C_5  and  C_6
REMARK    3  A    between atoms: C_6  and  O_7
REMARK    4  A    between atoms: O_7  and  C_8
REMARK    5  A    between atoms: C_16  and  N_17
REMARK                            x       y       z     vdW  Elec       q    Type
REMARK                         _______ _______ _______ _____ _____    ______ ____
ROOT
ATOM      1  C   UNL     1       6.530   5.499  16.287  0.00  0.00    +0.000 A 
ATOM      2  N   UNL     1       7.590   6.375  16.394  0.00  0.00    +0.000 NA
ATOM      3  C   UNL     1       7.358   7.009  17.526  0.00  0.00    +0.000 A 
ATOM      4  O   UNL     1       6.224   6.596  18.176  0.00  0.00    +0.000 OA
ATOM      5  C   UNL     1       5.669   5.625  17.369  0.00  0.00    +0.000 A 
ENDROOT
BRANCH   5   6
ATOM      6  N   UNL     1       4.498   5.035  17.785  0.00  0.00    +0.000 N 
ATOM      7  C   UNL     1       4.565   3.700  18.396  0.00  0.00    +0.000 C 
ATOM      8  C   UNL     1       3.683   2.697  17.651  0.00  0.00    +0.000 C 
ATOM      9  C   UNL     1       2.189   2.810  17.941  0.00  0.00    +0.000 C 
ATOM     10  C   UNL     1       1.588   4.182  17.656  0.00  0.00    +0.000 C 
ATOM     11  C   UNL     1       2.100   5.245  18.620  0.00  0.00    +0.000 C 
ATOM     12  C   UNL     1       3.394   5.924  18.182  0.00  0.00    +0.000 C 
ENDBRANCH   5   6
BRANCH   1  14
ATOM     13  N   UNL     1       6.313   3.959  14.216  0.00  0.00    +0.000 NA
ATOM     14  C   UNL     1       6.414   4.631  15.159  0.00  0.00    +0.000 C 
ENDBRANCH   1  14
BRANCH   3  15
ATOM     15  C   UNL     1       8.214   8.019  18.214  0.00  0.00    +0.000 C 
BRANCH  15  16
ATOM     16  O   UNL     1       7.937   9.312  17.664  0.00  0.00    +0.000 OA
BRANCH  16  17
ATOM     17  C   UNL     1       8.600  10.372  18.236  0.00  0.00    +0.000 A 
ATOM     18  C   UNL     1       8.650  11.674  17.732  0.00  0.00    +0.000 A 
ATOM     19  C   UNL     1       9.358  12.672  18.416  0.00  0.00    +0.000 A 
ATOM     20  C   UNL     1      10.020  12.368  19.602  0.00  0.00    +0.000 A 
ATOM     21 CL   UNL     1      10.882  13.599  20.438  0.00  0.00    +0.000 Cl
ATOM     22  C   UNL     1       9.983  11.073  20.111  0.00  0.00    +0.000 A 
ATOM     23  C   UNL     1       9.275  10.078  19.427  0.00  0.00    +0.000 A 
ENDBRANCH  16  17
ENDBRANCH  15  16
ENDBRANCH   3  15
TORSDOF 5
ENDMDL
MODEL 2
REMARK VINA RESULT:      -7.8      5.136      6.628
REMARK  Name = 
REMARK  5 active torsions:
REMARK  status: ('A' for Active; 'I' for Inactive)
REMARK    1  A    between atoms: C_2  and  C_3
REMARK    2  A    between atoms: C_5  and  C_6
REMARK    3  A    between atoms: C_6  and  O_7
REMARK    4  A    between atoms: O_7  and  C_8
REMARK    5  A    between atoms: C_16  and  N_17
REMARK                            x       y       z     vdW  Elec       q    Type
REMARK                         _______ _______ _______ _____ _____    ______ ____
ROOT
ATOM      1  C   UNL     1       3.938   6.747  17.728  0.00  0.00    +0.000 A 
ATOM      2  N   UNL     1       5.190   6.937  17.182  0.00  0.00    +0.000 NA
ATOM      3  C   UNL     1       5.770   5.760  17.312  0.00  0.00    +0.000 A 
ATOM      4  O   UNL     1       4.975   4.807  17.894  0.00  0.00    +0.000 OA
ATOM      5  C   UNL     1       3.787   5.445  18.184  0.00  0.00    +0.000 A 
ENDROOT
BRANCH   5   6
ATOM      6  N   UNL     1       2.795   4.710  18.792  0.00  0.00    +0.000 N 
ATOM      7  C   UNL     1       2.163   5.252  20.003  0.00  0.00    +0.000 C 
ATOM      8  C   UNL     1       2.279   4.282  21.180  0.00  0.00    +0.000 C 
ATOM      9  C   UNL     1       1.312   3.102  21.142  0.00  0.00    +0.000 C 
ATOM     10  C   UNL     1       1.405   2.243  19.886  0.00  0.00    +0.000 C 
ATOM     11  C   UNL     1       0.925   2.986  18.645  0.00  0.00    +0.000 C 
ATOM     12  C   UNL     1       2.003   3.805  17.942  0.00  0.00    +0.000 C 
ENDBRANCH   5   6
BRANCH   1  14
ATOM     13  N   UNL     1       2.207   8.672  17.821  0.00  0.00    +0.000 NA
ATOM     14  C   UNL     1       2.999   7.822  17.789  0.00  0.00    +0.000 C 
ENDBRANCH   1  14
BRANCH   3  15
ATOM     15  C   UNL     1       7.110   5.329  16.820  0.00  0.00    +0.000 C 
BRANCH  15  16
ATOM     16  O   UNL     1       7.321   5.875  15.512  0.00  0.00    +0.000 OA
BRANCH  16  17
ATOM     17  C   UNL     1       6.953   5.079  14.454  0.00  0.00    +0.000 A 
ATOM     18  C   UNL     1       7.634   4.965  13.239  0.00  0.00    +0.000 A 
ATOM     19  C   UNL     1       7.157   4.110  12.237  0.00  0.00    +0.000 A 
ATOM     20  C   UNL     1       5.997   3.370  12.446  0.00  0.00    +0.000 A 
ATOM     21 CL   UNL     1       5.422   2.317  11.213  0.00  0.00    +0.000 Cl
ATOM     22  C   UNL     1       5.306   3.479  13.649  0.00  0.00    +0.000 A 
ATOM     23  C   UNL     1       5.784   4.333  14.650  0.00  0.00    +0.000 A 
ENDBRANCH  16  17
ENDBRANCH  15  16
ENDBRANCH   3  15
TORSDOF 5
ENDMDL
MODEL 3
REMARK VINA RESULT:      -7.8      0.256      1.033
REMARK  Name = 
REMARK  5 active torsions:
REMARK  status: ('A' for Active; 'I' for Inactive)
REMARK    1  A    between atoms: C_2  and  C_3
REMARK    2  A    between atoms: C_5  and  C_6
REMARK    3  A    between atoms: C_6  and  O_7
REMARK    4  A    between atoms: O_7  and  C_8
REMARK    5  A    between atoms: C_16  and  N_17
REMARK                            x       y       z     vdW  Elec       q    Type
REMARK                         _______ _______ _______ _____ _____    ______ ____
ROOT
ATOM      1  C   UNL     1       6.355   5.404  16.238  0.00  0.00    +0.000 A 
ATOM      2  N   UNL     1       7.437   6.252  16.347  0.00  0.00    +0.000 NA
ATOM      3  C   UNL     1       7.272   6.819  17.526  0.00  0.00    +0.000 A 
ATOM      4  O   UNL     1       6.160   6.388  18.203  0.00  0.00    +0.000 OA
ATOM      5  C   UNL     1       5.548   5.479  17.364  0.00  0.00    +0.000 A 
ENDROOT
BRANCH   5   6
ATOM      6  N   UNL     1       4.385   4.887  17.800  0.00  0.00    +0.000 N 
ATOM      7  C   UNL     1       4.471   3.579  18.463  0.00  0.00    +0.000 C 
ATOM      8  C   UNL     1       3.608   2.532  17.753  0.00  0.00    +0.000 C 
ATOM      9  C   UNL     1       2.111   2.633  18.033  0.00  0.00    +0.000 C 
ATOM     10  C   UNL     1       1.489   3.982  17.692  0.00  0.00    +0.000 C 
ATOM     11  C   UNL     1       1.980   5.090  18.616  0.00  0.00    +0.000 C 
ATOM     12  C   UNL     1       3.265   5.773  18.157  0.00  0.00    +0.000 C 
ENDBRANCH   5   6
BRANCH   1  14
ATOM     13  N   UNL     1       6.010   3.999  14.090  0.00  0.00    +0.000 NA
ATOM     14  C   UNL     1       6.168   4.610  15.065  0.00  0.00    +0.000 C 
ENDBRANCH   1  14
BRANCH   3  15
ATOM     15  C   UNL     1       8.180   7.768  18.233  0.00  0.00    +0.000 C 
BRANCH  15  16
ATOM     16  O   UNL     1       8.052   9.064  17.635  0.00  0.00    +0.000 OA
BRANCH  16  17
ATOM     17  C   UNL     1       8.638  10.107  18.312  0.00  0.00    +0.000 A 
ATOM     18  C   UNL     1       9.302  10.017  19.537  0.00  0.00    +0.000 A 
ATOM     19  C   UNL     1       9.865  11.158  20.124  0.00  0.00    +0.000 A 
ATOM     20  C   UNL     1       9.760  12.392  19.488  0.00  0.00    +0.000 A 
ATOM     21 CL   UNL     1      10.458  13.788  20.212  0.00  0.00    +0.000 Cl
ATOM     22  C   UNL     1       9.095  12.496  18.270  0.00  0.00    +0.000 A 
ATOM     23  C   UNL     1       8.535  11.355  17.685  0.00  0.00    +0.000 A 
ENDBRANCH  16  17
ENDBRANCH  15  16
ENDBRANCH   3  15
TORSDOF 5
ENDMDL
MODEL 4
REMARK VINA RESULT:      -7.7      5.022      6.573
REMARK  Name = 
REMARK  5 active torsions:
REMARK  status: ('A' for Active; 'I' for Inactive)
REMARK    1  A    between atoms: C_2  and  C_3
REMARK    2  A    between atoms: C_5  and  C_6
REMARK    3  A    between atoms: C_6  and  O_7
REMARK    4  A    between atoms: O_7  and  C_8
REMARK    5  A    between atoms: C_16  and  N_17
REMARK                            x       y       z     vdW  Elec       q    Type
REMARK                         _______ _______ _______ _____ _____    ______ ____
ROOT
ATOM      1  C   UNL     1       3.938   6.777  17.807  0.00  0.00    +0.000 A 
ATOM      2  N   UNL     1       5.204   7.004  17.311  0.00  0.00    +0.000 NA
ATOM      3  C   UNL     1       5.827   5.859  17.510  0.00  0.00    +0.000 A 
ATOM      4  O   UNL     1       5.047   4.892  18.090  0.00  0.00    +0.000 OA
ATOM      5  C   UNL     1       3.821   5.487  18.303  0.00  0.00    +0.000 A 
ENDROOT
BRANCH   5   6
ATOM      6  N   UNL     1       2.835   4.729  18.891  0.00  0.00    +0.000 N 
ATOM      7  C   UNL     1       2.208   5.231  20.123  0.00  0.00    +0.000 C 
ATOM      8  C   UNL     1       2.333   4.222  21.267  0.00  0.00    +0.000 C 
ATOM      9  C   UNL     1       1.367   3.042  21.195  0.00  0.00    +0.000 C 
ATOM     10  C   UNL     1       1.455   2.225  19.912  0.00  0.00    +0.000 C 
ATOM     11  C   UNL     1       0.967   3.007  18.698  0.00  0.00    +0.000 C 
ATOM     12  C   UNL     1       2.040   3.852  18.017  0.00  0.00    +0.000 C 
ENDBRANCH   5   6
BRANCH   1  14
ATOM     13  N   UNL     1       2.127   8.629  17.743  0.00  0.00    +0.000 NA
ATOM     14  C   UNL     1       2.952   7.811  17.786  0.00  0.00    +0.000 C 
ENDBRANCH   1  14
BRANCH   3  15
ATOM     15  C   UNL     1       7.207   5.471  17.095  0.00  0.00    +0.000 C 
BRANCH  15  16
ATOM     16  O   UNL     1       7.410   5.870  15.734  0.00  0.00    +0.000 OA
BRANCH  16  17
ATOM     17  C   UNL     1       6.880   5.044  14.772  0.00  0.00    +0.000 A 
ATOM     18  C   UNL     1       5.745   4.242  14.917  0.00  0.00    +0.000 A 
ATOM     19  C   UNL     1       5.299   3.446  13.854  0.00  0.00    +0.000 A 
ATOM     20  C   UNL     1       5.990   3.448  12.645  0.00  0.00    +0.000 A 
ATOM     21 CL   UNL     1       5.433   2.472  11.342  0.00  0.00    +0.000 Cl
ATOM     22  C   UNL     1       7.125   4.237  12.490  0.00  0.00    +0.000 A 
ATOM     23  C   UNL     1       7.568   5.033  13.553  0.00  0.00    +0.000 A 
ENDBRANCH  16  17
ENDBRANCH  15  16
ENDBRANCH   3  15
TORSDOF 5
ENDMDL
MODEL 5
REMARK VINA RESULT:      -7.6      5.066      6.556
REMARK  Name = 
REMARK  5 active torsions:
REMARK  status: ('A' for Active; 'I' for Inactive)
REMARK    1  A    between atoms: C_2  and  C_3
REMARK    2  A    between atoms: C_5  and  C_6
REMARK    3  A    between atoms: C_6  and  O_7
REMARK    4  A    between atoms: O_7  and  C_8
REMARK    5  A    between atoms: C_16  and  N_17
REMARK                            x       y       z     vdW  Elec       q    Type
REMARK                         _______ _______ _______ _____ _____    ______ ____
ROOT
ATOM      1  C   UNL     1       4.153   6.612  17.759  0.00  0.00    +0.000 A 
ATOM      2  N   UNL     1       5.353   6.899  17.142  0.00  0.00    +0.000 NA
ATOM      3  C   UNL     1       6.047   5.786  17.276  0.00  0.00    +0.000 A 
ATOM      4  O   UNL     1       5.375   4.783  17.926  0.00  0.00    +0.000 OA
ATOM      5  C   UNL     1       4.148   5.318  18.260  0.00  0.00    +0.000 A 
ENDROOT
BRANCH   5   6
ATOM      6  N   UNL     1       3.262   4.515  18.939  0.00  0.00    +0.000 N 
ATOM      7  C   UNL     1       3.223   3.082  18.614  0.00  0.00    +0.000 C 
ATOM      8  C   UNL     1       1.820   2.639  18.193  0.00  0.00    +0.000 C 
ATOM      9  C   UNL     1       0.830   2.457  19.341  0.00  0.00    +0.000 C 
ATOM     10  C   UNL     1       0.631   3.692  20.211  0.00  0.00    +0.000 C 
ATOM     11  C   UNL     1       1.876   4.030  21.022  0.00  0.00    +0.000 C 
ATOM     12  C   UNL     1       2.877   4.927  20.299  0.00  0.00    +0.000 C 
ENDBRANCH   5   6
BRANCH   1  14
ATOM     13  N   UNL     1       2.290   8.408  17.863  0.00  0.00    +0.000 NA
ATOM     14  C   UNL     1       3.122   7.597  17.839  0.00  0.00    +0.000 C 
ENDBRANCH   1  14
BRANCH   3  15
ATOM     15  C   UNL     1       7.396   5.464  16.727  0.00  0.00    +0.000 C 
BRANCH  15  16
ATOM     16  O   UNL     1       7.447   5.874  15.355  0.00  0.00    +0.000 OA
BRANCH  16  17
ATOM     17  C   UNL     1       6.876   5.019  14.443  0.00  0.00    +0.000 A 
ATOM     18  C   UNL     1       5.682   4.315  14.617  0.00  0.00    +0.000 A 
ATOM     19  C   UNL     1       5.200   3.475  13.604  0.00  0.00    +0.000 A 
ATOM     20  C   UNL     1       5.913   3.335  12.417  0.00  0.00    +0.000 A 
ATOM     21 CL   UNL     1       5.312   2.307  11.176  0.00  0.00    +0.000 Cl
ATOM     22  C   UNL     1       7.107   4.026  12.233  0.00  0.00    +0.000 A 
ATOM     23  C   UNL     1       7.587   4.865  13.246  0.00  0.00    +0.000 A 
ENDBRANCH  16  17
ENDBRANCH  15  16
ENDBRANCH   3  15
TORSDOF 5
ENDMDL
MODEL 6
REMARK VINA RESULT:      -7.5      5.161      6.552
REMARK  Name = 
REMARK  5 active torsions:
REMARK  status: ('A' for Active; 'I' for Inactive)
REMARK    1  A    between atoms: C_2  and  C_3
REMARK    2  A    between atoms: C_5  and  C_6
REMARK    3  A    between atoms: C_6  and  O_7
REMARK    4  A    between atoms: O_7  and  C_8
REMARK    5  A    between atoms: C_16  and  N_17
REMARK                            x       y       z     vdW  Elec       q    Type
REMARK                         _______ _______ _______ _____ _____    ______ ____
ROOT
ATOM      1  C   UNL     1       4.187   6.472  17.784  0.00  0.00    +0.000 A 
ATOM      2  N   UNL     1       5.365   6.743  17.120  0.00  0.00    +0.000 NA
ATOM      3  C   UNL     1       6.048   5.620  17.224  0.00  0.00    +0.000 A 
ATOM      4  O   UNL     1       5.389   4.626  17.900  0.00  0.00    +0.000 OA
ATOM      5  C   UNL     1       4.184   5.177  18.283  0.00  0.00    +0.000 A 
ENDROOT
BRANCH   5   6
ATOM      6  N   UNL     1       3.314   4.385  18.997  0.00  0.00    +0.000 N 
ATOM      7  C   UNL     1       3.431   2.926  18.870  0.00  0.00    +0.000 C 
ATOM      8  C   UNL     1       2.115   2.295  18.409  0.00  0.00    +0.000 C 
ATOM      9  C   UNL     1       1.046   2.167  19.491  0.00  0.00    +0.000 C 
ATOM     10  C   UNL     1       0.663   3.479  20.166  0.00  0.00    +0.000 C 
ATOM     11  C   UNL     1       1.797   4.041  21.015  0.00  0.00    +0.000 C 
ATOM     12  C   UNL     1       2.775   4.931  20.254  0.00  0.00    +0.000 C 
ENDBRANCH   5   6
BRANCH   1  14
ATOM     13  N   UNL     1       2.350   8.289  17.963  0.00  0.00    +0.000 NA
ATOM     14  C   UNL     1       3.174   7.471  17.906  0.00  0.00    +0.000 C 
ENDBRANCH   1  14
BRANCH   3  15
ATOM     15  C   UNL     1       7.369   5.280  16.621  0.00  0.00    +0.000 C 
BRANCH  15  16
ATOM     16  O   UNL     1       7.437   5.844  15.306  0.00  0.00    +0.000 OA
BRANCH  16  17
ATOM     17  C   UNL     1       7.010   5.040  14.276  0.00  0.00    +0.000 A 
ATOM     18  C   UNL     1       7.677   4.838  13.065  0.00  0.00    +0.000 A 
ATOM     19  C   UNL     1       7.139   3.984  12.093  0.00  0.00    +0.000 A 
ATOM     20  C   UNL     1       5.930   3.335  12.329  0.00  0.00    +0.000 A 
ATOM     21 CL   UNL     1       5.278   2.284  11.133  0.00  0.00    +0.000 Cl
ATOM     22  C   UNL     1       5.252   3.533  13.528  0.00  0.00    +0.000 A 
ATOM     23  C   UNL     1       5.792   4.385  14.498  0.00  0.00    +0.000 A 
ENDBRANCH  16  17
ENDBRANCH  15  16
ENDBRANCH   3  15
TORSDOF 5
ENDMDL
MODEL 7
REMARK VINA RESULT:      -7.5      0.834      1.679
REMARK  Name = 
REMARK  5 active torsions:
REMARK  status: ('A' for Active; 'I' for Inactive)
REMARK    1  A    between atoms: C_2  and  C_3
REMARK    2  A    between atoms: C_5  and  C_6
REMARK    3  A    between atoms: C_6  and  O_7
REMARK    4  A    between atoms: O_7  and  C_8
REMARK    5  A    between atoms: C_16  and  N_17
REMARK                            x       y       z     vdW  Elec       q    Type
REMARK                         _______ _______ _______ _____ _____    ______ ____
ROOT
ATOM      1  C   UNL     1       6.460   5.380  16.448  0.00  0.00    +0.000 A 
ATOM      2  N   UNL     1       7.478   6.308  16.499  0.00  0.00    +0.000 NA
ATOM      3  C   UNL     1       7.375   6.817  17.712  0.00  0.00    +0.000 A 
ATOM      4  O   UNL     1       6.366   6.272  18.462  0.00  0.00    +0.000 OA
ATOM      5  C   UNL     1       5.754   5.348  17.642  0.00  0.00    +0.000 A 
ENDROOT
BRANCH   5   6
ATOM      6  N   UNL     1       4.684   4.648  18.150  0.00  0.00    +0.000 N 
ATOM      7  C   UNL     1       3.496   4.472  17.303  0.00  0.00    +0.000 C 
ATOM      8  C   UNL     1       2.236   5.013  17.983  0.00  0.00    +0.000 C 
ATOM      9  C   UNL     1       1.655   4.116  19.073  0.00  0.00    +0.000 C 
ATOM     10  C   UNL     1       2.623   3.777  20.201  0.00  0.00    +0.000 C 
ATOM     11  C   UNL     1       3.760   2.877  19.732  0.00  0.00    +0.000 C 
ATOM     12  C   UNL     1       4.966   3.624  19.169  0.00  0.00    +0.000 C 
ENDBRANCH   5   6
BRANCH   1  14
ATOM     13  N   UNL     1       6.010   4.016  14.292  0.00  0.00    +0.000 NA
ATOM     14  C   UNL     1       6.232   4.616  15.262  0.00  0.00    +0.000 C 
ENDBRANCH   1  14
BRANCH   3  15
ATOM     15  C   UNL     1       8.266   7.811  18.378  0.00  0.00    +0.000 C 
BRANCH  15  16
ATOM     16  O   UNL     1       8.117   9.077  17.725  0.00  0.00    +0.000 OA
BRANCH  16  17
ATOM     17  C   UNL     1       8.677  10.160  18.360  0.00  0.00    +0.000 A 
ATOM     18  C   UNL     1       9.388  10.125  19.562  0.00  0.00    +0.000 A 
ATOM     19  C   UNL     1       9.918  11.302  20.107  0.00  0.00    +0.000 A 
ATOM     20  C   UNL     1       9.735  12.517  19.452  0.00  0.00    +0.000 A 
ATOM     21 CL   UNL     1      10.393  13.957  20.124  0.00  0.00    +0.000 Cl
ATOM     22  C   UNL     1       9.023  12.566  18.257  0.00  0.00    +0.000 A 
ATOM     23  C   UNL     1       8.495  11.388  17.714  0.00  0.00    +0.000 A 
ENDBRANCH  16  17
ENDBRANCH  15  16
ENDBRANCH   3  15
TORSDOF 5
ENDMDL
MODEL 8
REMARK VINA RESULT:      -7.4      0.590      1.354
REMARK  Name = 
REMARK  5 active torsions:
REMARK  status: ('A' for Active; 'I' for Inactive)
REMARK    1  A    between atoms: C_2  and  C_3
REMARK    2  A    between atoms: C_5  and  C_6
REMARK    3  A    between atoms: C_6  and  O_7
REMARK    4  A    between atoms: O_7  and  C_8
REMARK    5  A    between atoms: C_16  and  N_17
REMARK                            x       y       z     vdW  Elec       q    Type
REMARK                         _______ _______ _______ _____ _____    ______ ____
ROOT
ATOM      1  C   UNL     1       6.492   5.533  16.147  0.00  0.00    +0.000 A 
ATOM      2  N   UNL     1       7.560   6.387  16.326  0.00  0.00    +0.000 NA
ATOM      3  C   UNL     1       7.289   6.992  17.465  0.00  0.00    +0.000 A 
ATOM      4  O   UNL     1       6.120   6.580  18.053  0.00  0.00    +0.000 OA
ATOM      5  C   UNL     1       5.586   5.643  17.193  0.00  0.00    +0.000 A 
ENDROOT
BRANCH   5   6
ATOM      6  N   UNL     1       4.389   5.062  17.540  0.00  0.00    +0.000 N 
ATOM      7  C   UNL     1       3.231   5.935  17.782  0.00  0.00    +0.000 C 
ATOM      8  C   UNL     1       2.645   5.717  19.179  0.00  0.00    +0.000 C 
ATOM      9  C   UNL     1       1.793   4.459  19.332  0.00  0.00    +0.000 C 
ATOM     10  C   UNL     1       2.507   3.160  18.975  0.00  0.00    +0.000 C 
ATOM     11  C   UNL     1       2.810   3.063  17.485  0.00  0.00    +0.000 C 
ATOM     12  C   UNL     1       4.136   3.691  17.067  0.00  0.00    +0.000 C 
ENDBRANCH   5   6
BRANCH   1  14
ATOM     13  N   UNL     1       6.365   3.992  14.069  0.00  0.00    +0.000 NA
ATOM     14  C   UNL     1       6.412   4.700  14.989  0.00  0.00    +0.000 C 
ENDBRANCH   1  14
BRANCH   3  15
ATOM     15  C   UNL     1       8.129   7.967  18.220  0.00  0.00    +0.000 C 
BRANCH  15  16
ATOM     16  O   UNL     1       8.096   9.228  17.542  0.00  0.00    +0.000 OA
BRANCH  16  17
ATOM     17  C   UNL     1       8.645  10.294  18.214  0.00  0.00    +0.000 A 
ATOM     18  C   UNL     1       8.650  11.621  17.778  0.00  0.00    +0.000 A 
ATOM     19  C   UNL     1       9.239  12.623  18.562  0.00  0.00    +0.000 A 
ATOM     20  C   UNL     1       9.828  12.298  19.780  0.00  0.00    +0.000 A 
ATOM     21 CL   UNL     1      10.545  13.533  20.739  0.00  0.00    +0.000 Cl
ATOM     22  C   UNL     1       9.836  10.978  20.223  0.00  0.00    +0.000 A 
ATOM     23  C   UNL     1       9.246   9.980  19.439  0.00  0.00    +0.000 A 
ENDBRANCH  16  17
ENDBRANCH  15  16
ENDBRANCH   3  15
TORSDOF 5
ENDMDL
MODEL 9
REMARK VINA RESULT:      -7.3      0.771      1.705
REMARK  Name = 
REMARK  5 active torsions:
REMARK  status: ('A' for Active; 'I' for Inactive)
REMARK    1  A    between atoms: C_2  and  C_3
REMARK    2  A    between atoms: C_5  and  C_6
REMARK    3  A    between atoms: C_6  and  O_7
REMARK    4  A    between atoms: O_7  and  C_8
REMARK    5  A    between atoms: C_16  and  N_17
REMARK                            x       y       z     vdW  Elec       q    Type
REMARK                         _______ _______ _______ _____ _____    ______ ____
ROOT
ATOM      1  C   UNL     1       6.449   5.560  16.176  0.00  0.00    +0.000 A 
ATOM      2  N   UNL     1       7.542   6.375  16.383  0.00  0.00    +0.000 NA
ATOM      3  C   UNL     1       7.339   6.869  17.589  0.00  0.00    +0.000 A 
ATOM      4  O   UNL     1       6.193   6.420  18.191  0.00  0.00    +0.000 OA
ATOM      5  C   UNL     1       5.598   5.581  17.272  0.00  0.00    +0.000 A 
ENDROOT
BRANCH   5   6
ATOM      6  N   UNL     1       4.407   4.988  17.621  0.00  0.00    +0.000 N 
ATOM      7  C   UNL     1       3.225   5.843  17.798  0.00  0.00    +0.000 C 
ATOM      8  C   UNL     1       2.613   5.675  19.191  0.00  0.00    +0.000 C 
ATOM      9  C   UNL     1       1.788   4.405  19.385  0.00  0.00    +0.000 C 
ATOM     10  C   UNL     1       2.538   3.109  19.102  0.00  0.00    +0.000 C 
ATOM     11  C   UNL     1       2.876   2.951  17.624  0.00  0.00    +0.000 C 
ATOM     12  C   UNL     1       4.196   3.592  17.206  0.00  0.00    +0.000 C 
ENDBRANCH   5   6
BRANCH   1  14
ATOM     13  N   UNL     1       6.206   4.245  13.958  0.00  0.00    +0.000 NA
ATOM     14  C   UNL     1       6.296   4.847  14.948  0.00  0.00    +0.000 C 
ENDBRANCH   1  14
BRANCH   3  15
ATOM     15  C   UNL     1       8.236   7.751  18.392  0.00  0.00    +0.000 C 
BRANCH  15  16
ATOM     16  O   UNL     1       8.062   9.105  17.959  0.00  0.00    +0.000 OA
BRANCH  16  17
ATOM     17  C   UNL     1       8.902  10.037  18.521  0.00  0.00    +0.000 A 
ATOM     18  C   UNL     1       9.109  10.232  19.889  0.00  0.00    +0.000 A 
ATOM     19  C   UNL     1      10.002  11.215  20.337  0.00  0.00    +0.000 A 
ATOM     20  C   UNL     1      10.685  12.007  19.419  0.00  0.00    +0.000 A 
ATOM     21 CL   UNL     1      11.783  13.208  19.977  0.00  0.00    +0.000 Cl
ATOM     22  C   UNL     1      10.482  11.827  18.054  0.00  0.00    +0.000 A 
ATOM     23  C   UNL     1       9.591  10.843  17.607  0.00  0.00    +0.000 A 
ENDBRANCH  16  17
ENDBRANCH  15  16
ENDBRANCH   3  15
TORSDOF 5
ENDMDL
