MODEL 1
REMARK VINA RESULT:      -7.9      0.000      0.000
REMARK  Name = 
REMARK  8 active torsions:
REMARK  status: ('A' for Active; 'I' for Inactive)
REMARK    1  A    between atoms: C_1  and  C_2
REMARK    2  A    between atoms: C_2  and  C_3
REMARK    3  A    between atoms: C_10  and  C_11
REMARK    4  A    between atoms: C_11  and  O_12
REMARK    5  A    between atoms: O_12  and  C_13
REMARK    6  A    between atoms: C_16  and  C_17
REMARK    7  A    between atoms: C_20  and  S_21
REMARK    8  A    between atoms: S_21  and  C_22
REMARK                            x       y       z     vdW  Elec       q    Type
REMARK                         _______ _______ _______ _____ _____    ______ ____
ROOT
ATOM      1  C   UNL     1       2.145   6.075  19.384  0.00  0.00    +0.000 C 
ATOM      2  C   UNL     1       1.743   6.058  20.866  0.00  0.00    +0.000 C 
ATOM      3  C   UNL     1       0.740   7.150  21.210  0.00  0.00    +0.000 C 
ATOM      4  C   UNL     1       1.255   8.541  20.813  0.00  0.00    +0.000 C 
ATOM      5  C   UNL     1       1.640   8.570  19.324  0.00  0.00    +0.000 C 
ATOM      6  C   UNL     1       2.640   7.465  18.975  0.00  0.00    +0.000 C 
ENDROOT
BRANCH   4   7
ATOM      7  C   UNL     1       0.260   9.624  21.202  0.00  0.00    +0.000 A 
ATOM      8  C   UNL     1      -0.336  10.417  20.205  0.00  0.00    +0.000 A 
ATOM      9  C   UNL     1      -1.218  11.450  20.542  0.00  0.00    +0.000 A 
ATOM     10  C   UNL     1      -1.502  11.707  21.884  0.00  0.00    +0.000 A 
ATOM     11  C   UNL     1      -0.938  10.923  22.889  0.00  0.00    +0.000 A 
ATOM     12  C   UNL     1      -0.067   9.895  22.538  0.00  0.00    +0.000 A 
ATOM     13  F   UNL     1       0.472   9.164  23.524  0.00  0.00    +0.000 F 
BRANCH  10  14
ATOM     14  S   UNL     1      -2.655  12.985  22.322  0.00  0.00    +0.000 S 
ATOM     15  C   UNL     1      -1.795  13.935  23.548  0.00  0.00    +0.000 C 
ATOM     16  O   UNL     1      -2.841  13.821  21.152  0.00  0.00    +0.000 OA
ATOM     17  O   UNL     1      -3.788  12.345  22.964  0.00  0.00    +0.000 OA
ENDBRANCH  10  14
ENDBRANCH   4   7
BRANCH   1  18
ATOM     18  O   UNL     1       3.211   5.147  19.112  0.00  0.00    +0.000 OA
BRANCH  18  19
ATOM     19  C   UNL     1       4.498   5.700  19.370  0.00  0.00    +0.000 C 
BRANCH  19  27
ATOM     20  C   UNL     1       6.919   3.883  12.360  0.00  0.00    +0.000 A 
ATOM     21  C   UNL     1       7.592   4.797  13.136  0.00  0.00    +0.000 A 
ATOM     22  N   UNL     1       7.122   5.271  14.308  0.00  0.00    +0.000 NA
ATOM     23  C   UNL     1       5.938   4.805  14.744  0.00  0.00    +0.000 A 
ATOM     24  N   UNL     1       5.438   5.229  15.957  0.00  0.00    +0.000 N 
ATOM     25  C   UNL     1       6.148   6.227  16.744  0.00  0.00    +0.000 C 
ATOM     26  C   UNL     1       6.693   5.615  18.036  0.00  0.00    +0.000 C 
ATOM     27  C   UNL     1       5.621   4.822  18.800  0.00  0.00    +0.000 C 
ATOM     28  C   UNL     1       5.007   3.765  17.868  0.00  0.00    +0.000 C 
ATOM     29  C   UNL     1       4.430   4.399  16.600  0.00  0.00    +0.000 C 
ATOM     30  N   UNL     1       5.209   3.930  14.036  0.00  0.00    +0.000 NA
ATOM     31  C   UNL     1       5.704   3.486  12.865  0.00  0.00    +0.000 A 
BRANCH  20  33
ATOM     32  C   UNL     1       7.219   1.808  11.028  0.00  0.00    +0.000 C 
ATOM     33  C   UNL     1       7.490   3.304  11.106  0.00  0.00    +0.000 C 
ENDBRANCH  20  33
ENDBRANCH  19  27
ENDBRANCH  18  19
ENDBRANCH   1  18
TORSDOF 6
ENDMDL
MODEL 2
REMARK VINA RESULT:      -7.8      2.158      3.608
REMARK  Name = 
REMARK  8 active torsions:
REMARK  status: ('A' for Active; 'I' for Inactive)
REMARK    1  A    between atoms: C_1  and  C_2
REMARK    2  A    between atoms: C_2  and  C_3
REMARK    3  A    between atoms: C_10  and  C_11
REMARK    4  A    between atoms: C_11  and  O_12
REMARK    5  A    between atoms: O_12  and  C_13
REMARK    6  A    between atoms: C_16  and  C_17
REMARK    7  A    between atoms: C_20  and  S_21
REMARK    8  A    between atoms: S_21  and  C_22
REMARK                            x       y       z     vdW  Elec       q    Type
REMARK                         _______ _______ _______ _____ _____    ______ ____
ROOT
ATOM      1  C   UNL     1       1.047   8.723  21.238  0.00  0.00    +0.000 C 
ATOM      2  C   UNL     1       0.535   9.710  20.179  0.00  0.00    +0.000 C 
ATOM      3  C   UNL     1       0.239  11.086  20.759  0.00  0.00    +0.000 C 
ATOM      4  C   UNL     1      -0.744  11.008  21.936  0.00  0.00    +0.000 C 
ATOM      5  C   UNL     1      -0.226  10.036  23.010  0.00  0.00    +0.000 C 
ATOM      6  C   UNL     1       0.081   8.656  22.425  0.00  0.00    +0.000 C 
ENDROOT
BRANCH   4   7
ATOM      7  C   UNL     1      -1.062  12.395  22.476  0.00  0.00    +0.000 A 
ATOM      8  C   UNL     1      -0.198  13.468  22.196  0.00  0.00    +0.000 A 
ATOM      9  C   UNL     1      -0.443  14.742  22.721  0.00  0.00    +0.000 A 
ATOM     10  C   UNL     1      -1.552  14.950  23.543  0.00  0.00    +0.000 A 
ATOM     11  C   UNL     1      -2.433  13.906  23.819  0.00  0.00    +0.000 A 
ATOM     12  C   UNL     1      -2.179  12.645  23.285  0.00  0.00    +0.000 A 
ATOM     13  F   UNL     1      -3.034  11.655  23.577  0.00  0.00    +0.000 F 
BRANCH  10  14
ATOM     14  S   UNL     1      -1.900  16.572  24.177  0.00  0.00    +0.000 S 
ATOM     15  C   UNL     1      -3.528  16.928  23.573  0.00  0.00    +0.000 C 
ATOM     16  O   UNL     1      -1.968  16.468  25.622  0.00  0.00    +0.000 OA
ATOM     17  O   UNL     1      -0.974  17.492  23.543  0.00  0.00    +0.000 OA
ENDBRANCH  10  14
ENDBRANCH   4   7
BRANCH   1  18
ATOM     18  O   UNL     1       1.165   7.390  20.710  0.00  0.00    +0.000 OA
BRANCH  18  19
ATOM     19  C   UNL     1       2.348   7.210  19.939  0.00  0.00    +0.000 C 
BRANCH  19  27
ATOM     20  C   UNL     1       6.329   4.299  14.108  0.00  0.00    +0.000 A 
ATOM     21  C   UNL     1       5.459   3.525  14.839  0.00  0.00    +0.000 A 
ATOM     22  N   UNL     1       4.857   3.945  15.972  0.00  0.00    +0.000 NA
ATOM     23  C   UNL     1       5.112   5.196  16.391  0.00  0.00    +0.000 A 
ATOM     24  N   UNL     1       4.487   5.683  17.519  0.00  0.00    +0.000 N 
ATOM     25  C   UNL     1       3.600   4.833  18.300  0.00  0.00    +0.000 C 
ATOM     26  C   UNL     1       2.154   5.322  18.205  0.00  0.00    +0.000 C 
ATOM     27  C   UNL     1       2.029   6.828  18.486  0.00  0.00    +0.000 C 
ATOM     28  C   UNL     1       2.969   7.601  17.546  0.00  0.00    +0.000 C 
ATOM     29  C   UNL     1       4.418   7.128  17.684  0.00  0.00    +0.000 C 
ATOM     30  N   UNL     1       5.965   6.007  15.747  0.00  0.00    +0.000 NA
ATOM     31  C   UNL     1       6.556   5.551  14.627  0.00  0.00    +0.000 A 
BRANCH  20  33
ATOM     32  C   UNL     1       5.937   2.995  12.031  0.00  0.00    +0.000 C 
ATOM     33  C   UNL     1       6.923   3.851  12.811  0.00  0.00    +0.000 C 
ENDBRANCH  20  33
ENDBRANCH  19  27
ENDBRANCH  18  19
ENDBRANCH   1  18
TORSDOF 6
ENDMDL
MODEL 3
REMARK VINA RESULT:      -7.8      1.976      3.226
REMARK  Name = 
REMARK  8 active torsions:
REMARK  status: ('A' for Active; 'I' for Inactive)
REMARK    1  A    between atoms: C_1  and  C_2
REMARK    2  A    between atoms: C_2  and  C_3
REMARK    3  A    between atoms: C_10  and  C_11
REMARK    4  A    between atoms: C_11  and  O_12
REMARK    5  A    between atoms: O_12  and  C_13
REMARK    6  A    between atoms: C_16  and  C_17
REMARK    7  A    between atoms: C_20  and  S_21
REMARK    8  A    between atoms: S_21  and  C_22
REMARK                            x       y       z     vdW  Elec       q    Type
REMARK                         _______ _______ _______ _____ _____    ______ ____
ROOT
ATOM      1  C   UNL     1       1.038   8.304  20.731  0.00  0.00    +0.000 C 
ATOM      2  C   UNL     1       1.188   8.981  22.101  0.00  0.00    +0.000 C 
ATOM      3  C   UNL     1       0.020   9.901  22.427  0.00  0.00    +0.000 C 
ATOM      4  C   UNL     1      -0.196  10.956  21.332  0.00  0.00    +0.000 C 
ATOM      5  C   UNL     1      -0.368  10.282  19.959  0.00  0.00    +0.000 C 
ATOM      6  C   UNL     1       0.801   9.348  19.636  0.00  0.00    +0.000 C 
ENDROOT
BRANCH   4   7
ATOM      7  C   UNL     1      -1.339  11.893  21.694  0.00  0.00    +0.000 A 
ATOM      8  C   UNL     1      -1.954  11.792  22.954  0.00  0.00    +0.000 A 
ATOM      9  C   UNL     1      -3.038  12.611  23.292  0.00  0.00    +0.000 A 
ATOM     10  C   UNL     1      -3.523  13.533  22.363  0.00  0.00    +0.000 A 
ATOM     11  C   UNL     1      -2.918  13.664  21.114  0.00  0.00    +0.000 A 
ATOM     12  C   UNL     1      -1.838  12.847  20.795  0.00  0.00    +0.000 A 
ATOM     13  F   UNL     1      -1.282  12.984  19.583  0.00  0.00    +0.000 F 
BRANCH  10  14
ATOM     14  S   UNL     1      -4.867  14.610  22.796  0.00  0.00    +0.000 S 
ATOM     15  C   UNL     1      -4.399  16.176  22.110  0.00  0.00    +0.000 C 
ATOM     16  O   UNL     1      -6.044  14.141  22.089  0.00  0.00    +0.000 OA
ATOM     17  O   UNL     1      -4.872  14.736  24.241  0.00  0.00    +0.000 OA
ENDBRANCH  10  14
ENDBRANCH   4   7
BRANCH   1  18
ATOM     18  O   UNL     1       2.221   7.569  20.369  0.00  0.00    +0.000 OA
BRANCH  18  19
ATOM     19  C   UNL     1       2.111   6.179  20.658  0.00  0.00    +0.000 C 
BRANCH  19  27
ATOM     20  C   UNL     1       6.134   4.358  14.428  0.00  0.00    +0.000 A 
ATOM     21  C   UNL     1       5.940   3.454  15.446  0.00  0.00    +0.000 A 
ATOM     22  N   UNL     1       5.379   3.772  16.631  0.00  0.00    +0.000 NA
ATOM     23  C   UNL     1       4.973   5.041  16.812  0.00  0.00    +0.000 A 
ATOM     24  N   UNL     1       4.356   5.402  17.991  0.00  0.00    +0.000 N 
ATOM     25  C   UNL     1       4.197   4.439  19.070  0.00  0.00    +0.000 C 
ATOM     26  C   UNL     1       2.721   4.096  19.281  0.00  0.00    +0.000 C 
ATOM     27  C   UNL     1       1.843   5.353  19.392  0.00  0.00    +0.000 C 
ATOM     28  C   UNL     1       2.064   6.240  18.157  0.00  0.00    +0.000 C 
ATOM     29  C   UNL     1       3.540   6.608  17.985  0.00  0.00    +0.000 C 
ATOM     30  N   UNL     1       5.146   5.988  15.878  0.00  0.00    +0.000 NA
ATOM     31  C   UNL     1       5.718   5.637  14.711  0.00  0.00    +0.000 A 
BRANCH  20  33
ATOM     32  C   UNL     1       5.626   3.247  12.266  0.00  0.00    +0.000 C 
ATOM     33  C   UNL     1       6.679   3.973  13.090  0.00  0.00    +0.000 C 
ENDBRANCH  20  33
ENDBRANCH  19  27
ENDBRANCH  18  19
ENDBRANCH   1  18
TORSDOF 6
ENDMDL
MODEL 4
REMARK VINA RESULT:      -7.7      2.220      3.716
REMARK  Name = 
REMARK  8 active torsions:
REMARK  status: ('A' for Active; 'I' for Inactive)
REMARK    1  A    between atoms: C_1  and  C_2
REMARK    2  A    between atoms: C_2  and  C_3
REMARK    3  A    between atoms: C_10  and  C_11
REMARK    4  A    between atoms: C_11  and  O_12
REMARK    5  A    between atoms: O_12  and  C_13
REMARK    6  A    between atoms: C_16  and  C_17
REMARK    7  A    between atoms: C_20  and  S_21
REMARK    8  A    between atoms: S_21  and  C_22
REMARK                            x       y       z     vdW  Elec       q    Type
REMARK                         _______ _______ _______ _____ _____    ______ ____
ROOT
ATOM      1  C   UNL     1       0.761   8.681  21.472  0.00  0.00    +0.000 C 
ATOM      2  C   UNL     1       0.271   9.612  20.353  0.00  0.00    +0.000 C 
ATOM      3  C   UNL     1       0.068  11.042  20.832  0.00  0.00    +0.000 C 
ATOM      4  C   UNL     1      -0.883  11.109  22.037  0.00  0.00    +0.000 C 
ATOM      5  C   UNL     1      -0.386  10.194  23.169  0.00  0.00    +0.000 C 
ATOM      6  C   UNL     1      -0.171   8.758  22.685  0.00  0.00    +0.000 C 
ENDROOT
BRANCH   4   7
ATOM      7  C   UNL     1      -1.109  12.548  22.476  0.00  0.00    +0.000 A 
ATOM      8  C   UNL     1      -0.171  13.538  22.135  0.00  0.00    +0.000 A 
ATOM      9  C   UNL     1      -0.332  14.860  22.568  0.00  0.00    +0.000 A 
ATOM     10  C   UNL     1      -1.432  15.198  23.358  0.00  0.00    +0.000 A 
ATOM     11  C   UNL     1      -2.385  14.238  23.694  0.00  0.00    +0.000 A 
ATOM     12  C   UNL     1      -2.214  12.929  23.251  0.00  0.00    +0.000 A 
ATOM     13  F   UNL     1      -3.137  12.022  23.598  0.00  0.00    +0.000 F 
BRANCH  10  14
ATOM     14  S   UNL     1      -1.673  16.880  23.875  0.00  0.00    +0.000 S 
ATOM     15  C   UNL     1      -2.878  16.761  25.171  0.00  0.00    +0.000 C 
ATOM     16  O   UNL     1      -0.427  17.338  24.459  0.00  0.00    +0.000 OA
ATOM     17  O   UNL     1      -2.276  17.592  22.765  0.00  0.00    +0.000 OA
ENDBRANCH  10  14
ENDBRANCH   4   7
BRANCH   1  18
ATOM     18  O   UNL     1       0.791   7.307  21.045  0.00  0.00    +0.000 OA
BRANCH  18  19
ATOM     19  C   UNL     1       2.101   6.871  20.695  0.00  0.00    +0.000 C 
BRANCH  19  27
ATOM     20  C   UNL     1       6.379   4.630  14.780  0.00  0.00    +0.000 A 
ATOM     21  C   UNL     1       6.475   4.018  16.007  0.00  0.00    +0.000 A 
ATOM     22  N   UNL     1       5.865   4.475  17.120  0.00  0.00    +0.000 NA
ATOM     23  C   UNL     1       5.107   5.580  17.011  0.00  0.00    +0.000 A 
ATOM     24  N   UNL     1       4.431   6.060  18.112  0.00  0.00    +0.000 N 
ATOM     25  C   UNL     1       4.579   5.419  19.411  0.00  0.00    +0.000 C 
ATOM     26  C   UNL     1       3.272   4.749  19.840  0.00  0.00    +0.000 C 
ATOM     27  C   UNL     1       2.066   5.693  19.711  0.00  0.00    +0.000 C 
ATOM     28  C   UNL     1       1.997   6.240  18.277  0.00  0.00    +0.000 C 
ATOM     29  C   UNL     1       3.297   6.942  17.878  0.00  0.00    +0.000 C 
ATOM     30  N   UNL     1       4.979   6.249  15.855  0.00  0.00    +0.000 NA
ATOM     31  C   UNL     1       5.611   5.770  14.767  0.00  0.00    +0.000 A 
BRANCH  20  33
ATOM     32  C   UNL     1       5.920   3.507  12.613  0.00  0.00    +0.000 C 
ATOM     33  C   UNL     1       6.991   4.066  13.538  0.00  0.00    +0.000 C 
ENDBRANCH  20  33
ENDBRANCH  19  27
ENDBRANCH  18  19
ENDBRANCH   1  18
TORSDOF 6
ENDMDL
MODEL 5
REMARK VINA RESULT:      -7.6      2.233      3.879
REMARK  Name = 
REMARK  8 active torsions:
REMARK  status: ('A' for Active; 'I' for Inactive)
REMARK    1  A    between atoms: C_1  and  C_2
REMARK    2  A    between atoms: C_2  and  C_3
REMARK    3  A    between atoms: C_10  and  C_11
REMARK    4  A    between atoms: C_11  and  O_12
REMARK    5  A    between atoms: O_12  and  C_13
REMARK    6  A    between atoms: C_16  and  C_17
REMARK    7  A    between atoms: C_20  and  S_21
REMARK    8  A    between atoms: S_21  and  C_22
REMARK                            x       y       z     vdW  Elec       q    Type
REMARK                         _______ _______ _______ _____ _____    ______ ____
ROOT
ATOM      1  C   UNL     1       0.216   8.834  21.595  0.00  0.00    +0.000 C 
ATOM      2  C   UNL     1       0.072   9.249  23.066  0.00  0.00    +0.000 C 
ATOM      3  C   UNL     1      -0.956  10.354  23.263  0.00  0.00    +0.000 C 
ATOM      4  C   UNL     1      -0.646  11.580  22.390  0.00  0.00    +0.000 C 
ATOM      5  C   UNL     1      -0.522  11.174  20.912  0.00  0.00    +0.000 C 
ATOM      6  C   UNL     1       0.504  10.055  20.716  0.00  0.00    +0.000 C 
ENDROOT
BRANCH   4   7
ATOM      7  C   UNL     1      -1.658  12.690  22.630  0.00  0.00    +0.000 A 
ATOM      8  C   UNL     1      -2.696  12.502  23.559  0.00  0.00    +0.000 A 
ATOM      9  C   UNL     1      -3.667  13.490  23.762  0.00  0.00    +0.000 A 
ATOM     10  C   UNL     1      -3.611  14.674  23.025  0.00  0.00    +0.000 A 
ATOM     11  C   UNL     1      -2.582  14.892  22.112  0.00  0.00    +0.000 A 
ATOM     12  C   UNL     1      -1.621  13.902  21.925  0.00  0.00    +0.000 A 
ATOM     13  F   UNL     1      -0.648  14.131  21.032  0.00  0.00    +0.000 F 
BRANCH  10  14
ATOM     14  S   UNL     1      -4.810  15.955  23.307  0.00  0.00    +0.000 S 
ATOM     15  C   UNL     1      -4.358  16.623  24.886  0.00  0.00    +0.000 C 
ATOM     16  O   UNL     1      -4.593  16.980  22.304  0.00  0.00    +0.000 OA
ATOM     17  O   UNL     1      -6.104  15.314  23.444  0.00  0.00    +0.000 OA
ENDBRANCH  10  14
ENDBRANCH   4   7
BRANCH   1  18
ATOM     18  O   UNL     1       1.303   7.909  21.407  0.00  0.00    +0.000 OA
BRANCH  18  19
ATOM     19  C   UNL     1       2.019   8.144  20.199  0.00  0.00    +0.000 C 
BRANCH  19  27
ATOM     20  C   UNL     1       5.905   4.376  14.813  0.00  0.00    +0.000 A 
ATOM     21  C   UNL     1       5.513   3.760  15.978  0.00  0.00    +0.000 A 
ATOM     22  N   UNL     1       4.970   4.416  17.024  0.00  0.00    +0.000 NA
ATOM     23  C   UNL     1       4.787   5.742  16.906  0.00  0.00    +0.000 A 
ATOM     24  N   UNL     1       4.197   6.448  17.933  0.00  0.00    +0.000 N 
ATOM     25  C   UNL     1       3.826   5.782  19.173  0.00  0.00    +0.000 C 
ATOM     26  C   UNL     1       2.305   5.741  19.335  0.00  0.00    +0.000 C 
ATOM     27  C   UNL     1       1.659   7.118  19.115  0.00  0.00    +0.000 C 
ATOM     28  C   UNL     1       2.085   7.667  17.744  0.00  0.00    +0.000 C 
ATOM     29  C   UNL     1       3.608   7.741  17.614  0.00  0.00    +0.000 C 
ATOM     30  N   UNL     1       5.163   6.422  15.812  0.00  0.00    +0.000 NA
ATOM     31  C   UNL     1       5.711   5.736  14.792  0.00  0.00    +0.000 A 
BRANCH  20  33
ATOM     32  C   UNL     1       5.398   3.595  12.511  0.00  0.00    +0.000 C 
ATOM     33  C   UNL     1       6.427   3.625  13.631  0.00  0.00    +0.000 C 
ENDBRANCH  20  33
ENDBRANCH  19  27
ENDBRANCH  18  19
ENDBRANCH   1  18
TORSDOF 6
ENDMDL
MODEL 6
REMARK VINA RESULT:      -7.6      5.728     12.659
REMARK  Name = 
REMARK  8 active torsions:
REMARK  status: ('A' for Active; 'I' for Inactive)
REMARK    1  A    between atoms: C_1  and  C_2
REMARK    2  A    between atoms: C_2  and  C_3
REMARK    3  A    between atoms: C_10  and  C_11
REMARK    4  A    between atoms: C_11  and  O_12
REMARK    5  A    between atoms: O_12  and  C_13
REMARK    6  A    between atoms: C_16  and  C_17
REMARK    7  A    between atoms: C_20  and  S_21
REMARK    8  A    between atoms: S_21  and  C_22
REMARK                            x       y       z     vdW  Elec       q    Type
REMARK                         _______ _______ _______ _____ _____    ______ ____
ROOT
ATOM      1  C   UNL     1       1.000   8.674  20.724  0.00  0.00    +0.000 C 
ATOM      2  C   UNL     1       1.155   7.153  20.867  0.00  0.00    +0.000 C 
ATOM      3  C   UNL     1       2.350   6.613  20.094  0.00  0.00    +0.000 C 
ATOM      4  C   UNL     1       2.292   7.007  18.610  0.00  0.00    +0.000 C 
ATOM      5  C   UNL     1       2.158   8.532  18.460  0.00  0.00    +0.000 C 
ATOM      6  C   UNL     1       0.963   9.076  19.247  0.00  0.00    +0.000 C 
ENDROOT
BRANCH   4   7
ATOM      7  C   UNL     1       3.470   6.424  17.843  0.00  0.00    +0.000 A 
ATOM      8  C   UNL     1       4.489   7.273  17.377  0.00  0.00    +0.000 A 
ATOM      9  C   UNL     1       5.558   6.768  16.628  0.00  0.00    +0.000 A 
ATOM     10  C   UNL     1       5.610   5.405  16.331  0.00  0.00    +0.000 A 
ATOM     11  C   UNL     1       4.621   4.541  16.798  0.00  0.00    +0.000 A 
ATOM     12  C   UNL     1       3.567   5.058  17.546  0.00  0.00    +0.000 A 
ATOM     13  F   UNL     1       2.623   4.207  17.973  0.00  0.00    +0.000 F 
BRANCH  10  14
ATOM     14  S   UNL     1       6.985   4.743  15.422  0.00  0.00    +0.000 S 
ATOM     15  C   UNL     1       6.246   3.552  14.336  0.00  0.00    +0.000 C 
ATOM     16  O   UNL     1       7.527   5.817  14.612  0.00  0.00    +0.000 OA
ATOM     17  O   UNL     1       7.825   4.030  16.366  0.00  0.00    +0.000 OA
ENDBRANCH  10  14
ENDBRANCH   4   7
BRANCH   1  18
ATOM     18  O   UNL     1      -0.221   9.142  21.324  0.00  0.00    +0.000 OA
BRANCH  18  19
ATOM     19  C   UNL     1      -0.694  10.347  20.730  0.00  0.00    +0.000 C 
BRANCH  19  27
ATOM     20  C   UNL     1      -4.054  16.896  22.764  0.00  0.00    +0.000 A 
ATOM     21  C   UNL     1      -3.895  15.864  23.658  0.00  0.00    +0.000 A 
ATOM     22  N   UNL     1      -3.458  14.636  23.311  0.00  0.00    +0.000 NA
ATOM     23  C   UNL     1      -3.144  14.423  22.022  0.00  0.00    +0.000 A 
ATOM     24  N   UNL     1      -2.653  13.196  21.628  0.00  0.00    +0.000 N 
ATOM     25  C   UNL     1      -2.530  12.105  22.584  0.00  0.00    +0.000 C 
ATOM     26  C   UNL     1      -1.060  11.768  22.840  0.00  0.00    +0.000 C 
ATOM     27  C   UNL     1      -0.270  11.584  21.535  0.00  0.00    +0.000 C 
ATOM     28  C   UNL     1      -0.437  12.835  20.657  0.00  0.00    +0.000 C 
ATOM     29  C   UNL     1      -1.911  13.134  20.377  0.00  0.00    +0.000 C 
ATOM     30  N   UNL     1      -3.291  15.370  21.083  0.00  0.00    +0.000 NA
ATOM     31  C   UNL     1      -3.740  16.581  21.463  0.00  0.00    +0.000 A 
BRANCH  20  33
ATOM     32  C   UNL     1      -5.891  18.287  23.692  0.00  0.00    +0.000 C 
ATOM     33  C   UNL     1      -4.459  18.275  23.176  0.00  0.00    +0.000 C 
ENDBRANCH  20  33
ENDBRANCH  19  27
ENDBRANCH  18  19
ENDBRANCH   1  18
TORSDOF 6
ENDMDL
MODEL 7
REMARK VINA RESULT:      -7.6      2.188      3.661
REMARK  Name = 
REMARK  8 active torsions:
REMARK  status: ('A' for Active; 'I' for Inactive)
REMARK    1  A    between atoms: C_1  and  C_2
REMARK    2  A    between atoms: C_2  and  C_3
REMARK    3  A    between atoms: C_10  and  C_11
REMARK    4  A    between atoms: C_11  and  O_12
REMARK    5  A    between atoms: O_12  and  C_13
REMARK    6  A    between atoms: C_16  and  C_17
REMARK    7  A    between atoms: C_20  and  S_21
REMARK    8  A    between atoms: S_21  and  C_22
REMARK                            x       y       z     vdW  Elec       q    Type
REMARK                         _______ _______ _______ _____ _____    ______ ____
ROOT
ATOM      1  C   UNL     1       0.960   8.772  21.444  0.00  0.00    +0.000 C 
ATOM      2  C   UNL     1       0.742   9.600  20.170  0.00  0.00    +0.000 C 
ATOM      3  C   UNL     1       0.364  11.044  20.471  0.00  0.00    +0.000 C 
ATOM      4  C   UNL     1      -0.870  11.131  21.382  0.00  0.00    +0.000 C 
ATOM      5  C   UNL     1      -0.649  10.319  22.670  0.00  0.00    +0.000 C 
ATOM      6  C   UNL     1      -0.258   8.871  22.367  0.00  0.00    +0.000 C 
ENDROOT
BRANCH   4   7
ATOM      7  C   UNL     1      -1.259  12.579  21.638  0.00  0.00    +0.000 A 
ATOM      8  C   UNL     1      -1.028  13.152  22.901  0.00  0.00    +0.000 A 
ATOM      9  C   UNL     1      -1.421  14.467  23.176  0.00  0.00    +0.000 A 
ATOM     10  C   UNL     1      -2.060  15.218  22.187  0.00  0.00    +0.000 A 
ATOM     11  C   UNL     1      -2.283  14.678  20.922  0.00  0.00    +0.000 A 
ATOM     12  C   UNL     1      -1.882  13.371  20.662  0.00  0.00    +0.000 A 
ATOM     13  F   UNL     1      -2.119  12.871  19.441  0.00  0.00    +0.000 F 
BRANCH  10  14
ATOM     14  S   UNL     1      -2.521  16.903  22.508  0.00  0.00    +0.000 S 
ATOM     15  C   UNL     1      -0.972  17.733  22.743  0.00  0.00    +0.000 C 
ATOM     16  O   UNL     1      -3.133  17.423  21.300  0.00  0.00    +0.000 OA
ATOM     17  O   UNL     1      -3.238  16.923  23.769  0.00  0.00    +0.000 OA
ENDBRANCH  10  14
ENDBRANCH   4   7
BRANCH   1  18
ATOM     18  O   UNL     1       1.154   7.378  21.144  0.00  0.00    +0.000 OA
BRANCH  18  19
ATOM     19  C   UNL     1       2.293   7.149  20.320  0.00  0.00    +0.000 C 
BRANCH  19  27
ATOM     20  C   UNL     1       6.179   4.390  14.353  0.00  0.00    +0.000 A 
ATOM     21  C   UNL     1       5.956   3.630  15.477  0.00  0.00    +0.000 A 
ATOM     22  N   UNL     1       5.420   4.118  16.615  0.00  0.00    +0.000 NA
ATOM     23  C   UNL     1       5.069   5.415  16.637  0.00  0.00    +0.000 A 
ATOM     24  N   UNL     1       4.478   5.948  17.762  0.00  0.00    +0.000 N 
ATOM     25  C   UNL     1       4.289   5.136  18.955  0.00  0.00    +0.000 C 
ATOM     26  C   UNL     1       2.802   4.886  19.213  0.00  0.00    +0.000 C 
ATOM     27  C   UNL     1       1.978   6.182  19.169  0.00  0.00    +0.000 C 
ATOM     28  C   UNL     1       2.225   6.898  17.831  0.00  0.00    +0.000 C 
ATOM     29  C   UNL     1       3.714   7.177  17.608  0.00  0.00    +0.000 C 
ATOM     30  N   UNL     1       5.273   6.230  15.590  0.00  0.00    +0.000 NA
ATOM     31  C   UNL     1       5.820   5.711  14.475  0.00  0.00    +0.000 A 
BRANCH  20  33
ATOM     32  C   UNL     1       5.560   3.230  12.246  0.00  0.00    +0.000 C 
ATOM     33  C   UNL     1       6.695   3.817  13.073  0.00  0.00    +0.000 C 
ENDBRANCH  20  33
ENDBRANCH  19  27
ENDBRANCH  18  19
ENDBRANCH   1  18
TORSDOF 6
ENDMDL
MODEL 8
REMARK VINA RESULT:      -7.6      6.080     10.211
REMARK  Name = 
REMARK  8 active torsions:
REMARK  status: ('A' for Active; 'I' for Inactive)
REMARK    1  A    between atoms: C_1  and  C_2
REMARK    2  A    between atoms: C_2  and  C_3
REMARK    3  A    between atoms: C_10  and  C_11
REMARK    4  A    between atoms: C_11  and  O_12
REMARK    5  A    between atoms: O_12  and  C_13
REMARK    6  A    between atoms: C_16  and  C_17
REMARK    7  A    between atoms: C_20  and  S_21
REMARK    8  A    between atoms: S_21  and  C_22
REMARK                            x       y       z     vdW  Elec       q    Type
REMARK                         _______ _______ _______ _____ _____    ______ ____
ROOT
ATOM      1  C   UNL     1      -0.665  10.987  19.888  0.00  0.00    +0.000 C 
ATOM      2  C   UNL     1       0.118  10.846  18.575  0.00  0.00    +0.000 C 
ATOM      3  C   UNL     1       0.663   9.440  18.369  0.00  0.00    +0.000 C 
ATOM      4  C   UNL     1       1.525   8.985  19.556  0.00  0.00    +0.000 C 
ATOM      5  C   UNL     1       0.738   9.104  20.872  0.00  0.00    +0.000 C 
ATOM      6  C   UNL     1       0.181  10.515  21.074  0.00  0.00    +0.000 C 
ENDROOT
BRANCH   4   7
ATOM      7  C   UNL     1       2.097   7.595  19.315  0.00  0.00    +0.000 A 
ATOM      8  C   UNL     1       1.894   6.582  20.268  0.00  0.00    +0.000 A 
ATOM      9  C   UNL     1       2.450   5.309  20.092  0.00  0.00    +0.000 A 
ATOM     10  C   UNL     1       3.225   5.044  18.961  0.00  0.00    +0.000 A 
ATOM     11  C   UNL     1       3.424   6.028  17.994  0.00  0.00    +0.000 A 
ATOM     12  C   UNL     1       2.860   7.287  18.180  0.00  0.00    +0.000 A 
ATOM     13  F   UNL     1       3.077   8.218  17.241  0.00  0.00    +0.000 F 
BRANCH  10  14
ATOM     14  S   UNL     1       3.897   3.421  18.702  0.00  0.00    +0.000 S 
ATOM     15  C   UNL     1       2.627   2.333  19.293  0.00  0.00    +0.000 C 
ATOM     16  O   UNL     1       4.027   3.228  17.271  0.00  0.00    +0.000 OA
ATOM     17  O   UNL     1       5.047   3.285  19.576  0.00  0.00    +0.000 OA
ENDBRANCH  10  14
ENDBRANCH   4   7
BRANCH   1  18
ATOM     18  O   UNL     1      -1.032  12.355  20.145  0.00  0.00    +0.000 OA
BRANCH  18  19
ATOM     19  C   UNL     1      -0.177  13.283  19.484  0.00  0.00    +0.000 C 
BRANCH  19  27
ATOM     20  C   UNL     1       6.673  16.626  19.010  0.00  0.00    +0.000 A 
ATOM     21  C   UNL     1       5.516  17.366  19.065  0.00  0.00    +0.000 A 
ATOM     22  N   UNL     1       4.281  16.829  18.987  0.00  0.00    +0.000 NA
ATOM     23  C   UNL     1       4.183  15.494  18.869  0.00  0.00    +0.000 A 
ATOM     24  N   UNL     1       2.942  14.897  18.828  0.00  0.00    +0.000 N 
ATOM     25  C   UNL     1       1.730  15.703  18.848  0.00  0.00    +0.000 C 
ATOM     26  C   UNL     1       0.956  15.492  20.150  0.00  0.00    +0.000 C 
ATOM     27  C   UNL     1       0.754  14.002  20.471  0.00  0.00    +0.000 C 
ATOM     28  C   UNL     1       2.118  13.294  20.482  0.00  0.00    +0.000 C 
ATOM     29  C   UNL     1       2.861  13.481  19.157  0.00  0.00    +0.000 C 
ATOM     30  N   UNL     1       5.264  14.702  18.786  0.00  0.00    +0.000 NA
ATOM     31  C   UNL     1       6.480  15.273  18.856  0.00  0.00    +0.000 A 
BRANCH  20  33
ATOM     32  C   UNL     1       8.956  16.804  18.049  0.00  0.00    +0.000 C 
ATOM     33  C   UNL     1       8.032  17.225  19.182  0.00  0.00    +0.000 C 
ENDBRANCH  20  33
ENDBRANCH  19  27
ENDBRANCH  18  19
ENDBRANCH   1  18
TORSDOF 6
ENDMDL
MODEL 9
REMARK VINA RESULT:      -7.6      3.333      4.396
REMARK  Name = 
REMARK  8 active torsions:
REMARK  status: ('A' for Active; 'I' for Inactive)
REMARK    1  A    between atoms: C_1  and  C_2
REMARK    2  A    between atoms: C_2  and  C_3
REMARK    3  A    between atoms: C_10  and  C_11
REMARK    4  A    between atoms: C_11  and  O_12
REMARK    5  A    between atoms: O_12  and  C_13
REMARK    6  A    between atoms: C_16  and  C_17
REMARK    7  A    between atoms: C_20  and  S_21
REMARK    8  A    between atoms: S_21  and  C_22
REMARK                            x       y       z     vdW  Elec       q    Type
REMARK                         _______ _______ _______ _____ _____    ______ ____
ROOT
ATOM      1  C   UNL     1       1.390   8.936  20.445  0.00  0.00    +0.000 C 
ATOM      2  C   UNL     1       1.069   9.316  18.992  0.00  0.00    +0.000 C 
ATOM      3  C   UNL     1       1.228  10.807  18.731  0.00  0.00    +0.000 C 
ATOM      4  C   UNL     1       0.384  11.647  19.701  0.00  0.00    +0.000 C 
ATOM      5  C   UNL     1       0.716  11.286  21.159  0.00  0.00    +0.000 C 
ATOM      6  C   UNL     1       0.567   9.785  21.419  0.00  0.00    +0.000 C 
ENDROOT
BRANCH   4   7
ATOM      7  C   UNL     1       0.520  13.132  19.399  0.00  0.00    +0.000 A 
ATOM      8  C   UNL     1       1.752  13.645  18.955  0.00  0.00    +0.000 A 
ATOM      9  C   UNL     1       1.915  15.014  18.716  0.00  0.00    +0.000 A 
ATOM     10  C   UNL     1       0.847  15.886  18.933  0.00  0.00    +0.000 A 
ATOM     11  C   UNL     1      -0.389  15.399  19.356  0.00  0.00    +0.000 A 
ATOM     12  C   UNL     1      -0.538  14.034  19.583  0.00  0.00    +0.000 A 
ATOM     13  F   UNL     1      -1.733  13.593  20.001  0.00  0.00    +0.000 F 
BRANCH  10  14
ATOM     14  S   UNL     1       1.027  17.619  18.590  0.00  0.00    +0.000 S 
ATOM     15  C   UNL     1      -0.398  18.356  19.345  0.00  0.00    +0.000 C 
ATOM     16  O   UNL     1       2.204  18.082  19.300  0.00  0.00    +0.000 OA
ATOM     17  O   UNL     1       0.913  17.790  17.154  0.00  0.00    +0.000 OA
ENDBRANCH  10  14
ENDBRANCH   4   7
BRANCH   1  18
ATOM     18  O   UNL     1       1.079   7.557  20.715  0.00  0.00    +0.000 OA
BRANCH  18  19
ATOM     19  C   UNL     1       2.217   6.708  20.604  0.00  0.00    +0.000 C 
BRANCH  19  27
ATOM     20  C   UNL     1       6.191   4.352  14.524  0.00  0.00    +0.000 A 
ATOM     21  C   UNL     1       6.182   3.635  15.696  0.00  0.00    +0.000 A 
ATOM     22  N   UNL     1       5.632   4.084  16.843  0.00  0.00    +0.000 NA
ATOM     23  C   UNL     1       5.045   5.294  16.826  0.00  0.00    +0.000 A 
ATOM     24  N   UNL     1       4.433   5.776  17.963  0.00  0.00    +0.000 N 
ATOM     25  C   UNL     1       4.470   5.017  19.204  0.00  0.00    +0.000 C 
ATOM     26  C   UNL     1       3.075   4.514  19.576  0.00  0.00    +0.000 C 
ATOM     27  C   UNL     1       2.021   5.632  19.526  0.00  0.00    +0.000 C 
ATOM     28  C   UNL     1       2.050   6.298  18.141  0.00  0.00    +0.000 C 
ATOM     29  C   UNL     1       3.444   6.832  17.802  0.00  0.00    +0.000 C 
ATOM     30  N   UNL     1       5.031   6.066  15.729  0.00  0.00    +0.000 NA
ATOM     31  C   UNL     1       5.598   5.590  14.605  0.00  0.00    +0.000 A 
BRANCH  20  33
ATOM     32  C   UNL     1       5.597   3.442  12.291  0.00  0.00    +0.000 C 
ATOM     33  C   UNL     1       6.729   3.807  13.240  0.00  0.00    +0.000 C 
ENDBRANCH  20  33
ENDBRANCH  19  27
ENDBRANCH  18  19
ENDBRANCH   1  18
TORSDOF 6
ENDMDL
