MODEL 1
REMARK VINA RESULT:      -7.8      0.000      0.000
REMARK  Name = 
REMARK  7 active torsions:
REMARK  status: ('A' for Active; 'I' for Inactive)
REMARK    1  A    between atoms: C_1  and  O_2
REMARK    2  A    between atoms: O_2  and  C_3
REMARK    3  A    between atoms: C_9  and  C_10
REMARK    4  A    between atoms: C_11  and  C_12
REMARK    5  A    between atoms: C_20  and  N_21
REMARK    6  A    between atoms: N_21  and  S_22
REMARK    7  A    between atoms: S_22  and  C_23
REMARK                            x       y       z     vdW  Elec       q    Type
REMARK                         _______ _______ _______ _____ _____    ______ ____
ROOT
ATOM      1  C   UNL     1       3.103   6.446  18.774  0.00  0.00    +0.000 A 
ATOM      2  C   UNL     1       2.426   5.865  19.857  0.00  0.00    +0.000 A 
ATOM      3  N   UNL     1       1.525   6.815  20.304  0.00  0.00    +0.000 N 
ATOM      4  C   UNL     1       1.560   7.955  19.537  0.00  0.00    +0.000 A 
ATOM      5  C   UNL     1       0.804   9.133  19.612  0.00  0.00    +0.000 A 
ATOM      6  C   UNL     1       0.977  10.103  18.619  0.00  0.00    +0.000 A 
ATOM      7  C   UNL     1       1.940   9.939  17.634  0.00  0.00    +0.000 A 
ATOM      8  C   UNL     1       2.752   8.802  17.632  0.00  0.00    +0.000 A 
ATOM      9  C   UNL     1       2.531   7.756  18.561  0.00  0.00    +0.000 A 
ATOM     10  H   UNL     1       0.871   6.674  21.057  0.00  0.00    +0.000 HD
ENDROOT
BRANCH   1  17
ATOM     11  C   UNL     1       3.948   4.678  17.160  0.00  0.00    +0.000 A 
ATOM     12  C   UNL     1       5.014   4.083  16.465  0.00  0.00    +0.000 A 
ATOM     13  C   UNL     1       6.319   4.536  16.653  0.00  0.00    +0.000 A 
ATOM     14  C   UNL     1       6.555   5.611  17.492  0.00  0.00    +0.000 A 
ATOM     15  F   UNL     1       7.815   6.004  17.721  0.00  0.00    +0.000 F 
ATOM     16  C   UNL     1       5.503   6.272  18.120  0.00  0.00    +0.000 A 
ATOM     17  C   UNL     1       4.188   5.794  18.000  0.00  0.00    +0.000 A 
BRANCH  11  19
ATOM     18  C   UNL     1       2.417   2.825  17.358  0.00  0.00    +0.000 C 
ATOM     19  O   UNL     1       2.667   4.200  17.106  0.00  0.00    +0.000 OA
ENDBRANCH  11  19
ENDBRANCH   1  17
BRANCH   2  20
ATOM     20  C   UNL     1       2.545   4.551  20.528  0.00  0.00    +0.000 A 
ATOM     21  C   UNL     1       3.740   3.815  20.473  0.00  0.00    +0.000 A 
ATOM     22  C   UNL     1       3.792   2.495  20.938  0.00  0.00    +0.000 A 
ATOM     23  C   UNL     1       2.650   1.888  21.451  0.00  0.00    +0.000 A 
ATOM     24  C   UNL     1       1.476   2.622  21.573  0.00  0.00    +0.000 A 
ATOM     25  C   UNL     1       1.440   3.955  21.156  0.00  0.00    +0.000 A 
ENDBRANCH   2  20
BRANCH   5  26
ATOM     26  N   UNL     1      -0.050   9.396  20.728  0.00  0.00    +0.000 N 
ATOM     27  H   UNL     1      -0.860   9.976  20.495  0.00  0.00    +0.000 HD
BRANCH  26  28
ATOM     28  S   UNL     1       0.706  10.127  22.071  0.00  0.00    +0.000 S 
ATOM     29  C   UNL     1      -0.638  10.171  23.239  0.00  0.00    +0.000 C 
ATOM     30  O   UNL     1       1.758   9.287  22.595  0.00  0.00    +0.000 OA
ATOM     31  O   UNL     1       0.971  11.489  21.665  0.00  0.00    +0.000 OA
ENDBRANCH  26  28
ENDBRANCH   5  26
TORSDOF 5
ENDMDL
MODEL 2
REMARK VINA RESULT:      -7.2      4.476      7.584
REMARK  Name = 
REMARK  7 active torsions:
REMARK  status: ('A' for Active; 'I' for Inactive)
REMARK    1  A    between atoms: C_1  and  O_2
REMARK    2  A    between atoms: O_2  and  C_3
REMARK    3  A    between atoms: C_9  and  C_10
REMARK    4  A    between atoms: C_11  and  C_12
REMARK    5  A    between atoms: C_20  and  N_21
REMARK    6  A    between atoms: N_21  and  S_22
REMARK    7  A    between atoms: S_22  and  C_23
REMARK                            x       y       z     vdW  Elec       q    Type
REMARK                         _______ _______ _______ _____ _____    ______ ____
ROOT
ATOM      1  C   UNL     1       0.470  11.876  18.942  0.00  0.00    +0.000 A 
ATOM      2  C   UNL     1      -0.798  12.238  18.461  0.00  0.00    +0.000 A 
ATOM      3  N   UNL     1      -0.809  13.620  18.402  0.00  0.00    +0.000 N 
ATOM      4  C   UNL     1       0.399  14.158  18.778  0.00  0.00    +0.000 A 
ATOM      5  C   UNL     1       0.831  15.491  18.831  0.00  0.00    +0.000 A 
ATOM      6  C   UNL     1       2.168  15.748  19.151  0.00  0.00    +0.000 A 
ATOM      7  C   UNL     1       3.022  14.711  19.496  0.00  0.00    +0.000 A 
ATOM      8  C   UNL     1       2.548  13.397  19.532  0.00  0.00    +0.000 A 
ATOM      9  C   UNL     1       1.229  13.094  19.114  0.00  0.00    +0.000 A 
ATOM     10  H   UNL     1      -1.580  14.173  18.063  0.00  0.00    +0.000 HD
ENDROOT
BRANCH   1  17
ATOM     11  C   UNL     1       0.718   9.843  20.442  0.00  0.00    +0.000 A 
ATOM     12  C   UNL     1       1.181   8.531  20.637  0.00  0.00    +0.000 A 
ATOM     13  C   UNL     1       1.901   7.881  19.637  0.00  0.00    +0.000 A 
ATOM     14  C   UNL     1       2.117   8.518  18.426  0.00  0.00    +0.000 A 
ATOM     15  F   UNL     1       2.864   7.918  17.490  0.00  0.00    +0.000 F 
ATOM     16  C   UNL     1       1.589   9.783  18.181  0.00  0.00    +0.000 A 
ATOM     17  C   UNL     1       0.919  10.484  19.195  0.00  0.00    +0.000 A 
BRANCH  11  19
ATOM     18  C   UNL     1      -0.117   9.983  22.700  0.00  0.00    +0.000 C 
ATOM     19  O   UNL     1       0.110  10.571  21.429  0.00  0.00    +0.000 OA
ENDBRANCH  11  19
ENDBRANCH   1  17
BRANCH   2  20
ATOM     20  C   UNL     1      -1.991  11.448  18.083  0.00  0.00    +0.000 A 
ATOM     21  C   UNL     1      -1.919  10.453  17.095  0.00  0.00    +0.000 A 
ATOM     22  C   UNL     1      -3.079   9.844  16.603  0.00  0.00    +0.000 A 
ATOM     23  C   UNL     1      -4.329  10.229  17.081  0.00  0.00    +0.000 A 
ATOM     24  C   UNL     1      -4.415  11.165  18.104  0.00  0.00    +0.000 A 
ATOM     25  C   UNL     1      -3.253  11.734  18.630  0.00  0.00    +0.000 A 
ENDBRANCH   2  20
BRANCH   5  26
ATOM     26  N   UNL     1      -0.087  16.575  18.668  0.00  0.00    +0.000 N 
ATOM     27  H   UNL     1       0.360  17.448  18.375  0.00  0.00    +0.000 HD
BRANCH  26  28
ATOM     28  S   UNL     1      -1.036  16.943  20.036  0.00  0.00    +0.000 S 
ATOM     29  C   UNL     1      -2.308  17.956  19.309  0.00  0.00    +0.000 C 
ATOM     30  O   UNL     1      -1.640  15.750  20.584  0.00  0.00    +0.000 OA
ATOM     31  O   UNL     1      -0.210  17.804  20.852  0.00  0.00    +0.000 OA
ENDBRANCH  26  28
ENDBRANCH   5  26
TORSDOF 5
ENDMDL
MODEL 3
REMARK VINA RESULT:      -7.2      5.106      8.134
REMARK  Name = 
REMARK  7 active torsions:
REMARK  status: ('A' for Active; 'I' for Inactive)
REMARK    1  A    between atoms: C_1  and  O_2
REMARK    2  A    between atoms: O_2  and  C_3
REMARK    3  A    between atoms: C_9  and  C_10
REMARK    4  A    between atoms: C_11  and  C_12
REMARK    5  A    between atoms: C_20  and  N_21
REMARK    6  A    between atoms: N_21  and  S_22
REMARK    7  A    between atoms: S_22  and  C_23
REMARK                            x       y       z     vdW  Elec       q    Type
REMARK                         _______ _______ _______ _____ _____    ______ ____
ROOT
ATOM      1  C   UNL     1       0.225  12.262  19.821  0.00  0.00    +0.000 A 
ATOM      2  C   UNL     1      -0.903  12.558  19.040  0.00  0.00    +0.000 A 
ATOM      3  N   UNL     1      -0.750  13.868  18.622  0.00  0.00    +0.000 N 
ATOM      4  C   UNL     1       0.435  14.410  19.059  0.00  0.00    +0.000 A 
ATOM      5  C   UNL     1       1.000  15.675  18.840  0.00  0.00    +0.000 A 
ATOM      6  C   UNL     1       2.289  15.923  19.321  0.00  0.00    +0.000 A 
ATOM      7  C   UNL     1       2.957  14.968  20.074  0.00  0.00    +0.000 A 
ATOM      8  C   UNL     1       2.339  13.749  20.364  0.00  0.00    +0.000 A 
ATOM      9  C   UNL     1       1.078  13.428  19.805  0.00  0.00    +0.000 A 
ATOM     10  H   UNL     1      -1.392  14.354  18.016  0.00  0.00    +0.000 HD
ENDROOT
BRANCH   1  17
ATOM     11  C   UNL     1       1.050   9.861  19.837  0.00  0.00    +0.000 A 
ATOM     12  C   UNL     1       1.242   8.651  20.523  0.00  0.00    +0.000 A 
ATOM     13  C   UNL     1       0.798   8.507  21.837  0.00  0.00    +0.000 A 
ATOM     14  C   UNL     1       0.211   9.582  22.481  0.00  0.00    +0.000 A 
ATOM     15  F   UNL     1      -0.273   9.424  23.720  0.00  0.00    +0.000 F 
ATOM     16  C   UNL     1       0.093  10.816  21.848  0.00  0.00    +0.000 A 
ATOM     17  C   UNL     1       0.470  10.968  20.505  0.00  0.00    +0.000 A 
BRANCH  11  19
ATOM     18  C   UNL     1       1.916   8.939  17.783  0.00  0.00    +0.000 C 
ATOM     19  O   UNL     1       1.357  10.021  18.513  0.00  0.00    +0.000 OA
ENDBRANCH  11  19
ENDBRANCH   1  17
BRANCH   2  20
ATOM     20  C   UNL     1      -2.101  11.773  18.670  0.00  0.00    +0.000 A 
ATOM     21  C   UNL     1      -2.011  10.682  17.790  0.00  0.00    +0.000 A 
ATOM     22  C   UNL     1      -3.164  10.064  17.291  0.00  0.00    +0.000 A 
ATOM     23  C   UNL     1      -4.423  10.536  17.651  0.00  0.00    +0.000 A 
ATOM     24  C   UNL     1      -4.532  11.572  18.571  0.00  0.00    +0.000 A 
ATOM     25  C   UNL     1      -3.380  12.154  19.108  0.00  0.00    +0.000 A 
ENDBRANCH   2  20
BRANCH   5  26
ATOM     26  N   UNL     1       0.246  16.728  18.236  0.00  0.00    +0.000 N 
ATOM     27  H   UNL     1       0.827  17.449  17.800  0.00  0.00    +0.000 HD
BRANCH  26  28
ATOM     28  S   UNL     1      -0.843  17.536  19.271  0.00  0.00    +0.000 S 
ATOM     29  C   UNL     1      -1.664  18.624  18.124  0.00  0.00    +0.000 C 
ATOM     30  O   UNL     1      -1.812  16.617  19.823  0.00  0.00    +0.000 OA
ATOM     31  O   UNL     1      -0.017  18.355  20.129  0.00  0.00    +0.000 OA
ENDBRANCH  26  28
ENDBRANCH   5  26
TORSDOF 5
ENDMDL
MODEL 4
REMARK VINA RESULT:      -7.0      5.003      8.292
REMARK  Name = 
REMARK  7 active torsions:
REMARK  status: ('A' for Active; 'I' for Inactive)
REMARK    1  A    between atoms: C_1  and  O_2
REMARK    2  A    between atoms: O_2  and  C_3
REMARK    3  A    between atoms: C_9  and  C_10
REMARK    4  A    between atoms: C_11  and  C_12
REMARK    5  A    between atoms: C_20  and  N_21
REMARK    6  A    between atoms: N_21  and  S_22
REMARK    7  A    between atoms: S_22  and  C_23
REMARK                            x       y       z     vdW  Elec       q    Type
REMARK                         _______ _______ _______ _____ _____    ______ ____
ROOT
ATOM      1  C   UNL     1      -0.226  12.452  18.702  0.00  0.00    +0.000 A 
ATOM      2  C   UNL     1       0.928  11.706  18.986  0.00  0.00    +0.000 A 
ATOM      3  N   UNL     1       1.931  12.626  19.234  0.00  0.00    +0.000 N 
ATOM      4  C   UNL     1       1.469  13.918  19.165  0.00  0.00    +0.000 A 
ATOM      5  C   UNL     1       2.126  15.139  19.379  0.00  0.00    +0.000 A 
ATOM      6  C   UNL     1       1.373  16.317  19.349  0.00  0.00    +0.000 A 
ATOM      7  C   UNL     1       0.025  16.284  19.026  0.00  0.00    +0.000 A 
ATOM      8  C   UNL     1      -0.592  15.068  18.721  0.00  0.00    +0.000 A 
ATOM      9  C   UNL     1       0.118  13.848  18.843  0.00  0.00    +0.000 A 
ATOM     10  H   UNL     1       2.874  12.388  19.499  0.00  0.00    +0.000 HD
ENDROOT
BRANCH   1  17
ATOM     11  C   UNL     1      -2.675  11.997  19.192  0.00  0.00    +0.000 A 
ATOM     12  C   UNL     1      -3.897  11.413  18.819  0.00  0.00    +0.000 A 
ATOM     13  C   UNL     1      -3.988  10.651  17.655  0.00  0.00    +0.000 A 
ATOM     14  C   UNL     1      -2.878  10.514  16.840  0.00  0.00    +0.000 A 
ATOM     15  F   UNL     1      -2.950   9.729  15.756  0.00  0.00    +0.000 F 
ATOM     16  C   UNL     1      -1.683  11.158  17.146  0.00  0.00    +0.000 A 
ATOM     17  C   UNL     1      -1.546  11.874  18.345  0.00  0.00    +0.000 A 
BRANCH  11  19
ATOM     18  C   UNL     1      -3.432  13.643  20.785  0.00  0.00    +0.000 C 
ATOM     19  O   UNL     1      -2.498  12.653  20.380  0.00  0.00    +0.000 OA
ENDBRANCH  11  19
ENDBRANCH   1  17
BRANCH   2  20
ATOM     20  C   UNL     1       1.199  10.252  19.025  0.00  0.00    +0.000 A 
ATOM     21  C   UNL     1       1.026   9.513  20.207  0.00  0.00    +0.000 A 
ATOM     22  C   UNL     1       1.464   8.186  20.295  0.00  0.00    +0.000 A 
ATOM     23  C   UNL     1       2.094   7.583  19.210  0.00  0.00    +0.000 A 
ATOM     24  C   UNL     1       2.215   8.277  18.012  0.00  0.00    +0.000 A 
ATOM     25  C   UNL     1       1.731   9.584  17.910  0.00  0.00    +0.000 A 
ENDBRANCH   2  20
BRANCH   5  26
ATOM     26  N   UNL     1       3.547  15.201  19.519  0.00  0.00    +0.000 N 
ATOM     27  H   UNL     1       3.854  15.727  20.341  0.00  0.00    +0.000 HD
BRANCH  26  28
ATOM     28  S   UNL     1       4.388  15.846  18.182  0.00  0.00    +0.000 S 
ATOM     29  C   UNL     1       5.839  14.814  18.159  0.00  0.00    +0.000 C 
ATOM     30  O   UNL     1       3.647  15.643  16.958  0.00  0.00    +0.000 OA
ATOM     31  O   UNL     1       4.802  17.168  18.594  0.00  0.00    +0.000 OA
ENDBRANCH  26  28
ENDBRANCH   5  26
TORSDOF 5
ENDMDL
MODEL 5
REMARK VINA RESULT:      -6.9      4.643      7.779
REMARK  Name = 
REMARK  7 active torsions:
REMARK  status: ('A' for Active; 'I' for Inactive)
REMARK    1  A    between atoms: C_1  and  O_2
REMARK    2  A    between atoms: O_2  and  C_3
REMARK    3  A    between atoms: C_9  and  C_10
REMARK    4  A    between atoms: C_11  and  C_12
REMARK    5  A    between atoms: C_20  and  N_21
REMARK    6  A    between atoms: N_21  and  S_22
REMARK    7  A    between atoms: S_22  and  C_23
REMARK                            x       y       z     vdW  Elec       q    Type
REMARK                         _______ _______ _______ _____ _____    ______ ____
ROOT
ATOM      1  C   UNL     1       0.491  12.001  19.206  0.00  0.00    +0.000 A 
ATOM      2  C   UNL     1      -0.761  12.389  18.705  0.00  0.00    +0.000 A 
ATOM      3  N   UNL     1      -0.697  13.759  18.524  0.00  0.00    +0.000 N 
ATOM      4  C   UNL     1       0.543  14.260  18.843  0.00  0.00    +0.000 A 
ATOM      5  C   UNL     1       1.048  15.567  18.775  0.00  0.00    +0.000 A 
ATOM      6  C   UNL     1       2.401  15.776  19.061  0.00  0.00    +0.000 A 
ATOM      7  C   UNL     1       3.201  14.727  19.490  0.00  0.00    +0.000 A 
ATOM      8  C   UNL     1       2.656  13.450  19.645  0.00  0.00    +0.000 A 
ATOM      9  C   UNL     1       1.317  13.185  19.264  0.00  0.00    +0.000 A 
ATOM     10  H   UNL     1      -1.441  14.322  18.144  0.00  0.00    +0.000 HD
ENDROOT
BRANCH   1  17
ATOM     11  C   UNL     1       0.745  10.130  20.902  0.00  0.00    +0.000 A 
ATOM     12  C   UNL     1       1.134   8.814  21.206  0.00  0.00    +0.000 A 
ATOM     13  C   UNL     1       1.707   8.005  20.227  0.00  0.00    +0.000 A 
ATOM     14  C   UNL     1       1.845   8.487  18.936  0.00  0.00    +0.000 A 
ATOM     15  F   UNL     1       2.454   7.731  18.013  0.00  0.00    +0.000 F 
ATOM     16  C   UNL     1       1.384   9.755  18.595  0.00  0.00    +0.000 A 
ATOM     17  C   UNL     1       0.866  10.614  19.576  0.00  0.00    +0.000 A 
BRANCH  11  19
ATOM     18  C   UNL     1      -0.628  10.562  22.837  0.00  0.00    +0.000 C 
ATOM     19  O   UNL     1       0.289  11.006  21.849  0.00  0.00    +0.000 OA
ENDBRANCH  11  19
ENDBRANCH   1  17
BRANCH   2  20
ATOM     20  C   UNL     1      -2.000  11.637  18.406  0.00  0.00    +0.000 A 
ATOM     21  C   UNL     1      -2.001  10.579  17.482  0.00  0.00    +0.000 A 
ATOM     22  C   UNL     1      -3.202   9.998  17.057  0.00  0.00    +0.000 A 
ATOM     23  C   UNL     1      -4.419  10.474  17.538  0.00  0.00    +0.000 A 
ATOM     24  C   UNL     1      -4.434  11.476  18.501  0.00  0.00    +0.000 A 
ATOM     25  C   UNL     1      -3.231  12.019  18.962  0.00  0.00    +0.000 A 
ENDBRANCH   2  20
BRANCH   5  26
ATOM     26  N   UNL     1       0.189  16.681  18.524  0.00  0.00    +0.000 N 
ATOM     27  H   UNL     1       0.683  17.509  18.181  0.00  0.00    +0.000 HD
BRANCH  26  28
ATOM     28  S   UNL     1      -0.758  17.189  19.849  0.00  0.00    +0.000 S 
ATOM     29  C   UNL     1       0.434  17.119  21.170  0.00  0.00    +0.000 C 
ATOM     30  O   UNL     1      -1.194  18.556  19.680  0.00  0.00    +0.000 OA
ATOM     31  O   UNL     1      -1.710  16.124  20.067  0.00  0.00    +0.000 OA
ENDBRANCH  26  28
ENDBRANCH   5  26
TORSDOF 5
ENDMDL
MODEL 6
REMARK VINA RESULT:      -6.9      1.628      2.343
REMARK  Name = 
REMARK  7 active torsions:
REMARK  status: ('A' for Active; 'I' for Inactive)
REMARK    1  A    between atoms: C_1  and  O_2
REMARK    2  A    between atoms: O_2  and  C_3
REMARK    3  A    between atoms: C_9  and  C_10
REMARK    4  A    between atoms: C_11  and  C_12
REMARK    5  A    between atoms: C_20  and  N_21
REMARK    6  A    between atoms: N_21  and  S_22
REMARK    7  A    between atoms: S_22  and  C_23
REMARK                            x       y       z     vdW  Elec       q    Type
REMARK                         _______ _______ _______ _____ _____    ______ ____
ROOT
ATOM      1  C   UNL     1       3.629   6.028  18.452  0.00  0.00    +0.000 A 
ATOM      2  C   UNL     1       3.031   5.349  19.525  0.00  0.00    +0.000 A 
ATOM      3  N   UNL     1       2.155   6.245  20.110  0.00  0.00    +0.000 N 
ATOM      4  C   UNL     1       2.129   7.446  19.442  0.00  0.00    +0.000 A 
ATOM      5  C   UNL     1       1.370   8.603  19.666  0.00  0.00    +0.000 A 
ATOM      6  C   UNL     1       1.468   9.655  18.750  0.00  0.00    +0.000 A 
ATOM      7  C   UNL     1       2.364   9.588  17.694  0.00  0.00    +0.000 A 
ATOM      8  C   UNL     1       3.183   8.467  17.541  0.00  0.00    +0.000 A 
ATOM      9  C   UNL     1       3.034   7.343  18.390  0.00  0.00    +0.000 A 
ATOM     10  H   UNL     1       1.554   6.032  20.890  0.00  0.00    +0.000 HD
ENDROOT
BRANCH   1  17
ATOM     11  C   UNL     1       6.028   5.379  17.934  0.00  0.00    +0.000 A 
ATOM     12  C   UNL     1       6.973   4.849  17.040  0.00  0.00    +0.000 A 
ATOM     13  C   UNL     1       6.593   4.469  15.755  0.00  0.00    +0.000 A 
ATOM     14  C   UNL     1       5.264   4.568  15.378  0.00  0.00    +0.000 A 
ATOM     15  F   UNL     1       4.911   4.263  14.122  0.00  0.00    +0.000 F 
ATOM     16  C   UNL     1       4.297   5.006  16.279  0.00  0.00    +0.000 A 
ATOM     17  C   UNL     1       4.665   5.458  17.556  0.00  0.00    +0.000 A 
BRANCH  11  19
ATOM     18  C   UNL     1       7.702   5.763  19.627  0.00  0.00    +0.000 C 
ATOM     19  O   UNL     1       6.366   5.877  19.163  0.00  0.00    +0.000 OA
ENDBRANCH  11  19
ENDBRANCH   1  17
BRANCH   2  20
ATOM     20  C   UNL     1       3.206   3.985  20.072  0.00  0.00    +0.000 A 
ATOM     21  C   UNL     1       2.376   3.502  21.097  0.00  0.00    +0.000 A 
ATOM     22  C   UNL     1       2.662   2.294  21.744  0.00  0.00    +0.000 A 
ATOM     23  C   UNL     1       3.788   1.557  21.386  0.00  0.00    +0.000 A 
ATOM     24  C   UNL     1       4.585   1.987  20.331  0.00  0.00    +0.000 A 
ATOM     25  C   UNL     1       4.268   3.166  19.652  0.00  0.00    +0.000 A 
ENDBRANCH   2  20
BRANCH   5  26
ATOM     26  N   UNL     1       0.592   8.760  20.855  0.00  0.00    +0.000 N 
ATOM     27  H   UNL     1      -0.274   8.215  20.851  0.00  0.00    +0.000 HD
BRANCH  26  28
ATOM     28  S   UNL     1       0.160  10.364  21.243  0.00  0.00    +0.000 S 
ATOM     29  C   UNL     1      -0.606  10.139  22.834  0.00  0.00    +0.000 C 
ATOM     30  O   UNL     1       1.334  11.193  21.398  0.00  0.00    +0.000 OA
ATOM     31  O   UNL     1      -0.882  10.715  20.305  0.00  0.00    +0.000 OA
ENDBRANCH  26  28
ENDBRANCH   5  26
TORSDOF 5
ENDMDL
MODEL 7
REMARK VINA RESULT:      -6.9      6.589      9.167
REMARK  Name = 
REMARK  7 active torsions:
REMARK  status: ('A' for Active; 'I' for Inactive)
REMARK    1  A    between atoms: C_1  and  O_2
REMARK    2  A    between atoms: O_2  and  C_3
REMARK    3  A    between atoms: C_9  and  C_10
REMARK    4  A    between atoms: C_11  and  C_12
REMARK    5  A    between atoms: C_20  and  N_21
REMARK    6  A    between atoms: N_21  and  S_22
REMARK    7  A    between atoms: S_22  and  C_23
REMARK                            x       y       z     vdW  Elec       q    Type
REMARK                         _______ _______ _______ _____ _____    ______ ____
ROOT
ATOM      1  C   UNL     1      -1.415  13.177  20.964  0.00  0.00    +0.000 A 
ATOM      2  C   UNL     1      -2.451  12.433  20.378  0.00  0.00    +0.000 A 
ATOM      3  N   UNL     1      -3.467  12.380  21.314  0.00  0.00    +0.000 N 
ATOM      4  C   UNL     1      -3.153  13.086  22.451  0.00  0.00    +0.000 A 
ATOM      5  C   UNL     1      -3.895  13.323  23.617  0.00  0.00    +0.000 A 
ATOM      6  C   UNL     1      -3.364  14.182  24.585  0.00  0.00    +0.000 A 
ATOM      7  C   UNL     1      -2.093  14.715  24.432  0.00  0.00    +0.000 A 
ATOM      8  C   UNL     1      -1.328  14.391  23.308  0.00  0.00    +0.000 A 
ATOM      9  C   UNL     1      -1.877  13.608  22.263  0.00  0.00    +0.000 A 
ATOM     10  H   UNL     1      -4.360  11.937  21.167  0.00  0.00    +0.000 HD
ENDROOT
BRANCH   1  17
ATOM     11  C   UNL     1       1.053  12.698  20.608  0.00  0.00    +0.000 A 
ATOM     12  C   UNL     1       2.273  13.024  19.993  0.00  0.00    +0.000 A 
ATOM     13  C   UNL     1       2.369  14.139  19.163  0.00  0.00    +0.000 A 
ATOM     14  C   UNL     1       1.241  14.899  18.906  0.00  0.00    +0.000 A 
ATOM     15  F   UNL     1       1.348  16.007  18.160  0.00  0.00    +0.000 F 
ATOM     16  C   UNL     1       0.004  14.541  19.434  0.00  0.00    +0.000 A 
ATOM     17  C   UNL     1      -0.106  13.463  20.326  0.00  0.00    +0.000 A 
BRANCH  11  19
ATOM     18  C   UNL     1       0.938  10.337  21.088  0.00  0.00    +0.000 C 
ATOM     19  O   UNL     1       0.928  11.688  21.523  0.00  0.00    +0.000 OA
ENDBRANCH  11  19
ENDBRANCH   1  17
BRANCH   2  20
ATOM     20  C   UNL     1      -2.582  11.754  19.069  0.00  0.00    +0.000 A 
ATOM     21  C   UNL     1      -3.788  11.793  18.351  0.00  0.00    +0.000 A 
ATOM     22  C   UNL     1      -3.973  10.995  17.214  0.00  0.00    +0.000 A 
ATOM     23  C   UNL     1      -2.961  10.138  16.788  0.00  0.00    +0.000 A 
ATOM     24  C   UNL     1      -1.739  10.135  17.449  0.00  0.00    +0.000 A 
ATOM     25  C   UNL     1      -1.539  10.970  18.551  0.00  0.00    +0.000 A 
ENDBRANCH   2  20
BRANCH   5  26
ATOM     26  N   UNL     1      -5.117  12.626  23.872  0.00  0.00    +0.000 N 
ATOM     27  H   UNL     1      -5.019  11.608  23.849  0.00  0.00    +0.000 HD
BRANCH  26  28
ATOM     28  S   UNL     1      -6.413  13.018  22.834  0.00  0.00    +0.000 S 
ATOM     29  C   UNL     1      -7.737  13.236  24.005  0.00  0.00    +0.000 C 
ATOM     30  O   UNL     1      -6.173  14.271  22.156  0.00  0.00    +0.000 OA
ATOM     31  O   UNL     1      -6.686  11.807  22.092  0.00  0.00    +0.000 OA
ENDBRANCH  26  28
ENDBRANCH   5  26
TORSDOF 5
ENDMDL
MODEL 8
REMARK VINA RESULT:      -6.9      6.117      8.614
REMARK  Name = 
REMARK  7 active torsions:
REMARK  status: ('A' for Active; 'I' for Inactive)
REMARK    1  A    between atoms: C_1  and  O_2
REMARK    2  A    between atoms: O_2  and  C_3
REMARK    3  A    between atoms: C_9  and  C_10
REMARK    4  A    between atoms: C_11  and  C_12
REMARK    5  A    between atoms: C_20  and  N_21
REMARK    6  A    between atoms: N_21  and  S_22
REMARK    7  A    between atoms: S_22  and  C_23
REMARK                            x       y       z     vdW  Elec       q    Type
REMARK                         _______ _______ _______ _____ _____    ______ ____
ROOT
ATOM      1  C   UNL     1       0.420  12.308  20.156  0.00  0.00    +0.000 A 
ATOM      2  C   UNL     1      -0.363  12.572  19.021  0.00  0.00    +0.000 A 
ATOM      3  N   UNL     1       0.189  13.690  18.423  0.00  0.00    +0.000 N 
ATOM      4  C   UNL     1       1.306  14.130  19.091  0.00  0.00    +0.000 A 
ATOM      5  C   UNL     1       2.181  15.191  18.815  0.00  0.00    +0.000 A 
ATOM      6  C   UNL     1       3.318  15.345  19.613  0.00  0.00    +0.000 A 
ATOM      7  C   UNL     1       3.527  14.520  20.709  0.00  0.00    +0.000 A 
ATOM      8  C   UNL     1       2.595  13.529  21.026  0.00  0.00    +0.000 A 
ATOM      9  C   UNL     1       1.488  13.281  20.178  0.00  0.00    +0.000 A 
ATOM     10  H   UNL     1      -0.141  14.102  17.564  0.00  0.00    +0.000 HD
ENDROOT
BRANCH   1  17
ATOM     11  C   UNL     1      -0.659  11.375  22.256  0.00  0.00    +0.000 A 
ATOM     12  C   UNL     1      -0.842  10.309  23.153  0.00  0.00    +0.000 A 
ATOM     13  C   UNL     1      -0.152   9.111  22.974  0.00  0.00    +0.000 A 
ATOM     14  C   UNL     1       0.679   8.958  21.878  0.00  0.00    +0.000 A 
ATOM     15  F   UNL     1       1.391   7.831  21.743  0.00  0.00    +0.000 F 
ATOM     16  C   UNL     1       0.805   9.970  20.930  0.00  0.00    +0.000 A 
ATOM     17  C   UNL     1       0.174  11.209  21.122  0.00  0.00    +0.000 A 
BRANCH  11  19
ATOM     18  C   UNL     1      -2.339  12.752  23.305  0.00  0.00    +0.000 C 
ATOM     19  O   UNL     1      -1.216  12.610  22.448  0.00  0.00    +0.000 OA
ENDBRANCH  11  19
ENDBRANCH   1  17
BRANCH   2  20
ATOM     20  C   UNL     1      -1.566  11.919  18.458  0.00  0.00    +0.000 A 
ATOM     21  C   UNL     1      -2.854  12.275  18.891  0.00  0.00    +0.000 A 
ATOM     22  C   UNL     1      -3.974  11.529  18.504  0.00  0.00    +0.000 A 
ATOM     23  C   UNL     1      -3.822  10.409  17.690  0.00  0.00    +0.000 A 
ATOM     24  C   UNL     1      -2.564  10.081  17.200  0.00  0.00    +0.000 A 
ATOM     25  C   UNL     1      -1.455  10.858  17.546  0.00  0.00    +0.000 A 
ENDBRANCH   2  20
BRANCH   5  26
ATOM     26  N   UNL     1       1.874  16.162  17.812  0.00  0.00    +0.000 N 
ATOM     27  H   UNL     1       2.692  16.478  17.286  0.00  0.00    +0.000 HD
BRANCH  26  28
ATOM     28  S   UNL     1       1.076  17.563  18.368  0.00  0.00    +0.000 S 
ATOM     29  C   UNL     1      -0.609  17.201  17.919  0.00  0.00    +0.000 C 
ATOM     30  O   UNL     1       1.166  17.674  19.806  0.00  0.00    +0.000 OA
ATOM     31  O   UNL     1       1.535  18.630  17.507  0.00  0.00    +0.000 OA
ENDBRANCH  26  28
ENDBRANCH   5  26
TORSDOF 5
ENDMDL
MODEL 9
REMARK VINA RESULT:      -6.9      6.900      9.182
REMARK  Name = 
REMARK  7 active torsions:
REMARK  status: ('A' for Active; 'I' for Inactive)
REMARK    1  A    between atoms: C_1  and  O_2
REMARK    2  A    between atoms: O_2  and  C_3
REMARK    3  A    between atoms: C_9  and  C_10
REMARK    4  A    between atoms: C_11  and  C_12
REMARK    5  A    between atoms: C_20  and  N_21
REMARK    6  A    between atoms: N_21  and  S_22
REMARK    7  A    between atoms: S_22  and  C_23
REMARK                            x       y       z     vdW  Elec       q    Type
REMARK                         _______ _______ _______ _____ _____    ______ ____
ROOT
ATOM      1  C   UNL     1      -2.224  12.906  20.217  0.00  0.00    +0.000 A 
ATOM      2  C   UNL     1      -3.282  12.304  19.518  0.00  0.00    +0.000 A 
ATOM      3  N   UNL     1      -4.434  12.618  20.216  0.00  0.00    +0.000 N 
ATOM      4  C   UNL     1      -4.174  13.425  21.298  0.00  0.00    +0.000 A 
ATOM      5  C   UNL     1      -5.038  14.000  22.240  0.00  0.00    +0.000 A 
ATOM      6  C   UNL     1      -4.505  14.882  23.186  0.00  0.00    +0.000 A 
ATOM      7  C   UNL     1      -3.137  15.110  23.244  0.00  0.00    +0.000 A 
ATOM      8  C   UNL     1      -2.280  14.452  22.358  0.00  0.00    +0.000 A 
ATOM      9  C   UNL     1      -2.799  13.635  21.324  0.00  0.00    +0.000 A 
ATOM     10  H   UNL     1      -5.364  12.349  19.936  0.00  0.00    +0.000 HD
ENDROOT
BRANCH   1  17
ATOM     11  C   UNL     1       0.023  11.725  20.259  0.00  0.00    +0.000 A 
ATOM     12  C   UNL     1       1.379  11.689  19.895  0.00  0.00    +0.000 A 
ATOM     13  C   UNL     1       1.948  12.747  19.189  0.00  0.00    +0.000 A 
ATOM     14  C   UNL     1       1.157  13.815  18.802  0.00  0.00    +0.000 A 
ATOM     15  F   UNL     1       1.718  14.860  18.180  0.00  0.00    +0.000 F 
ATOM     16  C   UNL     1      -0.208  13.827  19.075  0.00  0.00    +0.000 A 
ATOM     17  C   UNL     1      -0.791  12.807  19.842  0.00  0.00    +0.000 A 
BRANCH  11  19
ATOM     18  C   UNL     1      -0.267  10.738  22.441  0.00  0.00    +0.000 C 
ATOM     19  O   UNL     1      -0.559  10.774  21.052  0.00  0.00    +0.000 OA
ENDBRANCH  11  19
ENDBRANCH   1  17
BRANCH   2  20
ATOM     20  C   UNL     1      -3.330  11.457  18.305  0.00  0.00    +0.000 A 
ATOM     21  C   UNL     1      -2.387  10.439  18.093  0.00  0.00    +0.000 A 
ATOM     22  C   UNL     1      -2.314   9.771  16.865  0.00  0.00    +0.000 A 
ATOM     23  C   UNL     1      -3.174  10.119  15.827  0.00  0.00    +0.000 A 
ATOM     24  C   UNL     1      -4.157  11.079  16.040  0.00  0.00    +0.000 A 
ATOM     25  C   UNL     1      -4.260  11.708  17.284  0.00  0.00    +0.000 A 
ENDBRANCH   2  20
BRANCH   5  26
ATOM     26  N   UNL     1      -6.415  13.622  22.312  0.00  0.00    +0.000 N 
ATOM     27  H   UNL     1      -7.060  14.411  22.223  0.00  0.00    +0.000 HD
BRANCH  26  28
ATOM     28  S   UNL     1      -6.869  12.771  23.719  0.00  0.00    +0.000 S 
ATOM     29  C   UNL     1      -7.904  11.496  23.030  0.00  0.00    +0.000 C 
ATOM     30  O   UNL     1      -5.721  12.158  24.346  0.00  0.00    +0.000 OA
ATOM     31  O   UNL     1      -7.725  13.677  24.452  0.00  0.00    +0.000 OA
ENDBRANCH  26  28
ENDBRANCH   5  26
TORSDOF 5
ENDMDL
