MODEL 1
REMARK VINA RESULT:      -7.2      0.000      0.000
REMARK  Name = 
REMARK  7 active torsions:
REMARK  status: ('A' for Active; 'I' for Inactive)
REMARK    1  A    between atoms: C_1  and  C_2
REMARK    2  A    between atoms: C_2  and  C_3
REMARK    3  A    between atoms: C_2  and  C_4
REMARK    4  A    between atoms: C_2  and  C_5
REMARK    5  A    between atoms: C_5  and  C_6
REMARK    6  A    between atoms: C_8  and  N_9
REMARK    7  A    between atoms: C_10  and  C_12
REMARK                            x       y       z     vdW  Elec       q    Type
REMARK                         _______ _______ _______ _____ _____    ______ ____
ROOT
ATOM      1  C   UNL     1       7.188   6.048  17.599  0.00  0.00    +0.000 A 
ATOM      2  C   UNL     1       7.812   6.612  18.734  0.00  0.00    +0.000 A 
ATOM      3  C   UNL     1       8.239   7.859  18.348  0.00  0.00    +0.000 A 
ATOM      4  N   UNL     1       7.809   7.991  17.052  0.00  0.00    +0.000 N 
ATOM      5  N   UNL     1       7.195   6.900  16.569  0.00  0.00    +0.000 NA
ATOM      6  H   UNL     1       7.914   8.785  16.428  0.00  0.00    +0.000 HD
ENDROOT
BRANCH   3   7
ATOM      7  N   UNL     1       8.970   8.792  19.076  0.00  0.00    +0.000 N 
ATOM      8  C   UNL     1       8.927  10.205  18.796  0.00  0.00    +0.000 C 
ATOM      9  O   UNL     1       8.296  10.637  17.841  0.00  0.00    +0.000 OA
ATOM     10  H   UNL     1       9.516   8.467  19.866  0.00  0.00    +0.000 HD
BRANCH   8  11
ATOM     11  C   UNL     1       9.703  11.073  19.733  0.00  0.00    +0.000 C 
ATOM     12  C   UNL     1       9.154  12.510  19.824  0.00  0.00    +0.000 C 
ATOM     13  C   UNL     1      10.370  13.339  19.418  0.00  0.00    +0.000 C 
ATOM     14  C   UNL     1      10.647  13.211  17.918  0.00  0.00    +0.000 C 
ATOM     15  C   UNL     1      11.245  11.808  17.822  0.00  0.00    +0.000 C 
ATOM     16  C   UNL     1      11.139  11.314  19.264  0.00  0.00    +0.000 C 
ATOM     17  O   UNL     1      11.439  12.540  19.978  0.00  0.00    +0.000 OA
ENDBRANCH   8  11
ENDBRANCH   3   7
BRANCH   1  18
ATOM     18  C   UNL     1       6.614   4.669  17.483  0.00  0.00    +0.000 C 
BRANCH  18  20
ATOM     19  C   UNL     1       5.340   4.399  15.305  0.00  0.00    +0.000 C 
ATOM     20  C   UNL     1       5.214   4.583  16.825  0.00  0.00    +0.000 C 
ATOM     21  C   UNL     1       4.359   5.832  17.118  0.00  0.00    +0.000 C 
ATOM     22  C   UNL     1       4.480   3.357  17.408  0.00  0.00    +0.000 C 
ENDBRANCH  18  20
ENDBRANCH   1  18
TORSDOF 4
ENDMDL
MODEL 2
REMARK VINA RESULT:      -7.1      0.647      1.052
REMARK  Name = 
REMARK  7 active torsions:
REMARK  status: ('A' for Active; 'I' for Inactive)
REMARK    1  A    between atoms: C_1  and  C_2
REMARK    2  A    between atoms: C_2  and  C_3
REMARK    3  A    between atoms: C_2  and  C_4
REMARK    4  A    between atoms: C_2  and  C_5
REMARK    5  A    between atoms: C_5  and  C_6
REMARK    6  A    between atoms: C_8  and  N_9
REMARK    7  A    between atoms: C_10  and  C_12
REMARK                            x       y       z     vdW  Elec       q    Type
REMARK                         _______ _______ _______ _____ _____    ______ ____
ROOT
ATOM      1  C   UNL     1       6.977   5.975  17.520  0.00  0.00    +0.000 A 
ATOM      2  C   UNL     1       7.692   6.461  18.637  0.00  0.00    +0.000 A 
ATOM      3  C   UNL     1       8.110   7.724  18.295  0.00  0.00    +0.000 A 
ATOM      4  N   UNL     1       7.588   7.939  17.044  0.00  0.00    +0.000 N 
ATOM      5  N   UNL     1       6.922   6.887  16.545  0.00  0.00    +0.000 NA
ATOM      6  H   UNL     1       7.660   8.767  16.462  0.00  0.00    +0.000 HD
ENDROOT
BRANCH   3   7
ATOM      7  N   UNL     1       8.908   8.603  19.020  0.00  0.00    +0.000 N 
ATOM      8  C   UNL     1       8.913  10.025  18.786  0.00  0.00    +0.000 C 
ATOM      9  O   UNL     1       8.263  10.512  17.872  0.00  0.00    +0.000 OA
ATOM     10  H   UNL     1       9.471   8.230  19.776  0.00  0.00    +0.000 HD
BRANCH   8  11
ATOM     11  C   UNL     1       9.761  10.829  19.716  0.00  0.00    +0.000 C 
ATOM     12  C   UNL     1       9.210  12.247  19.967  0.00  0.00    +0.000 C 
ATOM     13  C   UNL     1      10.379  13.123  19.522  0.00  0.00    +0.000 C 
ATOM     14  C   UNL     1      10.524  13.115  17.999  0.00  0.00    +0.000 C 
ATOM     15  C   UNL     1      11.122  11.733  17.741  0.00  0.00    +0.000 C 
ATOM     16  C   UNL     1      11.148  11.127  19.144  0.00  0.00    +0.000 C 
ATOM     17  O   UNL     1      11.499  12.299  19.922  0.00  0.00    +0.000 OA
ENDBRANCH   8  11
ENDBRANCH   3   7
BRANCH   1  18
ATOM     18  C   UNL     1       6.373   4.611  17.366  0.00  0.00    +0.000 C 
BRANCH  18  20
ATOM     19  C   UNL     1       4.215   5.799  17.976  0.00  0.00    +0.000 C 
ATOM     20  C   UNL     1       4.945   4.446  17.943  0.00  0.00    +0.000 C 
ATOM     21  C   UNL     1       4.959   3.841  19.361  0.00  0.00    +0.000 C 
ATOM     22  C   UNL     1       4.159   3.488  17.025  0.00  0.00    +0.000 C 
ENDBRANCH  18  20
ENDBRANCH   1  18
TORSDOF 4
ENDMDL
MODEL 3
REMARK VINA RESULT:      -7.1      0.459      1.078
REMARK  Name = 
REMARK  7 active torsions:
REMARK  status: ('A' for Active; 'I' for Inactive)
REMARK    1  A    between atoms: C_1  and  C_2
REMARK    2  A    between atoms: C_2  and  C_3
REMARK    3  A    between atoms: C_2  and  C_4
REMARK    4  A    between atoms: C_2  and  C_5
REMARK    5  A    between atoms: C_5  and  C_6
REMARK    6  A    between atoms: C_8  and  N_9
REMARK    7  A    between atoms: C_10  and  C_12
REMARK                            x       y       z     vdW  Elec       q    Type
REMARK                         _______ _______ _______ _____ _____    ______ ____
ROOT
ATOM      1  C   UNL     1       7.293   6.087  17.723  0.00  0.00    +0.000 A 
ATOM      2  C   UNL     1       7.940   6.697  18.820  0.00  0.00    +0.000 A 
ATOM      3  C   UNL     1       8.302   7.951  18.393  0.00  0.00    +0.000 A 
ATOM      4  N   UNL     1       7.816   8.040  17.113  0.00  0.00    +0.000 N 
ATOM      5  N   UNL     1       7.226   6.917  16.677  0.00  0.00    +0.000 NA
ATOM      6  H   UNL     1       7.865   8.823  16.470  0.00  0.00    +0.000 HD
ENDROOT
BRANCH   3   7
ATOM      7  N   UNL     1       9.025   8.927  19.072  0.00  0.00    +0.000 N 
ATOM      8  C   UNL     1       8.930  10.329  18.754  0.00  0.00    +0.000 C 
ATOM      9  O   UNL     1       8.259  10.714  17.807  0.00  0.00    +0.000 OA
ATOM     10  H   UNL     1       9.604   8.641  19.854  0.00  0.00    +0.000 HD
BRANCH   8  11
ATOM     11  C   UNL     1       9.706  11.246  19.642  0.00  0.00    +0.000 C 
ATOM     12  C   UNL     1       9.206  12.703  19.596  0.00  0.00    +0.000 C 
ATOM     13  C   UNL     1      10.463  13.455  19.165  0.00  0.00    +0.000 C 
ATOM     14  C   UNL     1      10.784  13.193  17.692  0.00  0.00    +0.000 C 
ATOM     15  C   UNL     1      11.334  11.768  17.733  0.00  0.00    +0.000 C 
ATOM     16  C   UNL     1      11.164  11.400  19.206  0.00  0.00    +0.000 C 
ATOM     17  O   UNL     1      11.484  12.671  19.826  0.00  0.00    +0.000 OA
ENDBRANCH   8  11
ENDBRANCH   3   7
BRANCH   1  18
ATOM     18  C   UNL     1       6.768   4.684  17.657  0.00  0.00    +0.000 C 
BRANCH  18  20
ATOM     19  C   UNL     1       4.715   3.469  18.520  0.00  0.00    +0.000 C 
ATOM     20  C   UNL     1       5.227   4.553  17.559  0.00  0.00    +0.000 C 
ATOM     21  C   UNL     1       4.763   4.225  16.126  0.00  0.00    +0.000 C 
ATOM     22  C   UNL     1       4.601   5.904  17.964  0.00  0.00    +0.000 C 
ENDBRANCH  18  20
ENDBRANCH   1  18
TORSDOF 4
ENDMDL
MODEL 4
REMARK VINA RESULT:      -7.0      6.703      9.577
REMARK  Name = 
REMARK  7 active torsions:
REMARK  status: ('A' for Active; 'I' for Inactive)
REMARK    1  A    between atoms: C_1  and  C_2
REMARK    2  A    between atoms: C_2  and  C_3
REMARK    3  A    between atoms: C_2  and  C_4
REMARK    4  A    between atoms: C_2  and  C_5
REMARK    5  A    between atoms: C_5  and  C_6
REMARK    6  A    between atoms: C_8  and  N_9
REMARK    7  A    between atoms: C_10  and  C_12
REMARK                            x       y       z     vdW  Elec       q    Type
REMARK                         _______ _______ _______ _____ _____    ______ ____
ROOT
ATOM      1  C   UNL     1       1.631   9.183  18.950  0.00  0.00    +0.000 A 
ATOM      2  C   UNL     1       1.907   8.188  17.986  0.00  0.00    +0.000 A 
ATOM      3  C   UNL     1       2.246   7.062  18.696  0.00  0.00    +0.000 A 
ATOM      4  N   UNL     1       2.104   7.421  20.013  0.00  0.00    +0.000 N 
ATOM      5  N   UNL     1       1.759   8.705  20.191  0.00  0.00    +0.000 NA
ATOM      6  H   UNL     1       2.244   6.853  20.842  0.00  0.00    +0.000 HD
ENDROOT
BRANCH   3   7
ATOM      7  N   UNL     1       2.670   5.826  18.217  0.00  0.00    +0.000 N 
ATOM      8  C   UNL     1       3.792   5.117  18.778  0.00  0.00    +0.000 C 
ATOM      9  O   UNL     1       4.475   5.619  19.660  0.00  0.00    +0.000 OA
ATOM     10  H   UNL     1       2.135   5.387  17.476  0.00  0.00    +0.000 HD
BRANCH   8  11
ATOM     11  C   UNL     1       4.052   3.762  18.203  0.00  0.00    +0.000 C 
ATOM     12  C   UNL     1       3.014   3.344  17.143  0.00  0.00    +0.000 C 
ATOM     13  C   UNL     1       2.470   2.044  17.731  0.00  0.00    +0.000 C 
ATOM     14  C   UNL     1       1.578   2.318  18.943  0.00  0.00    +0.000 C 
ATOM     15  C   UNL     1       2.602   2.680  20.019  0.00  0.00    +0.000 C 
ATOM     16  C   UNL     1       3.914   2.644  19.237  0.00  0.00    +0.000 C 
ATOM     17  O   UNL     1       3.661   1.516  18.363  0.00  0.00    +0.000 OA
ENDBRANCH   8  11
ENDBRANCH   3   7
BRANCH   1  18
ATOM     18  C   UNL     1       1.279  10.616  18.684  0.00  0.00    +0.000 C 
BRANCH  18  20
ATOM     19  C   UNL     1      -0.653  10.779  20.321  0.00  0.00    +0.000 C 
ATOM     20  C   UNL     1      -0.217  10.978  18.861  0.00  0.00    +0.000 C 
ATOM     21  C   UNL     1      -1.128  10.143  17.940  0.00  0.00    +0.000 C 
ATOM     22  C   UNL     1      -0.402  12.464  18.492  0.00  0.00    +0.000 C 
ENDBRANCH  18  20
ENDBRANCH   1  18
TORSDOF 4
ENDMDL
MODEL 5
REMARK VINA RESULT:      -7.0      2.180      7.888
REMARK  Name = 
REMARK  7 active torsions:
REMARK  status: ('A' for Active; 'I' for Inactive)
REMARK    1  A    between atoms: C_1  and  C_2
REMARK    2  A    between atoms: C_2  and  C_3
REMARK    3  A    between atoms: C_2  and  C_4
REMARK    4  A    between atoms: C_2  and  C_5
REMARK    5  A    between atoms: C_5  and  C_6
REMARK    6  A    between atoms: C_8  and  N_9
REMARK    7  A    between atoms: C_10  and  C_12
REMARK                            x       y       z     vdW  Elec       q    Type
REMARK                         _______ _______ _______ _____ _____    ______ ____
ROOT
ATOM      1  C   UNL     1       9.057  11.052  18.645  0.00  0.00    +0.000 A 
ATOM      2  C   UNL     1       8.248  10.414  17.680  0.00  0.00    +0.000 A 
ATOM      3  C   UNL     1       8.226   9.085  18.028  0.00  0.00    +0.000 A 
ATOM      4  N   UNL     1       8.960   9.013  19.184  0.00  0.00    +0.000 N 
ATOM      5  N   UNL     1       9.495  10.184  19.563  0.00  0.00    +0.000 NA
ATOM      6  H   UNL     1       9.157   8.200  19.759  0.00  0.00    +0.000 HD
ENDROOT
BRANCH   3   7
ATOM      7  N   UNL     1       7.626   8.021  17.362  0.00  0.00    +0.000 N 
ATOM      8  C   UNL     1       7.572   6.690  17.911  0.00  0.00    +0.000 C 
ATOM      9  O   UNL     1       8.131   6.423  18.965  0.00  0.00    +0.000 OA
ATOM     10  H   UNL     1       7.165   8.205  16.477  0.00  0.00    +0.000 HD
BRANCH   8  11
ATOM     11  C   UNL     1       6.810   5.689  17.103  0.00  0.00    +0.000 C 
ATOM     12  C   UNL     1       5.603   6.299  16.364  0.00  0.00    +0.000 C 
ATOM     13  C   UNL     1       4.446   5.462  16.906  0.00  0.00    +0.000 C 
ATOM     14  C   UNL     1       4.134   5.828  18.358  0.00  0.00    +0.000 C 
ATOM     15  C   UNL     1       5.296   5.180  19.109  0.00  0.00    +0.000 C 
ATOM     16  C   UNL     1       6.142   4.618  17.967  0.00  0.00    +0.000 C 
ATOM     17  O   UNL     1       5.095   4.178  17.065  0.00  0.00    +0.000 OA
ENDBRANCH   8  11
ENDBRANCH   3   7
BRANCH   1  18
ATOM     18  C   UNL     1       9.451  12.498  18.671  0.00  0.00    +0.000 C 
BRANCH  18  20
ATOM     19  C   UNL     1      11.670  11.958  17.564  0.00  0.00    +0.000 C 
ATOM     20  C   UNL     1      10.976  12.774  18.667  0.00  0.00    +0.000 C 
ATOM     21  C   UNL     1      11.627  12.449  20.026  0.00  0.00    +0.000 C 
ATOM     22  C   UNL     1      11.196  14.274  18.380  0.00  0.00    +0.000 C 
ENDBRANCH  18  20
ENDBRANCH   1  18
TORSDOF 4
ENDMDL
MODEL 6
REMARK VINA RESULT:      -6.9      1.374      2.091
REMARK  Name = 
REMARK  7 active torsions:
REMARK  status: ('A' for Active; 'I' for Inactive)
REMARK    1  A    between atoms: C_1  and  C_2
REMARK    2  A    between atoms: C_2  and  C_3
REMARK    3  A    between atoms: C_2  and  C_4
REMARK    4  A    between atoms: C_2  and  C_5
REMARK    5  A    between atoms: C_5  and  C_6
REMARK    6  A    between atoms: C_8  and  N_9
REMARK    7  A    between atoms: C_10  and  C_12
REMARK                            x       y       z     vdW  Elec       q    Type
REMARK                         _______ _______ _______ _____ _____    ______ ____
ROOT
ATOM      1  C   UNL     1       7.229   6.016  17.804  0.00  0.00    +0.000 A 
ATOM      2  C   UNL     1       7.307   7.254  17.128  0.00  0.00    +0.000 A 
ATOM      3  C   UNL     1       8.061   8.073  17.931  0.00  0.00    +0.000 A 
ATOM      4  N   UNL     1       8.430   7.284  18.991  0.00  0.00    +0.000 N 
ATOM      5  N   UNL     1       7.917   6.044  18.950  0.00  0.00    +0.000 NA
ATOM      6  H   UNL     1       9.011   7.524  19.788  0.00  0.00    +0.000 HD
ENDROOT
BRANCH   3   7
ATOM      7  N   UNL     1       8.377   9.417  17.752  0.00  0.00    +0.000 N 
ATOM      8  C   UNL     1       9.024  10.206  18.769  0.00  0.00    +0.000 C 
ATOM      9  O   UNL     1       9.254   9.739  19.875  0.00  0.00    +0.000 OA
ATOM     10  H   UNL     1       8.187   9.840  16.851  0.00  0.00    +0.000 HD
BRANCH   8  11
ATOM     11  C   UNL     1       9.372  11.605  18.376  0.00  0.00    +0.000 C 
ATOM     12  C   UNL     1      10.724  11.712  17.645  0.00  0.00    +0.000 C 
ATOM     13  C   UNL     1      11.488  12.689  18.535  0.00  0.00    +0.000 C 
ATOM     14  C   UNL     1      11.901  12.027  19.851  0.00  0.00    +0.000 C 
ATOM     15  C   UNL     1      10.576  11.966  20.609  0.00  0.00    +0.000 C 
ATOM     16  C   UNL     1       9.592  12.521  19.581  0.00  0.00    +0.000 C 
ATOM     17  O   UNL     1      10.411  13.552  18.973  0.00  0.00    +0.000 OA
ENDBRANCH   8  11
ENDBRANCH   3   7
BRANCH   1  18
ATOM     18  C   UNL     1       6.457   4.806  17.373  0.00  0.00    +0.000 C 
BRANCH  18  20
ATOM     19  C   UNL     1       4.912   4.215  19.297  0.00  0.00    +0.000 C 
ATOM     20  C   UNL     1       4.986   4.747  17.857  0.00  0.00    +0.000 C 
ATOM     21  C   UNL     1       4.109   3.867  16.944  0.00  0.00    +0.000 C 
ATOM     22  C   UNL     1       4.411   6.178  17.833  0.00  0.00    +0.000 C 
ENDBRANCH  18  20
ENDBRANCH   1  18
TORSDOF 4
ENDMDL
MODEL 7
REMARK VINA RESULT:      -6.9      6.712      9.787
REMARK  Name = 
REMARK  7 active torsions:
REMARK  status: ('A' for Active; 'I' for Inactive)
REMARK    1  A    between atoms: C_1  and  C_2
REMARK    2  A    between atoms: C_2  and  C_3
REMARK    3  A    between atoms: C_2  and  C_4
REMARK    4  A    between atoms: C_2  and  C_5
REMARK    5  A    between atoms: C_5  and  C_6
REMARK    6  A    between atoms: C_8  and  N_9
REMARK    7  A    between atoms: C_10  and  C_12
REMARK                            x       y       z     vdW  Elec       q    Type
REMARK                         _______ _______ _______ _____ _____    ______ ____
ROOT
ATOM      1  C   UNL     1       1.048  10.010  18.597  0.00  0.00    +0.000 A 
ATOM      2  C   UNL     1       1.153   9.093  19.667  0.00  0.00    +0.000 A 
ATOM      3  C   UNL     1       2.039   8.130  19.251  0.00  0.00    +0.000 A 
ATOM      4  N   UNL     1       2.448   8.543  18.007  0.00  0.00    +0.000 N 
ATOM      5  N   UNL     1       1.842   9.662  17.580  0.00  0.00    +0.000 NA
ATOM      6  H   UNL     1       3.118   8.105  17.384  0.00  0.00    +0.000 HD
ENDROOT
BRANCH   3   7
ATOM      7  N   UNL     1       2.435   6.969  19.907  0.00  0.00    +0.000 N 
ATOM      8  C   UNL     1       2.708   5.736  19.213  0.00  0.00    +0.000 C 
ATOM      9  O   UNL     1       2.523   5.641  18.008  0.00  0.00    +0.000 OA
ATOM     10  H   UNL     1       2.585   7.010  20.909  0.00  0.00    +0.000 HD
BRANCH   8  11
ATOM     11  C   UNL     1       3.210   4.615  20.063  0.00  0.00    +0.000 C 
ATOM     12  C   UNL     1       3.613   3.369  19.249  0.00  0.00    +0.000 C 
ATOM     13  C   UNL     1       2.721   2.291  19.860  0.00  0.00    +0.000 C 
ATOM     14  C   UNL     1       1.263   2.477  19.436  0.00  0.00    +0.000 C 
ATOM     15  C   UNL     1       0.834   3.677  20.280  0.00  0.00    +0.000 C 
ATOM     16  C   UNL     1       2.134   4.049  20.991  0.00  0.00    +0.000 C 
ATOM     17  O   UNL     1       2.678   2.728  21.239  0.00  0.00    +0.000 OA
ENDBRANCH   8  11
ENDBRANCH   3   7
BRANCH   1  18
ATOM     18  C   UNL     1       0.151  11.209  18.528  0.00  0.00    +0.000 C 
BRANCH  18  20
ATOM     19  C   UNL     1       2.176  12.737  18.482  0.00  0.00    +0.000 C 
ATOM     20  C   UNL     1       0.765  12.531  19.054  0.00  0.00    +0.000 C 
ATOM     21  C   UNL     1       0.829  12.568  20.594  0.00  0.00    +0.000 C 
ATOM     22  C   UNL     1      -0.129  13.698  18.588  0.00  0.00    +0.000 C 
ENDBRANCH  18  20
ENDBRANCH   1  18
TORSDOF 4
ENDMDL
MODEL 8
REMARK VINA RESULT:      -6.9      7.157      8.838
REMARK  Name = 
REMARK  7 active torsions:
REMARK  status: ('A' for Active; 'I' for Inactive)
REMARK    1  A    between atoms: C_1  and  C_2
REMARK    2  A    between atoms: C_2  and  C_3
REMARK    3  A    between atoms: C_2  and  C_4
REMARK    4  A    between atoms: C_2  and  C_5
REMARK    5  A    between atoms: C_5  and  C_6
REMARK    6  A    between atoms: C_8  and  N_9
REMARK    7  A    between atoms: C_10  and  C_12
REMARK                            x       y       z     vdW  Elec       q    Type
REMARK                         _______ _______ _______ _____ _____    ______ ____
ROOT
ATOM      1  C   UNL     1       6.290   4.477  14.689  0.00  0.00    +0.000 A 
ATOM      2  C   UNL     1       5.976   3.429  15.582  0.00  0.00    +0.000 A 
ATOM      3  C   UNL     1       5.123   3.971  16.512  0.00  0.00    +0.000 A 
ATOM      4  N   UNL     1       4.935   5.267  16.104  0.00  0.00    +0.000 N 
ATOM      5  N   UNL     1       5.651   5.604  15.020  0.00  0.00    +0.000 NA
ATOM      6  H   UNL     1       4.353   5.985  16.522  0.00  0.00    +0.000 HD
ENDROOT
BRANCH   3   7
ATOM      7  N   UNL     1       4.576   3.374  17.644  0.00  0.00    +0.000 N 
ATOM      8  C   UNL     1       3.162   3.145  17.797  0.00  0.00    +0.000 C 
ATOM      9  O   UNL     1       2.367   3.545  16.959  0.00  0.00    +0.000 OA
ATOM     10  H   UNL     1       5.207   3.043  18.366  0.00  0.00    +0.000 HD
BRANCH   8  11
ATOM     11  C   UNL     1       2.758   2.410  19.034  0.00  0.00    +0.000 C 
ATOM     12  C   UNL     1       1.230   2.294  19.199  0.00  0.00    +0.000 C 
ATOM     13  C   UNL     1       1.007   2.957  20.556  0.00  0.00    +0.000 C 
ATOM     14  C   UNL     1       1.192   4.473  20.465  0.00  0.00    +0.000 C 
ATOM     15  C   UNL     1       2.710   4.605  20.358  0.00  0.00    +0.000 C 
ATOM     16  C   UNL     1       3.157   3.145  20.315  0.00  0.00    +0.000 C 
ATOM     17  O   UNL     1       2.214   2.561  21.250  0.00  0.00    +0.000 OA
ENDBRANCH   8  11
ENDBRANCH   3   7
BRANCH   1  18
ATOM     18  C   UNL     1       7.240   4.415  13.531  0.00  0.00    +0.000 C 
BRANCH  18  20
ATOM     19  C   UNL     1       5.102   3.823  12.298  0.00  0.00    +0.000 C 
ATOM     20  C   UNL     1       6.634   3.907  12.199  0.00  0.00    +0.000 C 
ATOM     21  C   UNL     1       7.194   2.529  11.796  0.00  0.00    +0.000 C 
ATOM     22  C   UNL     1       6.998   4.912  11.087  0.00  0.00    +0.000 C 
ENDBRANCH  18  20
ENDBRANCH   1  18
TORSDOF 4
ENDMDL
MODEL 9
REMARK VINA RESULT:      -6.9      2.156      7.883
REMARK  Name = 
REMARK  7 active torsions:
REMARK  status: ('A' for Active; 'I' for Inactive)
REMARK    1  A    between atoms: C_1  and  C_2
REMARK    2  A    between atoms: C_2  and  C_3
REMARK    3  A    between atoms: C_2  and  C_4
REMARK    4  A    between atoms: C_2  and  C_5
REMARK    5  A    between atoms: C_5  and  C_6
REMARK    6  A    between atoms: C_8  and  N_9
REMARK    7  A    between atoms: C_10  and  C_12
REMARK                            x       y       z     vdW  Elec       q    Type
REMARK                         _______ _______ _______ _____ _____    ______ ____
ROOT
ATOM      1  C   UNL     1       9.404  11.401  18.889  0.00  0.00    +0.000 A 
ATOM      2  C   UNL     1       9.510  10.103  19.438  0.00  0.00    +0.000 A 
ATOM      3  C   UNL     1       8.682   9.308  18.684  0.00  0.00    +0.000 A 
ATOM      4  N   UNL     1       8.182  10.141  17.715  0.00  0.00    +0.000 N 
ATOM      5  N   UNL     1       8.583  11.416  17.835  0.00  0.00    +0.000 NA
ATOM      6  H   UNL     1       7.549   9.919  16.954  0.00  0.00    +0.000 HD
ENDROOT
BRANCH   3   7
ATOM      7  N   UNL     1       8.376   7.961  18.854  0.00  0.00    +0.000 N 
ATOM      8  C   UNL     1       7.751   7.169  17.826  0.00  0.00    +0.000 C 
ATOM      9  O   UNL     1       7.387   7.678  16.776  0.00  0.00    +0.000 OA
ATOM     10  H   UNL     1       8.652   7.511  19.720  0.00  0.00    +0.000 HD
BRANCH   8  11
ATOM     11  C   UNL     1       7.578   5.719  18.145  0.00  0.00    +0.000 C 
ATOM     12  C   UNL     1       7.245   4.862  16.908  0.00  0.00    +0.000 C 
ATOM     13  C   UNL     1       5.918   4.225  17.313  0.00  0.00    +0.000 C 
ATOM     14  C   UNL     1       4.784   5.252  17.289  0.00  0.00    +0.000 C 
ATOM     15  C   UNL     1       5.071   6.076  18.544  0.00  0.00    +0.000 C 
ATOM     16  C   UNL     1       6.372   5.452  19.047  0.00  0.00    +0.000 C 
ATOM     17  O   UNL     1       6.124   4.057  18.736  0.00  0.00    +0.000 OA
ENDBRANCH   8  11
ENDBRANCH   3   7
BRANCH   1  18
ATOM     18  C   UNL     1      10.062  12.647  19.400  0.00  0.00    +0.000 C 
BRANCH  18  20
ATOM     19  C   UNL     1      10.699  14.209  17.504  0.00  0.00    +0.000 C 
ATOM     20  C   UNL     1      11.223  13.192  18.530  0.00  0.00    +0.000 C 
ATOM     21  C   UNL     1      11.973  12.065  17.792  0.00  0.00    +0.000 C 
ATOM     22  C   UNL     1      12.230  13.904  19.457  0.00  0.00    +0.000 C 
ENDBRANCH  18  20
ENDBRANCH   1  18
TORSDOF 4
ENDMDL
