MODEL 1
REMARK VINA RESULT:      -8.8      0.000      0.000
REMARK  Name = 
REMARK  8 active torsions:
REMARK  status: ('A' for Active; 'I' for Inactive)
REMARK    1  A    between atoms: C_1  and  C_2
REMARK    2  A    between atoms: C_4  and  N_5
REMARK    3  A    between atoms: N_5  and  S_6
REMARK    4  A    between atoms: S_6  and  C_9
REMARK    5  A    between atoms: N_19  and  C_20
REMARK    6  A    between atoms: C_20  and  C_21
REMARK    7  A    between atoms: C_21  and  C_22
REMARK    8  A    between atoms: C_22  and  C_23
REMARK                            x       y       z     vdW  Elec       q    Type
REMARK                         _______ _______ _______ _____ _____    ______ ____
ROOT
ATOM      1  C   UNL     1       0.439   2.408  19.286  0.00  0.00    +0.000 C 
ATOM      2  C   UNL     1       1.865   2.946  19.387  0.00  0.00    +0.000 C 
ATOM      3  C   UNL     1       2.819   2.239  18.407  0.00  0.00    +0.000 C 
ATOM      4  C   UNL     1       3.651   3.355  17.781  0.00  0.00    +0.000 C 
ATOM      5  C   UNL     1       2.640   4.500  17.789  0.00  0.00    +0.000 C 
ATOM      6  N   UNL     1       1.868   4.384  19.037  0.00  0.00    +0.000 NA
ENDROOT
BRANCH   4   7
ATOM      7  N   UNL     1       4.847   3.616  18.613  0.00  0.00    +0.000 NA
ATOM      8  H   UNL     1       4.686   3.701  19.614  0.00  0.00    +0.000 HD
BRANCH   7   9
ATOM      9  S   UNL     1       5.964   4.772  18.102  0.00  0.00    +0.000 S 
ATOM     10  O   UNL     1       5.382   6.088  18.234  0.00  0.00    +0.000 OA
ATOM     11  O   UNL     1       7.220   4.429  18.724  0.00  0.00    +0.000 OA
BRANCH   9  12
ATOM     12  C   UNL     1       6.196   4.567  16.360  0.00  0.00    +0.000 A 
ATOM     13  C   UNL     1       5.556   3.769  15.437  0.00  0.00    +0.000 A 
ATOM     14  C   UNL     1       6.078   3.919  14.113  0.00  0.00    +0.000 A 
ATOM     15  C   UNL     1       5.711   3.287  12.902  0.00  0.00    +0.000 A 
ATOM     16  C   UNL     1       6.374   3.603  11.713  0.00  0.00    +0.000 A 
ATOM     17  C   UNL     1       7.394   4.545  11.707  0.00  0.00    +0.000 A 
ATOM     18  C   UNL     1       7.778   5.185  12.887  0.00  0.00    +0.000 A 
ATOM     19  C   UNL     1       7.113   4.857  14.083  0.00  0.00    +0.000 A 
ATOM     20  S   UNL     1       7.428   5.498  15.648  0.00  0.00    +0.000 S 
ENDBRANCH   9  12
ENDBRANCH   7   9
ENDBRANCH   4   7
BRANCH   6  21
ATOM     21  C   UNL     1       2.352   5.217  20.151  0.00  0.00    +0.000 C 
BRANCH  21  22
ATOM     22  C   UNL     1       2.290   6.730  19.908  0.00  0.00    +0.000 C 
BRANCH  22  23
ATOM     23  C   UNL     1       1.719   7.489  21.103  0.00  0.00    +0.000 C 
BRANCH  23  24
ATOM     24  C   UNL     1       1.032   8.742  20.687  0.00  0.00    +0.000 A 
ATOM     25  N   UNL     1       1.169   9.206  19.438  0.00  0.00    +0.000 NA
ATOM     26  O   UNL     1       0.420  10.372  19.385  0.00  0.00    +0.000 OA
ATOM     27  C   UNL     1      -0.157  10.597  20.595  0.00  0.00    +0.000 A 
ATOM     28  C   UNL     1      -0.973  11.672  20.927  0.00  0.00    +0.000 A 
ATOM     29  C   UNL     1      -1.447  11.683  22.237  0.00  0.00    +0.000 A 
ATOM     30  F   UNL     1      -2.236  12.692  22.632  0.00  0.00    +0.000 F 
ATOM     31  C   UNL     1      -1.128  10.680  23.153  0.00  0.00    +0.000 A 
ATOM     32  C   UNL     1      -0.302   9.610  22.783  0.00  0.00    +0.000 A 
ATOM     33  C   UNL     1       0.194   9.581  21.467  0.00  0.00    +0.000 A 
ENDBRANCH  23  24
ENDBRANCH  22  23
ENDBRANCH  21  22
ENDBRANCH   6  21
TORSDOF 7
ENDMDL
MODEL 2
REMARK VINA RESULT:      -8.1      1.503      1.966
REMARK  Name = 
REMARK  8 active torsions:
REMARK  status: ('A' for Active; 'I' for Inactive)
REMARK    1  A    between atoms: C_1  and  C_2
REMARK    2  A    between atoms: C_4  and  N_5
REMARK    3  A    between atoms: N_5  and  S_6
REMARK    4  A    between atoms: S_6  and  C_9
REMARK    5  A    between atoms: N_19  and  C_20
REMARK    6  A    between atoms: C_20  and  C_21
REMARK    7  A    between atoms: C_21  and  C_22
REMARK    8  A    between atoms: C_22  and  C_23
REMARK                            x       y       z     vdW  Elec       q    Type
REMARK                         _______ _______ _______ _____ _____    ______ ____
ROOT
ATOM      1  C   UNL     1       0.923   3.542  20.444  0.00  0.00    +0.000 C 
ATOM      2  C   UNL     1       2.106   4.461  20.150  0.00  0.00    +0.000 C 
ATOM      3  C   UNL     1       3.014   3.897  19.042  0.00  0.00    +0.000 C 
ATOM      4  C   UNL     1       3.323   5.085  18.134  0.00  0.00    +0.000 C 
ATOM      5  C   UNL     1       2.033   5.891  18.275  0.00  0.00    +0.000 C 
ATOM      6  N   UNL     1       1.600   5.768  19.676  0.00  0.00    +0.000 NA
ENDROOT
BRANCH   4   7
ATOM      7  N   UNL     1       4.523   5.795  18.627  0.00  0.00    +0.000 NA
ATOM      8  H   UNL     1       4.547   6.800  18.466  0.00  0.00    +0.000 HD
BRANCH   7   9
ATOM      9  S   UNL     1       6.045   5.125  18.348  0.00  0.00    +0.000 S 
ATOM     10  O   UNL     1       7.059   6.123  18.599  0.00  0.00    +0.000 OA
ATOM     11  O   UNL     1       6.056   3.845  19.014  0.00  0.00    +0.000 OA
BRANCH   9  12
ATOM     12  C   UNL     1       6.178   4.788  16.616  0.00  0.00    +0.000 A 
ATOM     13  C   UNL     1       5.414   4.014  15.770  0.00  0.00    +0.000 A 
ATOM     14  C   UNL     1       5.892   4.023  14.422  0.00  0.00    +0.000 A 
ATOM     15  C   UNL     1       5.404   3.364  13.268  0.00  0.00    +0.000 A 
ATOM     16  C   UNL     1       6.047   3.529  12.038  0.00  0.00    +0.000 A 
ATOM     17  C   UNL     1       7.166   4.345  11.934  0.00  0.00    +0.000 A 
ATOM     18  C   UNL     1       7.669   5.007  13.056  0.00  0.00    +0.000 A 
ATOM     19  C   UNL     1       7.023   4.831  14.293  0.00  0.00    +0.000 A 
ATOM     20  S   UNL     1       7.475   5.527  15.801  0.00  0.00    +0.000 S 
ENDBRANCH   9  12
ENDBRANCH   7   9
ENDBRANCH   4   7
BRANCH   6  21
ATOM     21  C   UNL     1       2.019   6.870  20.559  0.00  0.00    +0.000 C 
BRANCH  21  22
ATOM     22  C   UNL     1       0.882   7.761  21.074  0.00  0.00    +0.000 C 
BRANCH  22  23
ATOM     23  C   UNL     1       1.189   9.249  20.912  0.00  0.00    +0.000 C 
BRANCH  23  24
ATOM     24  C   UNL     1       0.278  10.094  21.731  0.00  0.00    +0.000 A 
ATOM     25  N   UNL     1       0.333  10.049  23.069  0.00  0.00    +0.000 NA
ATOM     26  O   UNL     1      -0.635  10.935  23.516  0.00  0.00    +0.000 OA
ATOM     27  C   UNL     1      -1.260  11.502  22.450  0.00  0.00    +0.000 A 
ATOM     28  C   UNL     1      -2.290  12.433  22.502  0.00  0.00    +0.000 A 
ATOM     29  C   UNL     1      -2.769  12.869  21.269  0.00  0.00    +0.000 A 
ATOM     30  F   UNL     1      -3.766  13.763  21.241  0.00  0.00    +0.000 F 
ATOM     31  C   UNL     1      -2.247  12.405  20.061  0.00  0.00    +0.000 A 
ATOM     32  C   UNL     1      -1.207  11.465  20.046  0.00  0.00    +0.000 A 
ATOM     33  C   UNL     1      -0.711  11.006  21.279  0.00  0.00    +0.000 A 
ENDBRANCH  23  24
ENDBRANCH  22  23
ENDBRANCH  21  22
ENDBRANCH   6  21
TORSDOF 7
ENDMDL
MODEL 3
REMARK VINA RESULT:      -8.1      4.253      9.746
REMARK  Name = 
REMARK  8 active torsions:
REMARK  status: ('A' for Active; 'I' for Inactive)
REMARK    1  A    between atoms: C_1  and  C_2
REMARK    2  A    between atoms: C_4  and  N_5
REMARK    3  A    between atoms: N_5  and  S_6
REMARK    4  A    between atoms: S_6  and  C_9
REMARK    5  A    between atoms: N_19  and  C_20
REMARK    6  A    between atoms: C_20  and  C_21
REMARK    7  A    between atoms: C_21  and  C_22
REMARK    8  A    between atoms: C_22  and  C_23
REMARK                            x       y       z     vdW  Elec       q    Type
REMARK                         _______ _______ _______ _____ _____    ______ ____
ROOT
ATOM      1  C   UNL     1       1.769   3.974  20.983  0.00  0.00    +0.000 C 
ATOM      2  C   UNL     1       1.543   5.122  20.000  0.00  0.00    +0.000 C 
ATOM      3  C   UNL     1       1.326   6.465  20.721  0.00  0.00    +0.000 C 
ATOM      4  C   UNL     1       2.173   7.474  19.951  0.00  0.00    +0.000 C 
ATOM      5  C   UNL     1       3.323   6.583  19.487  0.00  0.00    +0.000 C 
ATOM      6  N   UNL     1       2.742   5.274  19.147  0.00  0.00    +0.000 NA
ENDROOT
BRANCH   4   7
ATOM      7  N   UNL     1       1.383   8.049  18.841  0.00  0.00    +0.000 NA
ATOM      8  H   UNL     1       1.484   7.593  17.936  0.00  0.00    +0.000 HD
BRANCH   7   9
ATOM      9  S   UNL     1       1.341   9.723  18.646  0.00  0.00    +0.000 S 
ATOM     10  O   UNL     1       1.657  10.358  19.905  0.00  0.00    +0.000 OA
ATOM     11  O   UNL     1       2.080  10.014  17.441  0.00  0.00    +0.000 OA
BRANCH   9  12
ATOM     12  C   UNL     1      -0.336  10.188  18.328  0.00  0.00    +0.000 A 
ATOM     13  C   UNL     1      -1.199   9.868  17.302  0.00  0.00    +0.000 A 
ATOM     14  C   UNL     1      -2.485  10.480  17.443  0.00  0.00    +0.000 A 
ATOM     15  C   UNL     1      -3.631  10.413  16.617  0.00  0.00    +0.000 A 
ATOM     16  C   UNL     1      -4.794  11.105  16.967  0.00  0.00    +0.000 A 
ATOM     17  C   UNL     1      -4.838  11.859  18.132  0.00  0.00    +0.000 A 
ATOM     18  C   UNL     1      -3.722  11.943  18.967  0.00  0.00    +0.000 A 
ATOM     19  C   UNL     1      -2.551  11.252  18.605  0.00  0.00    +0.000 A 
ATOM     20  S   UNL     1      -1.060  11.227  19.465  0.00  0.00    +0.000 S 
ENDBRANCH   9  12
ENDBRANCH   7   9
ENDBRANCH   4   7
BRANCH   6  21
ATOM     21  C   UNL     1       2.427   5.081  17.721  0.00  0.00    +0.000 C 
BRANCH  21  22
ATOM     22  C   UNL     1       2.980   3.792  17.100  0.00  0.00    +0.000 C 
BRANCH  22  23
ATOM     23  C   UNL     1       4.336   3.400  17.682  0.00  0.00    +0.000 C 
BRANCH  23  24
ATOM     24  C   UNL     1       5.456   4.106  17.002  0.00  0.00    +0.000 A 
ATOM     25  N   UNL     1       6.296   4.878  17.706  0.00  0.00    +0.000 NA
ATOM     26  O   UNL     1       7.201   5.384  16.786  0.00  0.00    +0.000 OA
ATOM     27  C   UNL     1       6.900   4.916  15.546  0.00  0.00    +0.000 A 
ATOM     28  C   UNL     1       7.580   5.211  14.370  0.00  0.00    +0.000 A 
ATOM     29  C   UNL     1       7.080   4.606  13.220  0.00  0.00    +0.000 A 
ATOM     30  F   UNL     1       7.681   4.848  12.047  0.00  0.00    +0.000 F 
ATOM     31  C   UNL     1       5.973   3.757  13.245  0.00  0.00    +0.000 A 
ATOM     32  C   UNL     1       5.312   3.481  14.451  0.00  0.00    +0.000 A 
ATOM     33  C   UNL     1       5.795   4.085  15.625  0.00  0.00    +0.000 A 
ENDBRANCH  23  24
ENDBRANCH  22  23
ENDBRANCH  21  22
ENDBRANCH   6  21
TORSDOF 7
ENDMDL
MODEL 4
REMARK VINA RESULT:      -8.1      5.763      8.538
REMARK  Name = 
REMARK  8 active torsions:
REMARK  status: ('A' for Active; 'I' for Inactive)
REMARK    1  A    between atoms: C_1  and  C_2
REMARK    2  A    between atoms: C_4  and  N_5
REMARK    3  A    between atoms: N_5  and  S_6
REMARK    4  A    between atoms: S_6  and  C_9
REMARK    5  A    between atoms: N_19  and  C_20
REMARK    6  A    between atoms: C_20  and  C_21
REMARK    7  A    between atoms: C_21  and  C_22
REMARK    8  A    between atoms: C_22  and  C_23
REMARK                            x       y       z     vdW  Elec       q    Type
REMARK                         _______ _______ _______ _____ _____    ______ ____
ROOT
ATOM      1  C   UNL     1       5.900   5.650  15.092  0.00  0.00    +0.000 C 
ATOM      2  C   UNL     1       5.511   5.839  16.556  0.00  0.00    +0.000 C 
ATOM      3  C   UNL     1       4.599   4.706  17.062  0.00  0.00    +0.000 C 
ATOM      4  C   UNL     1       5.152   4.328  18.434  0.00  0.00    +0.000 C 
ATOM      5  C   UNL     1       6.638   4.613  18.228  0.00  0.00    +0.000 C 
ATOM      6  N   UNL     1       6.733   5.819  17.390  0.00  0.00    +0.000 NA
ENDROOT
BRANCH   4   7
ATOM      7  N   UNL     1       4.526   5.172  19.476  0.00  0.00    +0.000 NA
ATOM      8  H   UNL     1       4.978   5.166  20.388  0.00  0.00    +0.000 HD
BRANCH   7   9
ATOM      9  S   UNL     1       2.850   5.141  19.658  0.00  0.00    +0.000 S 
ATOM     10  O   UNL     1       2.259   4.470  18.522  0.00  0.00    +0.000 OA
ATOM     11  O   UNL     1       2.593   4.714  21.012  0.00  0.00    +0.000 OA
BRANCH   9  12
ATOM     12  C   UNL     1       2.263   6.806  19.538  0.00  0.00    +0.000 A 
ATOM     13  C   UNL     1       2.324   7.730  18.518  0.00  0.00    +0.000 A 
ATOM     14  C   UNL     1       1.714   8.978  18.859  0.00  0.00    +0.000 A 
ATOM     15  C   UNL     1       1.574  10.169  18.108  0.00  0.00    +0.000 A 
ATOM     16  C   UNL     1       0.927  11.278  18.659  0.00  0.00    +0.000 A 
ATOM     17  C   UNL     1       0.408  11.220  19.946  0.00  0.00    +0.000 A 
ATOM     18  C   UNL     1       0.532  10.058  20.710  0.00  0.00    +0.000 A 
ATOM     19  C   UNL     1       1.192   8.948  20.154  0.00  0.00    +0.000 A 
ATOM     20  S   UNL     1       1.477   7.430  20.912  0.00  0.00    +0.000 S 
ENDBRANCH   9  12
ENDBRANCH   7   9
ENDBRANCH   4   7
BRANCH   6  21
ATOM     21  C   UNL     1       6.912   7.081  18.129  0.00  0.00    +0.000 C 
BRANCH  21  22
ATOM     22  C   UNL     1       7.955   8.039  17.540  0.00  0.00    +0.000 C 
BRANCH  22  23
ATOM     23  C   UNL     1       8.730   8.792  18.620  0.00  0.00    +0.000 C 
BRANCH  23  24
ATOM     24  C   UNL     1       8.793  10.252  18.341  0.00  0.00    +0.000 A 
ATOM     25  N   UNL     1       7.931  10.815  17.483  0.00  0.00    +0.000 NA
ATOM     26  O   UNL     1       8.262  12.160  17.446  0.00  0.00    +0.000 OA
ATOM     27  C   UNL     1       9.312  12.394  18.276  0.00  0.00    +0.000 A 
ATOM     28  C   UNL     1       9.926  13.621  18.497  0.00  0.00    +0.000 A 
ATOM     29  C   UNL     1      10.988  13.607  19.398  0.00  0.00    +0.000 A 
ATOM     30  F   UNL     1      11.633  14.753  19.657  0.00  0.00    +0.000 F 
ATOM     31  C   UNL     1      11.405  12.441  20.040  0.00  0.00    +0.000 A 
ATOM     32  C   UNL     1      10.761  11.220  19.793  0.00  0.00    +0.000 A 
ATOM     33  C   UNL     1       9.690  11.208  18.883  0.00  0.00    +0.000 A 
ENDBRANCH  23  24
ENDBRANCH  22  23
ENDBRANCH  21  22
ENDBRANCH   6  21
TORSDOF 7
ENDMDL
MODEL 5
REMARK VINA RESULT:      -8.0      5.741      9.502
REMARK  Name = 
REMARK  8 active torsions:
REMARK  status: ('A' for Active; 'I' for Inactive)
REMARK    1  A    between atoms: C_1  and  C_2
REMARK    2  A    between atoms: C_4  and  N_5
REMARK    3  A    between atoms: N_5  and  S_6
REMARK    4  A    between atoms: S_6  and  C_9
REMARK    5  A    between atoms: N_19  and  C_20
REMARK    6  A    between atoms: C_20  and  C_21
REMARK    7  A    between atoms: C_21  and  C_22
REMARK    8  A    between atoms: C_22  and  C_23
REMARK                            x       y       z     vdW  Elec       q    Type
REMARK                         _______ _______ _______ _____ _____    ______ ____
ROOT
ATOM      1  C   UNL     1      -1.834  10.281  18.263  0.00  0.00    +0.000 C 
ATOM      2  C   UNL     1      -0.515  11.017  18.490  0.00  0.00    +0.000 C 
ATOM      3  C   UNL     1      -0.664  12.171  19.499  0.00  0.00    +0.000 C 
ATOM      4  C   UNL     1       0.549  12.056  20.419  0.00  0.00    +0.000 C 
ATOM      5  C   UNL     1       0.768  10.545  20.413  0.00  0.00    +0.000 C 
ATOM      6  N   UNL     1       0.478  10.074  19.048  0.00  0.00    +0.000 NA
ENDROOT
BRANCH   4   7
ATOM      7  N   UNL     1       1.682  12.821  19.853  0.00  0.00    +0.000 NA
ATOM      8  H   UNL     1       2.528  12.290  19.658  0.00  0.00    +0.000 HD
BRANCH   7   9
ATOM      9  S   UNL     1       2.076  14.317  20.523  0.00  0.00    +0.000 S 
ATOM     10  O   UNL     1       1.335  15.355  19.842  0.00  0.00    +0.000 OA
ATOM     11  O   UNL     1       2.015  14.153  21.955  0.00  0.00    +0.000 OA
BRANCH   9  12
ATOM     12  C   UNL     1       3.768  14.656  20.131  0.00  0.00    +0.000 A 
ATOM     13  C   UNL     1       4.861  14.912  20.929  0.00  0.00    +0.000 A 
ATOM     14  C   UNL     1       6.059  15.140  20.179  0.00  0.00    +0.000 A 
ATOM     15  C   UNL     1       7.372  15.438  20.611  0.00  0.00    +0.000 A 
ATOM     16  C   UNL     1       8.397  15.618  19.678  0.00  0.00    +0.000 A 
ATOM     17  C   UNL     1       8.138  15.500  18.319  0.00  0.00    +0.000 A 
ATOM     18  C   UNL     1       6.851  15.206  17.864  0.00  0.00    +0.000 A 
ATOM     19  C   UNL     1       5.821  15.035  18.807  0.00  0.00    +0.000 A 
ATOM     20  S   UNL     1       4.168  14.690  18.477  0.00  0.00    +0.000 S 
ENDBRANCH   9  12
ENDBRANCH   7   9
ENDBRANCH   4   7
BRANCH   6  21
ATOM     21  C   UNL     1       1.654   9.935  18.173  0.00  0.00    +0.000 C 
BRANCH  21  22
ATOM     22  C   UNL     1       1.812   8.563  17.506  0.00  0.00    +0.000 C 
BRANCH  22  23
ATOM     23  C   UNL     1       2.944   7.743  18.122  0.00  0.00    +0.000 C 
BRANCH  23  24
ATOM     24  C   UNL     1       2.430   6.695  19.046  0.00  0.00    +0.000 A 
ATOM     25  N   UNL     1       2.090   7.010  20.303  0.00  0.00    +0.000 NA
ATOM     26  O   UNL     1       1.667   5.825  20.886  0.00  0.00    +0.000 OA
ATOM     27  C   UNL     1       1.756   4.815  19.981  0.00  0.00    +0.000 A 
ATOM     28  C   UNL     1       1.427   3.484  20.202  0.00  0.00    +0.000 A 
ATOM     29  C   UNL     1       1.604   2.633  19.114  0.00  0.00    +0.000 A 
ATOM     30  F   UNL     1       1.313   1.332  19.255  0.00  0.00    +0.000 F 
ATOM     31  C   UNL     1       2.076   3.087  17.882  0.00  0.00    +0.000 A 
ATOM     32  C   UNL     1       2.398   4.439  17.694  0.00  0.00    +0.000 A 
ATOM     33  C   UNL     1       2.233   5.316  18.781  0.00  0.00    +0.000 A 
ENDBRANCH  23  24
ENDBRANCH  22  23
ENDBRANCH  21  22
ENDBRANCH   6  21
TORSDOF 7
ENDMDL
MODEL 6
REMARK VINA RESULT:      -8.0      0.965      1.334
REMARK  Name = 
REMARK  8 active torsions:
REMARK  status: ('A' for Active; 'I' for Inactive)
REMARK    1  A    between atoms: C_1  and  C_2
REMARK    2  A    between atoms: C_4  and  N_5
REMARK    3  A    between atoms: N_5  and  S_6
REMARK    4  A    between atoms: S_6  and  C_9
REMARK    5  A    between atoms: N_19  and  C_20
REMARK    6  A    between atoms: C_20  and  C_21
REMARK    7  A    between atoms: C_21  and  C_22
REMARK    8  A    between atoms: C_22  and  C_23
REMARK                            x       y       z     vdW  Elec       q    Type
REMARK                         _______ _______ _______ _____ _____    ______ ____
ROOT
ATOM      1  C   UNL     1       0.717   2.160  18.939  0.00  0.00    +0.000 C 
ATOM      2  C   UNL     1       2.065   2.850  19.145  0.00  0.00    +0.000 C 
ATOM      3  C   UNL     1       3.166   2.241  18.258  0.00  0.00    +0.000 C 
ATOM      4  C   UNL     1       3.922   3.435  17.681  0.00  0.00    +0.000 C 
ATOM      5  C   UNL     1       2.797   4.464  17.588  0.00  0.00    +0.000 C 
ATOM      6  N   UNL     1       1.943   4.276  18.771  0.00  0.00    +0.000 NA
ENDROOT
BRANCH   4   7
ATOM      7  N   UNL     1       5.011   3.830  18.601  0.00  0.00    +0.000 NA
ATOM      8  H   UNL     1       4.729   4.094  19.543  0.00  0.00    +0.000 HD
BRANCH   7   9
ATOM      9  S   UNL     1       6.217   4.869  18.044  0.00  0.00    +0.000 S 
ATOM     10  O   UNL     1       5.764   6.235  18.165  0.00  0.00    +0.000 OA
ATOM     11  O   UNL     1       7.451   4.421  18.644  0.00  0.00    +0.000 OA
BRANCH   9  12
ATOM     12  C   UNL     1       6.388   4.615  16.302  0.00  0.00    +0.000 A 
ATOM     13  C   UNL     1       5.776   3.731  15.439  0.00  0.00    +0.000 A 
ATOM     14  C   UNL     1       6.224   3.871  14.087  0.00  0.00    +0.000 A 
ATOM     15  C   UNL     1       5.857   3.164  12.918  0.00  0.00    +0.000 A 
ATOM     16  C   UNL     1       6.437   3.486  11.688  0.00  0.00    +0.000 A 
ATOM     17  C   UNL     1       7.373   4.507  11.600  0.00  0.00    +0.000 A 
ATOM     18  C   UNL     1       7.755   5.223  12.737  0.00  0.00    +0.000 A 
ATOM     19  C   UNL     1       7.174   4.888  13.974  0.00  0.00    +0.000 A 
ATOM     20  S   UNL     1       7.505   5.615  15.498  0.00  0.00    +0.000 S 
ENDBRANCH   9  12
ENDBRANCH   7   9
ENDBRANCH   4   7
BRANCH   6  21
ATOM     21  C   UNL     1       2.242   5.166  19.905  0.00  0.00    +0.000 C 
BRANCH  21  22
ATOM     22  C   UNL     1       2.889   6.505  19.530  0.00  0.00    +0.000 C 
BRANCH  22  23
ATOM     23  C   UNL     1       1.860   7.553  19.112  0.00  0.00    +0.000 C 
BRANCH  23  24
ATOM     24  C   UNL     1       1.376   8.349  20.273  0.00  0.00    +0.000 A 
ATOM     25  N   UNL     1       1.758   8.031  21.518  0.00  0.00    +0.000 NA
ATOM     26  O   UNL     1       1.134   8.948  22.349  0.00  0.00    +0.000 OA
ATOM     27  C   UNL     1       0.387   9.804  21.603  0.00  0.00    +0.000 A 
ATOM     28  C   UNL     1      -0.386  10.853  22.085  0.00  0.00    +0.000 A 
ATOM     29  C   UNL     1      -1.063  11.593  21.119  0.00  0.00    +0.000 A 
ATOM     30  F   UNL     1      -1.834  12.617  21.510  0.00  0.00    +0.000 F 
ATOM     31  C   UNL     1      -0.969  11.304  19.757  0.00  0.00    +0.000 A 
ATOM     32  C   UNL     1      -0.178  10.238  19.306  0.00  0.00    +0.000 A 
ATOM     33  C   UNL     1       0.510   9.473  20.264  0.00  0.00    +0.000 A 
ENDBRANCH  23  24
ENDBRANCH  22  23
ENDBRANCH  21  22
ENDBRANCH   6  21
TORSDOF 7
ENDMDL
MODEL 7
REMARK VINA RESULT:      -8.0      3.410      8.383
REMARK  Name = 
REMARK  8 active torsions:
REMARK  status: ('A' for Active; 'I' for Inactive)
REMARK    1  A    between atoms: C_1  and  C_2
REMARK    2  A    between atoms: C_4  and  N_5
REMARK    3  A    between atoms: N_5  and  S_6
REMARK    4  A    between atoms: S_6  and  C_9
REMARK    5  A    between atoms: N_19  and  C_20
REMARK    6  A    between atoms: C_20  and  C_21
REMARK    7  A    between atoms: C_21  and  C_22
REMARK    8  A    between atoms: C_22  and  C_23
REMARK                            x       y       z     vdW  Elec       q    Type
REMARK                         _______ _______ _______ _____ _____    ______ ____
ROOT
ATOM      1  C   UNL     1       2.161   1.487  20.023  0.00  0.00    +0.000 C 
ATOM      2  C   UNL     1       2.358   2.791  19.254  0.00  0.00    +0.000 C 
ATOM      3  C   UNL     1       1.127   3.710  19.349  0.00  0.00    +0.000 C 
ATOM      4  C   UNL     1       1.686   5.105  19.617  0.00  0.00    +0.000 C 
ATOM      5  C   UNL     1       2.937   4.757  20.423  0.00  0.00    +0.000 C 
ATOM      6  N   UNL     1       3.500   3.531  19.836  0.00  0.00    +0.000 NA
ENDROOT
BRANCH   4   7
ATOM      7  N   UNL     1       1.977   5.783  18.336  0.00  0.00    +0.000 NA
ATOM      8  H   UNL     1       2.431   5.217  17.621  0.00  0.00    +0.000 HD
BRANCH   7   9
ATOM      9  S   UNL     1       2.645   7.331  18.361  0.00  0.00    +0.000 S 
ATOM     10  O   UNL     1       3.975   7.268  18.922  0.00  0.00    +0.000 OA
ATOM     11  O   UNL     1       2.394   7.907  17.062  0.00  0.00    +0.000 OA
BRANCH   9  12
ATOM     12  C   UNL     1       1.724   8.298  19.522  0.00  0.00    +0.000 A 
ATOM     13  C   UNL     1       1.429   8.098  20.853  0.00  0.00    +0.000 A 
ATOM     14  C   UNL     1       0.639   9.152  21.413  0.00  0.00    +0.000 A 
ATOM     15  C   UNL     1       0.125   9.321  22.720  0.00  0.00    +0.000 A 
ATOM     16  C   UNL     1      -0.630  10.453  23.040  0.00  0.00    +0.000 A 
ATOM     17  C   UNL     1      -0.878  11.425  22.080  0.00  0.00    +0.000 A 
ATOM     18  C   UNL     1      -0.384  11.284  20.782  0.00  0.00    +0.000 A 
ATOM     19  C   UNL     1       0.368  10.139  20.463  0.00  0.00    +0.000 A 
ATOM     20  S   UNL     1       1.055   9.748  18.934  0.00  0.00    +0.000 S 
ENDBRANCH   9  12
ENDBRANCH   7   9
ENDBRANCH   4   7
BRANCH   6  21
ATOM     21  C   UNL     1       4.573   3.746  18.850  0.00  0.00    +0.000 C 
BRANCH  21  22
ATOM     22  C   UNL     1       4.243   3.301  17.420  0.00  0.00    +0.000 C 
BRANCH  22  23
ATOM     23  C   UNL     1       5.357   3.643  16.432  0.00  0.00    +0.000 C 
BRANCH  23  24
ATOM     24  C   UNL     1       5.702   5.090  16.463  0.00  0.00    +0.000 A 
ATOM     25  N   UNL     1       5.102   5.947  15.626  0.00  0.00    +0.000 NA
ATOM     26  O   UNL     1       5.648   7.190  15.906  0.00  0.00    +0.000 OA
ATOM     27  C   UNL     1       6.564   7.071  16.902  0.00  0.00    +0.000 A 
ATOM     28  C   UNL     1       7.322   8.101  17.447  0.00  0.00    +0.000 A 
ATOM     29  C   UNL     1       8.198   7.728  18.464  0.00  0.00    +0.000 A 
ATOM     30  F   UNL     1       8.966   8.667  19.034  0.00  0.00    +0.000 F 
ATOM     31  C   UNL     1       8.305   6.410  18.909  0.00  0.00    +0.000 A 
ATOM     32  C   UNL     1       7.524   5.396  18.337  0.00  0.00    +0.000 A 
ATOM     33  C   UNL     1       6.636   5.748  17.304  0.00  0.00    +0.000 A 
ENDBRANCH  23  24
ENDBRANCH  22  23
ENDBRANCH  21  22
ENDBRANCH   6  21
TORSDOF 7
ENDMDL
MODEL 8
REMARK VINA RESULT:      -8.0      4.735     10.715
REMARK  Name = 
REMARK  8 active torsions:
REMARK  status: ('A' for Active; 'I' for Inactive)
REMARK    1  A    between atoms: C_1  and  C_2
REMARK    2  A    between atoms: C_4  and  N_5
REMARK    3  A    between atoms: N_5  and  S_6
REMARK    4  A    between atoms: S_6  and  C_9
REMARK    5  A    between atoms: N_19  and  C_20
REMARK    6  A    between atoms: C_20  and  C_21
REMARK    7  A    between atoms: C_21  and  C_22
REMARK    8  A    between atoms: C_22  and  C_23
REMARK                            x       y       z     vdW  Elec       q    Type
REMARK                         _______ _______ _______ _____ _____    ______ ____
ROOT
ATOM      1  C   UNL     1       1.393   8.339  21.765  0.00  0.00    +0.000 C 
ATOM      2  C   UNL     1       0.690   8.694  20.457  0.00  0.00    +0.000 C 
ATOM      3  C   UNL     1      -0.430   9.731  20.666  0.00  0.00    +0.000 C 
ATOM      4  C   UNL     1      -0.261  10.738  19.531  0.00  0.00    +0.000 C 
ATOM      5  C   UNL     1       1.253  10.693  19.336  0.00  0.00    +0.000 C 
ATOM      6  N   UNL     1       1.670   9.294  19.525  0.00  0.00    +0.000 NA
ENDROOT
BRANCH   4   7
ATOM      7  N   UNL     1      -1.024  10.290  18.346  0.00  0.00    +0.000 NA
ATOM      8  H   UNL     1      -0.524   9.695  17.689  0.00  0.00    +0.000 HD
BRANCH   7   9
ATOM      9  S   UNL     1      -1.972  11.407  17.511  0.00  0.00    +0.000 S 
ATOM     10  O   UNL     1      -1.290  12.681  17.478  0.00  0.00    +0.000 OA
ATOM     11  O   UNL     1      -2.414  10.749  16.305  0.00  0.00    +0.000 OA
BRANCH   9  12
ATOM     12  C   UNL     1      -3.424  11.712  18.475  0.00  0.00    +0.000 A 
ATOM     13  C   UNL     1      -3.609  12.363  19.676  0.00  0.00    +0.000 A 
ATOM     14  C   UNL     1      -4.975  12.371  20.101  0.00  0.00    +0.000 A 
ATOM     15  C   UNL     1      -5.575  12.918  21.260  0.00  0.00    +0.000 A 
ATOM     16  C   UNL     1      -6.952  12.803  21.462  0.00  0.00    +0.000 A 
ATOM     17  C   UNL     1      -7.748  12.156  20.525  0.00  0.00    +0.000 A 
ATOM     18  C   UNL     1      -7.183  11.606  19.373  0.00  0.00    +0.000 A 
ATOM     19  C   UNL     1      -5.794  11.717  19.178  0.00  0.00    +0.000 A 
ATOM     20  S   UNL     1      -4.885  11.103  17.853  0.00  0.00    +0.000 S 
ENDBRANCH   9  12
ENDBRANCH   7   9
ENDBRANCH   4   7
BRANCH   6  21
ATOM     21  C   UNL     1       1.800   8.508  18.286  0.00  0.00    +0.000 C 
BRANCH  21  22
ATOM     22  C   UNL     1       3.149   7.803  18.099  0.00  0.00    +0.000 C 
BRANCH  22  23
ATOM     23  C   UNL     1       3.016   6.482  17.343  0.00  0.00    +0.000 C 
BRANCH  23  24
ATOM     24  C   UNL     1       3.460   5.325  18.167  0.00  0.00    +0.000 A 
ATOM     25  N   UNL     1       4.674   4.789  17.983  0.00  0.00    +0.000 NA
ATOM     26  O   UNL     1       4.765   3.744  18.889  0.00  0.00    +0.000 OA
ATOM     27  C   UNL     1       3.613   3.661  19.605  0.00  0.00    +0.000 A 
ATOM     28  C   UNL     1       3.331   2.733  20.600  0.00  0.00    +0.000 A 
ATOM     29  C   UNL     1       2.076   2.851  21.193  0.00  0.00    +0.000 A 
ATOM     30  F   UNL     1       1.731   1.987  22.157  0.00  0.00    +0.000 F 
ATOM     31  C   UNL     1       1.164   3.837  20.816  0.00  0.00    +0.000 A 
ATOM     32  C   UNL     1       1.483   4.758  19.807  0.00  0.00    +0.000 A 
ATOM     33  C   UNL     1       2.742   4.654  19.191  0.00  0.00    +0.000 A 
ENDBRANCH  23  24
ENDBRANCH  22  23
ENDBRANCH  21  22
ENDBRANCH   6  21
TORSDOF 7
ENDMDL
MODEL 9
REMARK VINA RESULT:      -8.0      4.056      7.386
REMARK  Name = 
REMARK  8 active torsions:
REMARK  status: ('A' for Active; 'I' for Inactive)
REMARK    1  A    between atoms: C_1  and  C_2
REMARK    2  A    between atoms: C_4  and  N_5
REMARK    3  A    between atoms: N_5  and  S_6
REMARK    4  A    between atoms: S_6  and  C_9
REMARK    5  A    between atoms: N_19  and  C_20
REMARK    6  A    between atoms: C_20  and  C_21
REMARK    7  A    between atoms: C_21  and  C_22
REMARK    8  A    between atoms: C_22  and  C_23
REMARK                            x       y       z     vdW  Elec       q    Type
REMARK                         _______ _______ _______ _____ _____    ______ ____
ROOT
ATOM      1  C   UNL     1      -0.111  13.985  18.334  0.00  0.00    +0.000 C 
ATOM      2  C   UNL     1       0.073  12.492  18.599  0.00  0.00    +0.000 C 
ATOM      3  C   UNL     1       0.999  12.228  19.801  0.00  0.00    +0.000 C 
ATOM      4  C   UNL     1       0.307  11.132  20.606  0.00  0.00    +0.000 C 
ATOM      5  C   UNL     1      -1.159  11.455  20.323  0.00  0.00    +0.000 C 
ATOM      6  N   UNL     1      -1.240  11.890  18.920  0.00  0.00    +0.000 NA
ENDROOT
BRANCH   4   7
ATOM      7  N   UNL     1       0.727   9.803  20.109  0.00  0.00    +0.000 NA
ATOM      8  H   UNL     1       0.286   9.486  19.249  0.00  0.00    +0.000 HD
BRANCH   7   9
ATOM      9  S   UNL     1       0.858   8.524  21.200  0.00  0.00    +0.000 S 
ATOM     10  O   UNL     1       1.791   8.881  22.244  0.00  0.00    +0.000 OA
ATOM     11  O   UNL     1      -0.489   8.100  21.497  0.00  0.00    +0.000 OA
BRANCH   9  12
ATOM     12  C   UNL     1       1.634   7.174  20.360  0.00  0.00    +0.000 A 
ATOM     13  C   UNL     1       1.737   5.836  20.673  0.00  0.00    +0.000 A 
ATOM     14  C   UNL     1       2.468   5.090  19.696  0.00  0.00    +0.000 A 
ATOM     15  C   UNL     1       2.799   3.715  19.647  0.00  0.00    +0.000 A 
ATOM     16  C   UNL     1       3.533   3.205  18.572  0.00  0.00    +0.000 A 
ATOM     17  C   UNL     1       3.938   4.040  17.539  0.00  0.00    +0.000 A 
ATOM     18  C   UNL     1       3.625   5.400  17.561  0.00  0.00    +0.000 A 
ATOM     19  C   UNL     1       2.894   5.911  18.650  0.00  0.00    +0.000 A 
ATOM     20  S   UNL     1       2.417   7.545  18.896  0.00  0.00    +0.000 S 
ENDBRANCH   9  12
ENDBRANCH   7   9
ENDBRANCH   4   7
BRANCH   6  21
ATOM     21  C   UNL     1      -1.609  10.837  17.959  0.00  0.00    +0.000 C 
BRANCH  21  22
ATOM     22  C   UNL     1      -3.073  10.382  18.020  0.00  0.00    +0.000 C 
BRANCH  22  23
ATOM     23  C   UNL     1      -4.045  11.494  17.631  0.00  0.00    +0.000 C 
BRANCH  23  24
ATOM     24  C   UNL     1      -5.246  11.512  18.509  0.00  0.00    +0.000 A 
ATOM     25  N   UNL     1      -6.401  10.979  18.088  0.00  0.00    +0.000 NA
ATOM     26  O   UNL     1      -7.302  11.167  19.124  0.00  0.00    +0.000 OA
ATOM     27  C   UNL     1      -6.687  11.807  20.153  0.00  0.00    +0.000 A 
ATOM     28  C   UNL     1      -7.271  12.173  21.359  0.00  0.00    +0.000 A 
ATOM     29  C   UNL     1      -6.431  12.823  22.261  0.00  0.00    +0.000 A 
ATOM     30  F   UNL     1      -6.927  13.211  23.443  0.00  0.00    +0.000 F 
ATOM     31  C   UNL     1      -5.091  13.085  21.975  0.00  0.00    +0.000 A 
ATOM     32  C   UNL     1      -4.534  12.700  20.747  0.00  0.00    +0.000 A 
ATOM     33  C   UNL     1      -5.365  12.048  19.818  0.00  0.00    +0.000 A 
ENDBRANCH  23  24
ENDBRANCH  22  23
ENDBRANCH  21  22
ENDBRANCH   6  21
TORSDOF 7
ENDMDL
