MODEL 1
REMARK VINA RESULT:      -7.1      0.000      0.000
REMARK  Name = 
REMARK  6 active torsions:
REMARK  status: ('A' for Active; 'I' for Inactive)
REMARK    1  A    between atoms: C_2  and  O_3
REMARK    2  A    between atoms: C_2  and  C_4
REMARK    3  A    between atoms: C_6  and  C_7
REMARK    4  A    between atoms: C_7  and  C_8
REMARK    5  A    between atoms: C_8  and  C_9
REMARK    6  A    between atoms: C_9  and  C_10
REMARK                            x       y       z     vdW  Elec       q    Type
REMARK                         _______ _______ _______ _____ _____    ______ ____
ROOT
ATOM      1  C   UNL     1       6.389   4.077  13.837  0.00  0.00    +0.000 A 
ATOM      2  C   UNL     1       6.120   3.777  15.194  0.00  0.00    +0.000 A 
ATOM      3  C   UNL     1       6.921   4.628  15.921  0.00  0.00    +0.000 A 
ATOM      4  N   UNL     1       7.565   5.409  15.000  0.00  0.00    +0.000 N 
ATOM      5  N   UNL     1       7.276   5.089  13.723  0.00  0.00    +0.000 NA
ATOM      6  H   UNL     1       8.230   6.156  15.172  0.00  0.00    +0.000 HD
ENDROOT
BRANCH   1   8
ATOM      7  O   UNL     1       4.732   3.606  12.191  0.00  0.00    +0.000 OA
ATOM      8  C   UNL     1       5.853   3.422  12.641  0.00  0.00    +0.000 C 
BRANCH   8   9
ATOM      9  O   UNL     1       6.749   2.564  12.081  0.00  0.00    +0.000 OA
ATOM     10  H   UNL     1       6.259   2.092  11.366  0.00  0.00    +0.000 HD
ENDBRANCH   8   9
ENDBRANCH   1   8
BRANCH   3  11
ATOM     11  C   UNL     1       7.164   4.743  17.387  0.00  0.00    +0.000 C 
BRANCH  11  12
ATOM     12  C   UNL     1       6.198   5.755  18.010  0.00  0.00    +0.000 C 
BRANCH  12  13
ATOM     13  C   UNL     1       5.414   5.163  19.184  0.00  0.00    +0.000 C 
BRANCH  13  14
ATOM     14  C   UNL     1       4.395   4.156  18.706  0.00  0.00    +0.000 A 
ATOM     15  C   UNL     1       4.421   2.837  19.178  0.00  0.00    +0.000 A 
ATOM     16  C   UNL     1       3.498   1.897  18.713  0.00  0.00    +0.000 A 
ATOM     17  C   UNL     1       2.544   2.268  17.766  0.00  0.00    +0.000 A 
ATOM     18  C   UNL     1       2.513   3.576  17.286  0.00  0.00    +0.000 A 
ATOM     19  C   UNL     1       3.437   4.514  17.750  0.00  0.00    +0.000 A 
ENDBRANCH  13  14
ENDBRANCH  12  13
ENDBRANCH  11  12
ENDBRANCH   3  11
TORSDOF 6
ENDMDL
MODEL 2
REMARK VINA RESULT:      -6.9      2.149      2.782
REMARK  Name = 
REMARK  6 active torsions:
REMARK  status: ('A' for Active; 'I' for Inactive)
REMARK    1  A    between atoms: C_2  and  O_3
REMARK    2  A    between atoms: C_2  and  C_4
REMARK    3  A    between atoms: C_6  and  C_7
REMARK    4  A    between atoms: C_7  and  C_8
REMARK    5  A    between atoms: C_8  and  C_9
REMARK    6  A    between atoms: C_9  and  C_10
REMARK                            x       y       z     vdW  Elec       q    Type
REMARK                         _______ _______ _______ _____ _____    ______ ____
ROOT
ATOM      1  C   UNL     1       6.857   4.688  15.860  0.00  0.00    +0.000 A 
ATOM      2  C   UNL     1       5.657   5.045  16.520  0.00  0.00    +0.000 A 
ATOM      3  C   UNL     1       5.889   4.801  17.855  0.00  0.00    +0.000 A 
ATOM      4  N   UNL     1       7.189   4.381  17.934  0.00  0.00    +0.000 N 
ATOM      5  N   UNL     1       7.801   4.285  16.737  0.00  0.00    +0.000 NA
ATOM      6  H   UNL     1       7.710   4.119  18.766  0.00  0.00    +0.000 HD
ENDROOT
BRANCH   1   8
ATOM      7  O   UNL     1       7.785   5.549  13.841  0.00  0.00    +0.000 OA
ATOM      8  C   UNL     1       7.135   4.692  14.421  0.00  0.00    +0.000 C 
BRANCH   8   9
ATOM      9  O   UNL     1       6.574   3.625  13.787  0.00  0.00    +0.000 OA
ATOM     10  H   UNL     1       6.782   2.840  14.346  0.00  0.00    +0.000 HD
ENDBRANCH   8   9
ENDBRANCH   1   8
BRANCH   3  11
ATOM     11  C   UNL     1       4.994   4.888  19.044  0.00  0.00    +0.000 C 
BRANCH  11  12
ATOM     12  C   UNL     1       4.272   6.238  19.071  0.00  0.00    +0.000 C 
BRANCH  12  13
ATOM     13  C   UNL     1       2.862   6.153  18.485  0.00  0.00    +0.000 C 
BRANCH  13  14
ATOM     14  C   UNL     1       2.152   4.904  18.950  0.00  0.00    +0.000 A 
ATOM     15  C   UNL     1       1.808   3.898  18.038  0.00  0.00    +0.000 A 
ATOM     16  C   UNL     1       1.123   2.757  18.463  0.00  0.00    +0.000 A 
ATOM     17  C   UNL     1       0.771   2.615  19.804  0.00  0.00    +0.000 A 
ATOM     18  C   UNL     1       1.104   3.613  20.720  0.00  0.00    +0.000 A 
ATOM     19  C   UNL     1       1.787   4.753  20.294  0.00  0.00    +0.000 A 
ENDBRANCH  13  14
ENDBRANCH  12  13
ENDBRANCH  11  12
ENDBRANCH   3  11
TORSDOF 6
ENDMDL
MODEL 3
REMARK VINA RESULT:      -6.7      1.655      2.026
REMARK  Name = 
REMARK  6 active torsions:
REMARK  status: ('A' for Active; 'I' for Inactive)
REMARK    1  A    between atoms: C_2  and  O_3
REMARK    2  A    between atoms: C_2  and  C_4
REMARK    3  A    between atoms: C_6  and  C_7
REMARK    4  A    between atoms: C_7  and  C_8
REMARK    5  A    between atoms: C_8  and  C_9
REMARK    6  A    between atoms: C_9  and  C_10
REMARK                            x       y       z     vdW  Elec       q    Type
REMARK                         _______ _______ _______ _____ _____    ______ ____
ROOT
ATOM      1  C   UNL     1       6.847   4.425  13.828  0.00  0.00    +0.000 A 
ATOM      2  C   UNL     1       6.100   3.994  14.950  0.00  0.00    +0.000 A 
ATOM      3  C   UNL     1       6.549   4.760  16.003  0.00  0.00    +0.000 A 
ATOM      4  N   UNL     1       7.468   5.622  15.469  0.00  0.00    +0.000 N 
ATOM      5  N   UNL     1       7.686   5.433  14.152  0.00  0.00    +0.000 NA
ATOM      6  H   UNL     1       8.001   6.341  15.949  0.00  0.00    +0.000 HD
ENDROOT
BRANCH   1   8
ATOM      7  O   UNL     1       7.356   4.427  11.500  0.00  0.00    +0.000 OA
ATOM      8  C   UNL     1       6.815   3.899  12.461  0.00  0.00    +0.000 C 
BRANCH   8   9
ATOM      9  O   UNL     1       6.095   2.747  12.371  0.00  0.00    +0.000 OA
ATOM     10  H   UNL     1       6.332   2.219  13.170  0.00  0.00    +0.000 HD
ENDBRANCH   8   9
ENDBRANCH   1   8
BRANCH   3  11
ATOM     11  C   UNL     1       6.223   4.726  17.457  0.00  0.00    +0.000 C 
BRANCH  11  12
ATOM     12  C   UNL     1       4.925   3.950  17.695  0.00  0.00    +0.000 C 
BRANCH  12  13
ATOM     13  C   UNL     1       3.703   4.868  17.755  0.00  0.00    +0.000 C 
BRANCH  13  14
ATOM     14  C   UNL     1       2.617   4.276  18.621  0.00  0.00    +0.000 A 
ATOM     15  C   UNL     1       1.922   3.131  18.210  0.00  0.00    +0.000 A 
ATOM     16  C   UNL     1       0.896   2.601  18.996  0.00  0.00    +0.000 A 
ATOM     17  C   UNL     1       0.553   3.216  20.199  0.00  0.00    +0.000 A 
ATOM     18  C   UNL     1       1.235   4.358  20.616  0.00  0.00    +0.000 A 
ATOM     19  C   UNL     1       2.259   4.888  19.829  0.00  0.00    +0.000 A 
ENDBRANCH  13  14
ENDBRANCH  12  13
ENDBRANCH  11  12
ENDBRANCH   3  11
TORSDOF 6
ENDMDL
MODEL 4
REMARK VINA RESULT:      -6.6      1.670      1.936
REMARK  Name = 
REMARK  6 active torsions:
REMARK  status: ('A' for Active; 'I' for Inactive)
REMARK    1  A    between atoms: C_2  and  O_3
REMARK    2  A    between atoms: C_2  and  C_4
REMARK    3  A    between atoms: C_6  and  C_7
REMARK    4  A    between atoms: C_7  and  C_8
REMARK    5  A    between atoms: C_8  and  C_9
REMARK    6  A    between atoms: C_9  and  C_10
REMARK                            x       y       z     vdW  Elec       q    Type
REMARK                         _______ _______ _______ _____ _____    ______ ____
ROOT
ATOM      1  C   UNL     1       6.564   4.573  14.058  0.00  0.00    +0.000 A 
ATOM      2  C   UNL     1       5.460   4.484  14.939  0.00  0.00    +0.000 A 
ATOM      3  C   UNL     1       5.836   5.183  16.065  0.00  0.00    +0.000 A 
ATOM      4  N   UNL     1       7.078   5.687  15.790  0.00  0.00    +0.000 N 
ATOM      5  N   UNL     1       7.557   5.322  14.585  0.00  0.00    +0.000 NA
ATOM      6  H   UNL     1       7.663   6.263  16.388  0.00  0.00    +0.000 HD
ENDROOT
BRANCH   1   8
ATOM      7  O   UNL     1       7.434   4.391  11.847  0.00  0.00    +0.000 OA
ATOM      8  C   UNL     1       6.723   3.953  12.740  0.00  0.00    +0.000 C 
BRANCH   8   9
ATOM      9  O   UNL     1       5.973   2.824  12.609  0.00  0.00    +0.000 OA
ATOM     10  H   UNL     1       6.571   2.075  12.845  0.00  0.00    +0.000 HD
ENDBRANCH   8   9
ENDBRANCH   1   8
BRANCH   3  11
ATOM     11  C   UNL     1       5.155   5.380  17.376  0.00  0.00    +0.000 C 
BRANCH  11  12
ATOM     12  C   UNL     1       4.054   6.437  17.252  0.00  0.00    +0.000 C 
BRANCH  12  13
ATOM     13  C   UNL     1       3.253   6.595  18.546  0.00  0.00    +0.000 C 
BRANCH  13  14
ATOM     14  C   UNL     1       2.550   5.309  18.913  0.00  0.00    +0.000 A 
ATOM     15  C   UNL     1       2.627   4.801  20.216  0.00  0.00    +0.000 A 
ATOM     16  C   UNL     1       2.003   3.596  20.547  0.00  0.00    +0.000 A 
ATOM     17  C   UNL     1       1.300   2.885  19.574  0.00  0.00    +0.000 A 
ATOM     18  C   UNL     1       1.221   3.380  18.273  0.00  0.00    +0.000 A 
ATOM     19  C   UNL     1       1.847   4.583  17.943  0.00  0.00    +0.000 A 
ENDBRANCH  13  14
ENDBRANCH  12  13
ENDBRANCH  11  12
ENDBRANCH   3  11
TORSDOF 6
ENDMDL
MODEL 5
REMARK VINA RESULT:      -6.6      2.759      3.534
REMARK  Name = 
REMARK  6 active torsions:
REMARK  status: ('A' for Active; 'I' for Inactive)
REMARK    1  A    between atoms: C_2  and  O_3
REMARK    2  A    between atoms: C_2  and  C_4
REMARK    3  A    between atoms: C_6  and  C_7
REMARK    4  A    between atoms: C_7  and  C_8
REMARK    5  A    between atoms: C_8  and  C_9
REMARK    6  A    between atoms: C_9  and  C_10
REMARK                            x       y       z     vdW  Elec       q    Type
REMARK                         _______ _______ _______ _____ _____    ______ ____
ROOT
ATOM      1  C   UNL     1       5.933   5.354  16.303  0.00  0.00    +0.000 A 
ATOM      2  C   UNL     1       5.119   5.763  17.385  0.00  0.00    +0.000 A 
ATOM      3  C   UNL     1       4.486   6.908  16.954  0.00  0.00    +0.000 A 
ATOM      4  N   UNL     1       4.894   7.091  15.660  0.00  0.00    +0.000 N 
ATOM      5  N   UNL     1       5.787   6.173  15.239  0.00  0.00    +0.000 NA
ATOM      6  H   UNL     1       4.624   7.831  15.020  0.00  0.00    +0.000 HD
ENDROOT
BRANCH   1   8
ATOM      7  O   UNL     1       7.974   4.215  16.768  0.00  0.00    +0.000 OA
ATOM      8  C   UNL     1       6.868   4.227  16.247  0.00  0.00    +0.000 C 
BRANCH   8   9
ATOM      9  O   UNL     1       6.370   3.182  15.531  0.00  0.00    +0.000 OA
ATOM     10  H   UNL     1       7.155   2.670  15.221  0.00  0.00    +0.000 HD
ENDBRANCH   8   9
ENDBRANCH   1   8
BRANCH   3  11
ATOM     11  C   UNL     1       3.576   7.857  17.656  0.00  0.00    +0.000 C 
BRANCH  11  12
ATOM     12  C   UNL     1       2.305   7.137  18.113  0.00  0.00    +0.000 C 
BRANCH  12  13
ATOM     13  C   UNL     1       2.433   6.578  19.532  0.00  0.00    +0.000 C 
BRANCH  13  14
ATOM     14  C   UNL     1       1.987   5.137  19.593  0.00  0.00    +0.000 A 
ATOM     15  C   UNL     1       1.761   4.410  18.417  0.00  0.00    +0.000 A 
ATOM     16  C   UNL     1       1.317   3.086  18.473  0.00  0.00    +0.000 A 
ATOM     17  C   UNL     1       1.091   2.480  19.708  0.00  0.00    +0.000 A 
ATOM     18  C   UNL     1       1.309   3.195  20.885  0.00  0.00    +0.000 A 
ATOM     19  C   UNL     1       1.750   4.518  20.827  0.00  0.00    +0.000 A 
ENDBRANCH  13  14
ENDBRANCH  12  13
ENDBRANCH  11  12
ENDBRANCH   3  11
TORSDOF 6
ENDMDL
MODEL 6
REMARK VINA RESULT:      -6.5      5.589      7.947
REMARK  Name = 
REMARK  6 active torsions:
REMARK  status: ('A' for Active; 'I' for Inactive)
REMARK    1  A    between atoms: C_2  and  O_3
REMARK    2  A    between atoms: C_2  and  C_4
REMARK    3  A    between atoms: C_6  and  C_7
REMARK    4  A    between atoms: C_7  and  C_8
REMARK    5  A    between atoms: C_8  and  C_9
REMARK    6  A    between atoms: C_9  and  C_10
REMARK                            x       y       z     vdW  Elec       q    Type
REMARK                         _______ _______ _______ _____ _____    ______ ____
ROOT
ATOM      1  C   UNL     1       6.036   4.959  18.502  0.00  0.00    +0.000 A 
ATOM      2  C   UNL     1       6.118   5.996  17.544  0.00  0.00    +0.000 A 
ATOM      3  C   UNL     1       7.245   6.714  17.879  0.00  0.00    +0.000 A 
ATOM      4  N   UNL     1       7.795   6.061  18.949  0.00  0.00    +0.000 N 
ATOM      5  N   UNL     1       7.075   4.999  19.364  0.00  0.00    +0.000 NA
ATOM      6  H   UNL     1       8.640   6.300  19.458  0.00  0.00    +0.000 HD
ENDROOT
BRANCH   1   8
ATOM      7  O   UNL     1       3.926   3.947  18.050  0.00  0.00    +0.000 OA
ATOM      8  C   UNL     1       4.991   3.941  18.649  0.00  0.00    +0.000 C 
BRANCH   8   9
ATOM      9  O   UNL     1       5.335   2.978  19.548  0.00  0.00    +0.000 OA
ATOM     10  H   UNL     1       6.200   2.618  19.238  0.00  0.00    +0.000 HD
ENDBRANCH   8   9
ENDBRANCH   1   8
BRANCH   3  11
ATOM     11  C   UNL     1       7.820   7.968  17.316  0.00  0.00    +0.000 C 
BRANCH  11  12
ATOM     12  C   UNL     1       8.480   8.796  18.421  0.00  0.00    +0.000 C 
BRANCH  12  13
ATOM     13  C   UNL     1       8.435  10.297  18.128  0.00  0.00    +0.000 C 
BRANCH  13  14
ATOM     14  C   UNL     1       9.648  10.999  18.690  0.00  0.00    +0.000 A 
ATOM     15  C   UNL     1      10.708  11.372  17.854  0.00  0.00    +0.000 A 
ATOM     16  C   UNL     1      11.844  11.993  18.379  0.00  0.00    +0.000 A 
ATOM     17  C   UNL     1      11.930  12.243  19.748  0.00  0.00    +0.000 A 
ATOM     18  C   UNL     1      10.883  11.873  20.590  0.00  0.00    +0.000 A 
ATOM     19  C   UNL     1       9.749  11.250  20.064  0.00  0.00    +0.000 A 
ENDBRANCH  13  14
ENDBRANCH  12  13
ENDBRANCH  11  12
ENDBRANCH   3  11
TORSDOF 6
ENDMDL
MODEL 7
REMARK VINA RESULT:      -6.5      2.118      2.490
REMARK  Name = 
REMARK  6 active torsions:
REMARK  status: ('A' for Active; 'I' for Inactive)
REMARK    1  A    between atoms: C_2  and  O_3
REMARK    2  A    between atoms: C_2  and  C_4
REMARK    3  A    between atoms: C_6  and  C_7
REMARK    4  A    between atoms: C_7  and  C_8
REMARK    5  A    between atoms: C_8  and  C_9
REMARK    6  A    between atoms: C_9  and  C_10
REMARK                            x       y       z     vdW  Elec       q    Type
REMARK                         _______ _______ _______ _____ _____    ______ ____
ROOT
ATOM      1  C   UNL     1       6.611   5.244  14.966  0.00  0.00    +0.000 A 
ATOM      2  C   UNL     1       5.411   5.179  15.713  0.00  0.00    +0.000 A 
ATOM      3  C   UNL     1       5.684   5.823  16.899  0.00  0.00    +0.000 A 
ATOM      4  N   UNL     1       6.970   6.277  16.786  0.00  0.00    +0.000 N 
ATOM      5  N   UNL     1       7.568   5.928  15.630  0.00  0.00    +0.000 NA
ATOM      6  H   UNL     1       7.507   6.805  17.468  0.00  0.00    +0.000 HD
ENDROOT
BRANCH   1   8
ATOM      7  O   UNL     1       6.368   3.647  13.215  0.00  0.00    +0.000 OA
ATOM      8  C   UNL     1       6.894   4.660  13.653  0.00  0.00    +0.000 C 
BRANCH   8   9
ATOM      9  O   UNL     1       7.830   5.371  12.965  0.00  0.00    +0.000 OA
ATOM     10  H   UNL     1       7.615   5.246  12.010  0.00  0.00    +0.000 HD
ENDBRANCH   8   9
ENDBRANCH   1   8
BRANCH   3  11
ATOM     11  C   UNL     1       4.867   6.010  18.131  0.00  0.00    +0.000 C 
BRANCH  11  12
ATOM     12  C   UNL     1       3.571   6.758  17.804  0.00  0.00    +0.000 C 
BRANCH  12  13
ATOM     13  C   UNL     1       2.590   6.761  18.978  0.00  0.00    +0.000 C 
BRANCH  13  14
ATOM     14  C   UNL     1       2.027   5.381  19.222  0.00  0.00    +0.000 A 
ATOM     15  C   UNL     1       1.821   4.916  20.527  0.00  0.00    +0.000 A 
ATOM     16  C   UNL     1       1.330   3.628  20.753  0.00  0.00    +0.000 A 
ATOM     17  C   UNL     1       1.046   2.792  19.675  0.00  0.00    +0.000 A 
ATOM     18  C   UNL     1       1.251   3.243  18.372  0.00  0.00    +0.000 A 
ATOM     19  C   UNL     1       1.744   4.530  18.147  0.00  0.00    +0.000 A 
ENDBRANCH  13  14
ENDBRANCH  12  13
ENDBRANCH  11  12
ENDBRANCH   3  11
TORSDOF 6
ENDMDL
MODEL 8
REMARK VINA RESULT:      -6.5      3.624      4.816
REMARK  Name = 
REMARK  6 active torsions:
REMARK  status: ('A' for Active; 'I' for Inactive)
REMARK    1  A    between atoms: C_2  and  O_3
REMARK    2  A    between atoms: C_2  and  C_4
REMARK    3  A    between atoms: C_6  and  C_7
REMARK    4  A    between atoms: C_7  and  C_8
REMARK    5  A    between atoms: C_8  and  C_9
REMARK    6  A    between atoms: C_9  and  C_10
REMARK                            x       y       z     vdW  Elec       q    Type
REMARK                         _______ _______ _______ _____ _____    ______ ____
ROOT
ATOM      1  C   UNL     1       6.804   5.850  17.988  0.00  0.00    +0.000 A 
ATOM      2  C   UNL     1       5.907   5.433  16.976  0.00  0.00    +0.000 A 
ATOM      3  C   UNL     1       5.384   4.240  17.421  0.00  0.00    +0.000 A 
ATOM      4  N   UNL     1       5.929   4.035  18.659  0.00  0.00    +0.000 N 
ATOM      5  N   UNL     1       6.810   4.987  19.027  0.00  0.00    +0.000 NA
ATOM      6  H   UNL     1       5.766   3.258  19.292  0.00  0.00    +0.000 HD
ENDROOT
BRANCH   1   8
ATOM      7  O   UNL     1       7.701   7.881  17.123  0.00  0.00    +0.000 OA
ATOM      8  C   UNL     1       7.678   7.026  17.997  0.00  0.00    +0.000 C 
BRANCH   8   9
ATOM      9  O   UNL     1       8.482   7.060  19.095  0.00  0.00    +0.000 OA
ATOM     10  H   UNL     1       8.887   7.960  19.104  0.00  0.00    +0.000 HD
ENDBRANCH   8   9
ENDBRANCH   1   8
BRANCH   3  11
ATOM     11  C   UNL     1       4.460   3.265  16.774  0.00  0.00    +0.000 C 
BRANCH  11  12
ATOM     12  C   UNL     1       3.360   2.844  17.752  0.00  0.00    +0.000 C 
BRANCH  12  13
ATOM     13  C   UNL     1       2.078   3.660  17.571  0.00  0.00    +0.000 C 
BRANCH  13  14
ATOM     14  C   UNL     1       2.046   4.841  18.512  0.00  0.00    +0.000 A 
ATOM     15  C   UNL     1       2.405   6.119  18.066  0.00  0.00    +0.000 A 
ATOM     16  C   UNL     1       2.406   7.205  18.944  0.00  0.00    +0.000 A 
ATOM     17  C   UNL     1       2.051   7.020  20.280  0.00  0.00    +0.000 A 
ATOM     18  C   UNL     1       1.695   5.751  20.736  0.00  0.00    +0.000 A 
ATOM     19  C   UNL     1       1.697   4.666  19.857  0.00  0.00    +0.000 A 
ENDBRANCH  13  14
ENDBRANCH  12  13
ENDBRANCH  11  12
ENDBRANCH   3  11
TORSDOF 6
ENDMDL
MODEL 9
REMARK VINA RESULT:      -6.5      2.979      4.306
REMARK  Name = 
REMARK  6 active torsions:
REMARK  status: ('A' for Active; 'I' for Inactive)
REMARK    1  A    between atoms: C_2  and  O_3
REMARK    2  A    between atoms: C_2  and  C_4
REMARK    3  A    between atoms: C_6  and  C_7
REMARK    4  A    between atoms: C_7  and  C_8
REMARK    5  A    between atoms: C_8  and  C_9
REMARK    6  A    between atoms: C_9  and  C_10
REMARK                            x       y       z     vdW  Elec       q    Type
REMARK                         _______ _______ _______ _____ _____    ______ ____
ROOT
ATOM      1  C   UNL     1       5.942   4.395  17.450  0.00  0.00    +0.000 A 
ATOM      2  C   UNL     1       4.850   3.561  17.115  0.00  0.00    +0.000 A 
ATOM      3  C   UNL     1       4.489   2.942  18.291  0.00  0.00    +0.000 A 
ATOM      4  N   UNL     1       5.316   3.460  19.251  0.00  0.00    +0.000 N 
ATOM      5  N   UNL     1       6.223   4.334  18.770  0.00  0.00    +0.000 NA
ATOM      6  H   UNL     1       5.334   3.242  20.243  0.00  0.00    +0.000 HD
ENDROOT
BRANCH   1   8
ATOM      7  O   UNL     1       6.471   6.380  16.242  0.00  0.00    +0.000 OA
ATOM      8  C   UNL     1       6.750   5.233  16.560  0.00  0.00    +0.000 C 
BRANCH   8   9
ATOM      9  O   UNL     1       7.856   4.582  16.106  0.00  0.00    +0.000 OA
ATOM     10  H   UNL     1       7.552   4.032  15.346  0.00  0.00    +0.000 HD
ENDBRANCH   8   9
ENDBRANCH   1   8
BRANCH   3  11
ATOM     11  C   UNL     1       3.477   1.888  18.582  0.00  0.00    +0.000 C 
BRANCH  11  12
ATOM     12  C   UNL     1       2.151   2.217  17.890  0.00  0.00    +0.000 C 
BRANCH  12  13
ATOM     13  C   UNL     1       1.163   2.912  18.829  0.00  0.00    +0.000 C 
BRANCH  13  14
ATOM     14  C   UNL     1       1.585   4.335  19.107  0.00  0.00    +0.000 A 
ATOM     15  C   UNL     1       1.554   4.847  20.411  0.00  0.00    +0.000 A 
ATOM     16  C   UNL     1       1.914   6.173  20.663  0.00  0.00    +0.000 A 
ATOM     17  C   UNL     1       2.302   7.001  19.611  0.00  0.00    +0.000 A 
ATOM     18  C   UNL     1       2.332   6.504  18.309  0.00  0.00    +0.000 A 
ATOM     19  C   UNL     1       1.971   5.179  18.058  0.00  0.00    +0.000 A 
ENDBRANCH  13  14
ENDBRANCH  12  13
ENDBRANCH  11  12
ENDBRANCH   3  11
TORSDOF 6
ENDMDL
