MODEL 1
REMARK VINA RESULT:      -8.5      0.000      0.000
REMARK  Name = 
REMARK  6 active torsions:
REMARK  status: ('A' for Active; 'I' for Inactive)
REMARK    1  A    between atoms: C_1  and  N_2
REMARK    2  A    between atoms: C_3  and  C_5
REMARK    3  A    between atoms: C_9  and  C_10
REMARK    4  A    between atoms: C_20  and  C_22
REMARK    5  A    between atoms: C_22  and  O_23
REMARK    6  A    between atoms: O_23  and  C_24
REMARK                            x       y       z     vdW  Elec       q    Type
REMARK                         _______ _______ _______ _____ _____    ______ ____
ROOT
ATOM      1  C   UNL     1       0.362  11.656  19.899  0.00  0.00    +0.000 C 
ATOM      2  C   UNL     1       0.708  10.931  18.586  0.00  0.00    +0.000 C 
ATOM      3  C   UNL     1       1.238   9.629  19.103  0.00  0.00    +0.000 A 
ATOM      4  C   UNL     1       1.881   8.640  18.362  0.00  0.00    +0.000 A 
ATOM      5  C   UNL     1       2.248   7.428  18.979  0.00  0.00    +0.000 A 
ATOM      6  C   UNL     1       1.912   7.270  20.345  0.00  0.00    +0.000 A 
ATOM      7  C   UNL     1       1.233   8.265  21.078  0.00  0.00    +0.000 A 
ATOM      8  C   UNL     1       0.914   9.451  20.446  0.00  0.00    +0.000 A 
ATOM      9  N   UNL     1       0.261  10.603  20.946  0.00  0.00    +0.000 N 
ATOM     10  C   UNL     1      -0.429  10.692  22.149  0.00  0.00    +0.000 C 
ATOM     11  O   UNL     1      -0.499   9.769  22.964  0.00  0.00    +0.000 OA
ENDROOT
BRANCH   5  12
ATOM     12  C   UNL     1       2.934   6.360  18.209  0.00  0.00    +0.000 A 
ATOM     13  C   UNL     1       2.379   5.081  18.070  0.00  0.00    +0.000 A 
ATOM     14  C   UNL     1       3.067   4.099  17.367  0.00  0.00    +0.000 A 
ATOM     15  N   UNL     1       4.263   4.302  16.777  0.00  0.00    +0.000 NA
ATOM     16  C   UNL     1       4.791   5.537  16.904  0.00  0.00    +0.000 A 
ATOM     17  C   UNL     1       4.176   6.576  17.596  0.00  0.00    +0.000 A 
ENDBRANCH   5  12
BRANCH   1  20
ATOM     18  C   UNL     1       2.870  14.485  19.220  0.00  0.00    +0.000 C 
ATOM     19  N   UNL     1       1.744  13.587  19.155  0.00  0.00    +0.000 N 
ATOM     20  C   UNL     1       1.437  12.735  20.198  0.00  0.00    +0.000 C 
ATOM     21  O   UNL     1       2.096  12.723  21.240  0.00  0.00    +0.000 OA
ATOM     22  H   UNL     1       1.015  13.787  18.481  0.00  0.00    +0.000 HD
ENDBRANCH   1  20
BRANCH  10  23
ATOM     23  C   UNL     1      -1.072  12.052  22.493  0.00  0.00    +0.000 C 
BRANCH  23  24
ATOM     24  O   UNL     1      -2.264  12.340  21.783  0.00  0.00    +0.000 OA
BRANCH  24  25
ATOM     25  C   UNL     1      -3.389  12.489  22.558  0.00  0.00    +0.000 A 
ATOM     26  C   UNL     1      -3.459  12.352  23.952  0.00  0.00    +0.000 A 
ATOM     27  C   UNL     1      -4.669  12.549  24.623  0.00  0.00    +0.000 A 
ATOM     28  C   UNL     1      -5.808  12.876  23.901  0.00  0.00    +0.000 A 
ATOM     29  F   UNL     1      -6.967  13.062  24.545  0.00  0.00    +0.000 F 
ATOM     30  C   UNL     1      -5.760  13.010  22.519  0.00  0.00    +0.000 A 
ATOM     31  C   UNL     1      -4.549  12.817  21.850  0.00  0.00    +0.000 A 
ENDBRANCH  24  25
ENDBRANCH  23  24
ENDBRANCH  10  23
TORSDOF 5
ENDMDL
MODEL 2
REMARK VINA RESULT:      -8.5      0.322      1.265
REMARK  Name = 
REMARK  6 active torsions:
REMARK  status: ('A' for Active; 'I' for Inactive)
REMARK    1  A    between atoms: C_1  and  N_2
REMARK    2  A    between atoms: C_3  and  C_5
REMARK    3  A    between atoms: C_9  and  C_10
REMARK    4  A    between atoms: C_20  and  C_22
REMARK    5  A    between atoms: C_22  and  O_23
REMARK    6  A    between atoms: O_23  and  C_24
REMARK                            x       y       z     vdW  Elec       q    Type
REMARK                         _______ _______ _______ _____ _____    ______ ____
ROOT
ATOM      1  C   UNL     1       0.454  11.434  19.726  0.00  0.00    +0.000 C 
ATOM      2  C   UNL     1       0.818  10.695  18.426  0.00  0.00    +0.000 C 
ATOM      3  C   UNL     1       1.355   9.405  18.964  0.00  0.00    +0.000 A 
ATOM      4  C   UNL     1       2.012   8.412  18.242  0.00  0.00    +0.000 A 
ATOM      5  C   UNL     1       2.386   7.212  18.878  0.00  0.00    +0.000 A 
ATOM      6  C   UNL     1       2.041   7.069  20.243  0.00  0.00    +0.000 A 
ATOM      7  C   UNL     1       1.347   8.067  20.958  0.00  0.00    +0.000 A 
ATOM      8  C   UNL     1       1.023   9.242  20.308  0.00  0.00    +0.000 A 
ATOM      9  N   UNL     1       0.355  10.394  20.787  0.00  0.00    +0.000 N 
ATOM     10  C   UNL     1      -0.345  10.493  21.983  0.00  0.00    +0.000 C 
ATOM     11  O   UNL     1      -0.414   9.581  22.810  0.00  0.00    +0.000 OA
ENDROOT
BRANCH   5  12
ATOM     12  C   UNL     1       3.087   6.140  18.128  0.00  0.00    +0.000 A 
ATOM     13  C   UNL     1       4.265   6.392  17.412  0.00  0.00    +0.000 A 
ATOM     14  C   UNL     1       4.875   5.368  16.696  0.00  0.00    +0.000 A 
ATOM     15  N   UNL     1       4.406   4.104  16.654  0.00  0.00    +0.000 NA
ATOM     16  C   UNL     1       3.277   3.862  17.351  0.00  0.00    +0.000 A 
ATOM     17  C   UNL     1       2.597   4.828  18.087  0.00  0.00    +0.000 A 
ENDBRANCH   5  12
BRANCH   1  20
ATOM     18  C   UNL     1       3.136  14.091  19.016  0.00  0.00    +0.000 C 
ATOM     19  N   UNL     1       1.997  13.212  18.920  0.00  0.00    +0.000 N 
ATOM     20  C   UNL     1       1.518  12.527  20.019  0.00  0.00    +0.000 C 
ATOM     21  O   UNL     1       2.025  12.655  21.136  0.00  0.00    +0.000 OA
ATOM     22  H   UNL     1       1.376  13.324  18.127  0.00  0.00    +0.000 HD
ENDBRANCH   1  20
BRANCH  10  23
ATOM     23  C   UNL     1      -1.004  11.851  22.304  0.00  0.00    +0.000 C 
BRANCH  23  24
ATOM     24  O   UNL     1      -2.125  12.171  21.500  0.00  0.00    +0.000 OA
BRANCH  24  25
ATOM     25  C   UNL     1      -3.284  12.442  22.187  0.00  0.00    +0.000 A 
ATOM     26  C   UNL     1      -4.507  12.841  21.626  0.00  0.00    +0.000 A 
ATOM     27  C   UNL     1      -5.619  13.069  22.441  0.00  0.00    +0.000 A 
ATOM     28  C   UNL     1      -5.508  12.904  23.814  0.00  0.00    +0.000 A 
ATOM     29  F   UNL     1      -6.574  13.126  24.594  0.00  0.00    +0.000 F 
ATOM     30  C   UNL     1      -4.304  12.517  24.390  0.00  0.00    +0.000 A 
ATOM     31  C   UNL     1      -3.194  12.285  23.573  0.00  0.00    +0.000 A 
ENDBRANCH  24  25
ENDBRANCH  23  24
ENDBRANCH  10  23
TORSDOF 5
ENDMDL
MODEL 3
REMARK VINA RESULT:      -8.2      1.422      1.938
REMARK  Name = 
REMARK  6 active torsions:
REMARK  status: ('A' for Active; 'I' for Inactive)
REMARK    1  A    between atoms: C_1  and  N_2
REMARK    2  A    between atoms: C_3  and  C_5
REMARK    3  A    between atoms: C_9  and  C_10
REMARK    4  A    between atoms: C_20  and  C_22
REMARK    5  A    between atoms: C_22  and  O_23
REMARK    6  A    between atoms: O_23  and  C_24
REMARK                            x       y       z     vdW  Elec       q    Type
REMARK                         _______ _______ _______ _____ _____    ______ ____
ROOT
ATOM      1  C   UNL     1       0.425  10.782  19.132  0.00  0.00    +0.000 C 
ATOM      2  C   UNL     1       0.869  10.061  17.847  0.00  0.00    +0.000 C 
ATOM      3  C   UNL     1       1.599   8.882  18.412  0.00  0.00    +0.000 A 
ATOM      4  C   UNL     1       2.382   7.972  17.705  0.00  0.00    +0.000 A 
ATOM      5  C   UNL     1       2.939   6.861  18.369  0.00  0.00    +0.000 A 
ATOM      6  C   UNL     1       2.643   6.716  19.745  0.00  0.00    +0.000 A 
ATOM      7  C   UNL     1       1.824   7.625  20.445  0.00  0.00    +0.000 A 
ATOM      8  C   UNL     1       1.319   8.718  19.767  0.00  0.00    +0.000 A 
ATOM      9  N   UNL     1       0.498   9.775  20.226  0.00  0.00    +0.000 N 
ATOM     10  C   UNL     1      -0.187   9.812  21.434  0.00  0.00    +0.000 C 
ATOM     11  O   UNL     1      -0.106   8.927  22.290  0.00  0.00    +0.000 OA
ENDROOT
BRANCH   5  12
ATOM     12  C   UNL     1       3.775   5.879  17.636  0.00  0.00    +0.000 A 
ATOM     13  C   UNL     1       4.759   6.285  16.724  0.00  0.00    +0.000 A 
ATOM     14  C   UNL     1       5.501   5.332  16.035  0.00  0.00    +0.000 A 
ATOM     15  N   UNL     1       5.346   4.003  16.197  0.00  0.00    +0.000 NA
ATOM     16  C   UNL     1       4.404   3.614  17.082  0.00  0.00    +0.000 A 
ATOM     17  C   UNL     1       3.612   4.498  17.810  0.00  0.00    +0.000 A 
ENDBRANCH   5  12
BRANCH   1  20
ATOM     18  C   UNL     1       2.752  13.721  18.289  0.00  0.00    +0.000 C 
ATOM     19  N   UNL     1       1.745  12.691  18.232  0.00  0.00    +0.000 N 
ATOM     20  C   UNL     1       1.322  12.028  19.367  0.00  0.00    +0.000 C 
ATOM     21  O   UNL     1       1.768  12.305  20.483  0.00  0.00    +0.000 OA
ATOM     22  H   UNL     1       1.143  12.660  17.417  0.00  0.00    +0.000 HD
ENDBRANCH   1  20
BRANCH  10  23
ATOM     23  C   UNL     1      -1.031  11.069  21.729  0.00  0.00    +0.000 C 
BRANCH  23  24
ATOM     24  O   UNL     1      -0.548  11.871  22.791  0.00  0.00    +0.000 OA
BRANCH  24  25
ATOM     25  C   UNL     1      -1.431  12.810  23.269  0.00  0.00    +0.000 A 
ATOM     26  C   UNL     1      -1.135  14.149  23.568  0.00  0.00    +0.000 A 
ATOM     27  C   UNL     1      -2.135  15.008  24.032  0.00  0.00    +0.000 A 
ATOM     28  C   UNL     1      -3.426  14.528  24.202  0.00  0.00    +0.000 A 
ATOM     29  F   UNL     1      -4.383  15.352  24.649  0.00  0.00    +0.000 F 
ATOM     30  C   UNL     1      -3.737  13.204  23.918  0.00  0.00    +0.000 A 
ATOM     31  C   UNL     1      -2.737  12.348  23.449  0.00  0.00    +0.000 A 
ENDBRANCH  24  25
ENDBRANCH  23  24
ENDBRANCH  10  23
TORSDOF 5
ENDMDL
MODEL 4
REMARK VINA RESULT:      -8.1      1.454      1.949
REMARK  Name = 
REMARK  6 active torsions:
REMARK  status: ('A' for Active; 'I' for Inactive)
REMARK    1  A    between atoms: C_1  and  N_2
REMARK    2  A    between atoms: C_3  and  C_5
REMARK    3  A    between atoms: C_9  and  C_10
REMARK    4  A    between atoms: C_20  and  C_22
REMARK    5  A    between atoms: C_22  and  O_23
REMARK    6  A    between atoms: O_23  and  C_24
REMARK                            x       y       z     vdW  Elec       q    Type
REMARK                         _______ _______ _______ _____ _____    ______ ____
ROOT
ATOM      1  C   UNL     1       0.461  11.190  19.345  0.00  0.00    +0.000 C 
ATOM      2  C   UNL     1       0.945  10.483  18.066  0.00  0.00    +0.000 C 
ATOM      3  C   UNL     1       1.524   9.223  18.630  0.00  0.00    +0.000 A 
ATOM      4  C   UNL     1       2.281   8.275  17.945  0.00  0.00    +0.000 A 
ATOM      5  C   UNL     1       2.686   7.095  18.598  0.00  0.00    +0.000 A 
ATOM      6  C   UNL     1       2.268   6.922  19.939  0.00  0.00    +0.000 A 
ATOM      7  C   UNL     1       1.475   7.873  20.615  0.00  0.00    +0.000 A 
ATOM      8  C   UNL     1       1.122   9.031  19.951  0.00  0.00    +0.000 A 
ATOM      9  N   UNL     1       0.360  10.138  20.393  0.00  0.00    +0.000 N 
ATOM     10  C   UNL     1      -0.415  10.188  21.545  0.00  0.00    +0.000 C 
ATOM     11  O   UNL     1      -0.479   9.267  22.363  0.00  0.00    +0.000 OA
ENDROOT
BRANCH   5  12
ATOM     12  C   UNL     1       3.492   6.071  17.887  0.00  0.00    +0.000 A 
ATOM     13  C   UNL     1       4.668   6.406  17.203  0.00  0.00    +0.000 A 
ATOM     14  C   UNL     1       5.379   5.423  16.524  0.00  0.00    +0.000 A 
ATOM     15  N   UNL     1       5.012   4.125  16.488  0.00  0.00    +0.000 NA
ATOM     16  C   UNL     1       3.884   3.804  17.154  0.00  0.00    +0.000 A 
ATOM     17  C   UNL     1       3.108   4.724  17.854  0.00  0.00    +0.000 A 
ENDBRANCH   5  12
BRANCH   1  20
ATOM     18  C   UNL     1       3.025  14.001  18.808  0.00  0.00    +0.000 C 
ATOM     19  N   UNL     1       1.947  13.058  18.640  0.00  0.00    +0.000 N 
ATOM     20  C   UNL     1       1.439  12.341  19.705  0.00  0.00    +0.000 C 
ATOM     21  O   UNL     1       1.867  12.494  20.852  0.00  0.00    +0.000 OA
ATOM     22  H   UNL     1       1.371  13.138  17.809  0.00  0.00    +0.000 HD
ENDBRANCH   1  20
BRANCH  10  23
ATOM     23  C   UNL     1      -1.170  11.503  21.831  0.00  0.00    +0.000 C 
BRANCH  23  24
ATOM     24  O   UNL     1      -0.743  12.190  22.994  0.00  0.00    +0.000 OA
BRANCH  24  25
ATOM     25  C   UNL     1      -1.657  13.067  23.528  0.00  0.00    +0.000 A 
ATOM     26  C   UNL     1      -3.017  12.809  23.756  0.00  0.00    +0.000 A 
ATOM     27  C   UNL     1      -3.837  13.788  24.324  0.00  0.00    +0.000 A 
ATOM     28  C   UNL     1      -3.300  15.023  24.660  0.00  0.00    +0.000 A 
ATOM     29  F   UNL     1      -4.088  15.960  25.202  0.00  0.00    +0.000 F 
ATOM     30  C   UNL     1      -1.957  15.299  24.436  0.00  0.00    +0.000 A 
ATOM     31  C   UNL     1      -1.137  14.318  23.871  0.00  0.00    +0.000 A 
ENDBRANCH  24  25
ENDBRANCH  23  24
ENDBRANCH  10  23
TORSDOF 5
ENDMDL
MODEL 5
REMARK VINA RESULT:      -8.0      3.797      8.990
REMARK  Name = 
REMARK  6 active torsions:
REMARK  status: ('A' for Active; 'I' for Inactive)
REMARK    1  A    between atoms: C_1  and  N_2
REMARK    2  A    between atoms: C_3  and  C_5
REMARK    3  A    between atoms: C_9  and  C_10
REMARK    4  A    between atoms: C_20  and  C_22
REMARK    5  A    between atoms: C_22  and  O_23
REMARK    6  A    between atoms: O_23  and  C_24
REMARK                            x       y       z     vdW  Elec       q    Type
REMARK                         _______ _______ _______ _____ _____    ______ ____
ROOT
ATOM      1  C   UNL     1       0.919  10.611  19.063  0.00  0.00    +0.000 C 
ATOM      2  C   UNL     1       0.640  12.074  19.452  0.00  0.00    +0.000 C 
ATOM      3  C   UNL     1      -0.105  11.896  20.738  0.00  0.00    +0.000 A 
ATOM      4  C   UNL     1      -0.776  12.886  21.454  0.00  0.00    +0.000 A 
ATOM      5  C   UNL     1      -1.363  12.577  22.697  0.00  0.00    +0.000 A 
ATOM      6  C   UNL     1      -1.212  11.252  23.171  0.00  0.00    +0.000 A 
ATOM      7  C   UNL     1      -0.504  10.265  22.454  0.00  0.00    +0.000 A 
ATOM      8  C   UNL     1       0.033  10.598  21.226  0.00  0.00    +0.000 A 
ATOM      9  N   UNL     1       0.763   9.808  20.306  0.00  0.00    +0.000 N 
ATOM     10  C   UNL     1       1.312   8.558  20.561  0.00  0.00    +0.000 C 
ATOM     11  O   UNL     1       1.170   7.956  21.628  0.00  0.00    +0.000 OA
ENDROOT
BRANCH   5  12
ATOM     12  C   UNL     1      -2.082  13.615  23.477  0.00  0.00    +0.000 A 
ATOM     13  C   UNL     1      -1.395  14.596  24.204  0.00  0.00    +0.000 A 
ATOM     14  C   UNL     1      -2.106  15.532  24.947  0.00  0.00    +0.000 A 
ATOM     15  N   UNL     1      -3.452  15.573  25.007  0.00  0.00    +0.000 NA
ATOM     16  C   UNL     1      -4.111  14.633  24.299  0.00  0.00    +0.000 A 
ATOM     17  C   UNL     1      -3.482  13.654  23.534  0.00  0.00    +0.000 A 
ENDBRANCH   5  12
BRANCH   1  20
ATOM     18  C   UNL     1      -2.214  10.612  16.838  0.00  0.00    +0.000 C 
ATOM     19  N   UNL     1      -1.134  11.002  17.710  0.00  0.00    +0.000 N 
ATOM     20  C   UNL     1      -0.041  10.184  17.918  0.00  0.00    +0.000 C 
ATOM     21  O   UNL     1       0.073   9.097  17.348  0.00  0.00    +0.000 OA
ATOM     22  H   UNL     1      -1.035  11.986  17.934  0.00  0.00    +0.000 HD
ENDBRANCH   1  20
BRANCH  10  23
ATOM     23  C   UNL     1       2.076   7.875  19.407  0.00  0.00    +0.000 C 
BRANCH  23  24
ATOM     24  O   UNL     1       2.823   6.732  19.786  0.00  0.00    +0.000 OA
BRANCH  24  25
ATOM     25  C   UNL     1       2.200   5.526  19.573  0.00  0.00    +0.000 A 
ATOM     26  C   UNL     1       1.594   4.723  20.552  0.00  0.00    +0.000 A 
ATOM     27  C   UNL     1       0.977   3.520  20.198  0.00  0.00    +0.000 A 
ATOM     28  C   UNL     1       0.969   3.119  18.869  0.00  0.00    +0.000 A 
ATOM     29  F   UNL     1       0.378   1.965  18.532  0.00  0.00    +0.000 F 
ATOM     30  C   UNL     1       1.569   3.897  17.887  0.00  0.00    +0.000 A 
ATOM     31  C   UNL     1       2.182   5.101  18.242  0.00  0.00    +0.000 A 
ENDBRANCH  24  25
ENDBRANCH  23  24
ENDBRANCH  10  23
TORSDOF 5
ENDMDL
MODEL 6
REMARK VINA RESULT:      -8.0      1.139      1.203
REMARK  Name = 
REMARK  6 active torsions:
REMARK  status: ('A' for Active; 'I' for Inactive)
REMARK    1  A    between atoms: C_1  and  N_2
REMARK    2  A    between atoms: C_3  and  C_5
REMARK    3  A    between atoms: C_9  and  C_10
REMARK    4  A    between atoms: C_20  and  C_22
REMARK    5  A    between atoms: C_22  and  O_23
REMARK    6  A    between atoms: O_23  and  C_24
REMARK                            x       y       z     vdW  Elec       q    Type
REMARK                         _______ _______ _______ _____ _____    ______ ____
ROOT
ATOM      1  C   UNL     1       0.333  11.454  19.939  0.00  0.00    +0.000 C 
ATOM      2  C   UNL     1       0.650  10.750  18.607  0.00  0.00    +0.000 C 
ATOM      3  C   UNL     1       1.252   9.468  19.092  0.00  0.00    +0.000 A 
ATOM      4  C   UNL     1       1.900   8.508  18.317  0.00  0.00    +0.000 A 
ATOM      5  C   UNL     1       2.343   7.309  18.909  0.00  0.00    +0.000 A 
ATOM      6  C   UNL     1       2.074   7.132  20.288  0.00  0.00    +0.000 A 
ATOM      7  C   UNL     1       1.390   8.096  21.057  0.00  0.00    +0.000 A 
ATOM      8  C   UNL     1       0.996   9.271  20.447  0.00  0.00    +0.000 A 
ATOM      9  N   UNL     1       0.321  10.393  20.982  0.00  0.00    +0.000 N 
ATOM     10  C   UNL     1      -0.318  10.450  22.215  0.00  0.00    +0.000 C 
ATOM     11  O   UNL     1      -0.316   9.521  23.027  0.00  0.00    +0.000 OA
ENDROOT
BRANCH   5  12
ATOM     12  C   UNL     1       3.035   6.273  18.103  0.00  0.00    +0.000 A 
ATOM     13  C   UNL     1       2.536   4.968  17.997  0.00  0.00    +0.000 A 
ATOM     14  C   UNL     1       3.231   4.018  17.257  0.00  0.00    +0.000 A 
ATOM     15  N   UNL     1       4.380   4.276  16.600  0.00  0.00    +0.000 NA
ATOM     16  C   UNL     1       4.854   5.536  16.696  0.00  0.00    +0.000 A 
ATOM     17  C   UNL     1       4.228   6.547  17.421  0.00  0.00    +0.000 A 
ENDBRANCH   5  12
BRANCH   1  20
ATOM     18  C   UNL     1       2.809  14.283  19.146  0.00  0.00    +0.000 C 
ATOM     19  N   UNL     1       1.703  13.359  19.108  0.00  0.00    +0.000 N 
ATOM     20  C   UNL     1       1.378  12.574  20.197  0.00  0.00    +0.000 C 
ATOM     21  O   UNL     1       2.001  12.647  21.258  0.00  0.00    +0.000 OA
ATOM     22  H   UNL     1       0.993  13.497  18.398  0.00  0.00    +0.000 HD
ENDBRANCH   1  20
BRANCH  10  23
ATOM     23  C   UNL     1      -0.999  11.781  22.596  0.00  0.00    +0.000 C 
BRANCH  23  24
ATOM     24  O   UNL     1      -2.335  11.655  23.049  0.00  0.00    +0.000 OA
BRANCH  24  25
ATOM     25  C   UNL     1      -2.939  12.828  23.434  0.00  0.00    +0.000 A 
ATOM     26  C   UNL     1      -2.286  14.008  23.822  0.00  0.00    +0.000 A 
ATOM     27  C   UNL     1      -3.023  15.142  24.174  0.00  0.00    +0.000 A 
ATOM     28  C   UNL     1      -4.410  15.095  24.143  0.00  0.00    +0.000 A 
ATOM     29  F   UNL     1      -5.114  16.182  24.483  0.00  0.00    +0.000 F 
ATOM     30  C   UNL     1      -5.075  13.934  23.768  0.00  0.00    +0.000 A 
ATOM     31  C   UNL     1      -4.336  12.802  23.412  0.00  0.00    +0.000 A 
ENDBRANCH  24  25
ENDBRANCH  23  24
ENDBRANCH  10  23
TORSDOF 5
ENDMDL
MODEL 7
REMARK VINA RESULT:      -8.0      1.015      1.363
REMARK  Name = 
REMARK  6 active torsions:
REMARK  status: ('A' for Active; 'I' for Inactive)
REMARK    1  A    between atoms: C_1  and  N_2
REMARK    2  A    between atoms: C_3  and  C_5
REMARK    3  A    between atoms: C_9  and  C_10
REMARK    4  A    between atoms: C_20  and  C_22
REMARK    5  A    between atoms: C_22  and  O_23
REMARK    6  A    between atoms: O_23  and  C_24
REMARK                            x       y       z     vdW  Elec       q    Type
REMARK                         _______ _______ _______ _____ _____    ______ ____
ROOT
ATOM      1  C   UNL     1      -0.029  12.030  20.143  0.00  0.00    +0.000 C 
ATOM      2  C   UNL     1       0.344  11.159  18.931  0.00  0.00    +0.000 C 
ATOM      3  C   UNL     1       0.914   9.950  19.605  0.00  0.00    +0.000 A 
ATOM      4  C   UNL     1       1.590   8.897  18.993  0.00  0.00    +0.000 A 
ATOM      5  C   UNL     1       1.995   7.784  19.757  0.00  0.00    +0.000 A 
ATOM      6  C   UNL     1       1.661   7.788  21.132  0.00  0.00    +0.000 A 
ATOM      7  C   UNL     1       0.948   8.844  21.736  0.00  0.00    +0.000 A 
ATOM      8  C   UNL     1       0.593   9.931  20.961  0.00  0.00    +0.000 A 
ATOM      9  N   UNL     1      -0.099  11.114  21.314  0.00  0.00    +0.000 N 
ATOM     10  C   UNL     1      -0.795  11.331  22.497  0.00  0.00    +0.000 C 
ATOM     11  O   UNL     1      -0.837  10.515  23.421  0.00  0.00    +0.000 OA
ENDROOT
BRANCH   5  12
ATOM     12  C   UNL     1       2.717   6.651  19.125  0.00  0.00    +0.000 A 
ATOM     13  C   UNL     1       2.813   5.400  19.749  0.00  0.00    +0.000 A 
ATOM     14  C   UNL     1       3.524   4.374  19.139  0.00  0.00    +0.000 A 
ATOM     15  N   UNL     1       4.135   4.496  17.943  0.00  0.00    +0.000 NA
ATOM     16  C   UNL     1       4.034   5.699  17.340  0.00  0.00    +0.000 A 
ATOM     17  C   UNL     1       3.349   6.783  17.881  0.00  0.00    +0.000 A 
ENDBRANCH   5  12
BRANCH   1  20
ATOM     18  C   UNL     1       2.147  15.044  19.172  0.00  0.00    +0.000 C 
ATOM     19  N   UNL     1       1.085  14.072  19.258  0.00  0.00    +0.000 N 
ATOM     20  C   UNL     1       1.010  13.173  20.303  0.00  0.00    +0.000 C 
ATOM     21  O   UNL     1       1.832  13.178  21.223  0.00  0.00    +0.000 OA
ATOM     22  H   UNL     1       0.243  14.240  18.720  0.00  0.00    +0.000 HD
ENDBRANCH   1  20
BRANCH  10  23
ATOM     23  C   UNL     1      -1.482  12.701  22.669  0.00  0.00    +0.000 C 
BRANCH  23  24
ATOM     24  O   UNL     1      -2.471  12.745  23.683  0.00  0.00    +0.000 OA
BRANCH  24  25
ATOM     25  C   UNL     1      -3.771  12.770  23.235  0.00  0.00    +0.000 A 
ATOM     26  C   UNL     1      -4.186  12.762  21.895  0.00  0.00    +0.000 A 
ATOM     27  C   UNL     1      -5.547  12.773  21.576  0.00  0.00    +0.000 A 
ATOM     28  C   UNL     1      -6.490  12.796  22.594  0.00  0.00    +0.000 A 
ATOM     29  F   UNL     1      -7.793  12.809  22.286  0.00  0.00    +0.000 F 
ATOM     30  C   UNL     1      -6.098  12.812  23.927  0.00  0.00    +0.000 A 
ATOM     31  C   UNL     1      -4.737  12.797  24.245  0.00  0.00    +0.000 A 
ENDBRANCH  24  25
ENDBRANCH  23  24
ENDBRANCH  10  23
TORSDOF 5
ENDMDL
MODEL 8
REMARK VINA RESULT:      -8.0      1.676      1.844
REMARK  Name = 
REMARK  6 active torsions:
REMARK  status: ('A' for Active; 'I' for Inactive)
REMARK    1  A    between atoms: C_1  and  N_2
REMARK    2  A    between atoms: C_3  and  C_5
REMARK    3  A    between atoms: C_9  and  C_10
REMARK    4  A    between atoms: C_20  and  C_22
REMARK    5  A    between atoms: C_22  and  O_23
REMARK    6  A    between atoms: O_23  and  C_24
REMARK                            x       y       z     vdW  Elec       q    Type
REMARK                         _______ _______ _______ _____ _____    ______ ____
ROOT
ATOM      1  C   UNL     1       0.454  11.403  19.710  0.00  0.00    +0.000 C 
ATOM      2  C   UNL     1       0.879  10.514  18.528  0.00  0.00    +0.000 C 
ATOM      3  C   UNL     1       1.324   9.275  19.240  0.00  0.00    +0.000 A 
ATOM      4  C   UNL     1       1.991   8.187  18.680  0.00  0.00    +0.000 A 
ATOM      5  C   UNL     1       2.270   7.053  19.468  0.00  0.00    +0.000 A 
ATOM      6  C   UNL     1       1.824   7.074  20.811  0.00  0.00    +0.000 A 
ATOM      7  C   UNL     1       1.122   8.166  21.360  0.00  0.00    +0.000 A 
ATOM      8  C   UNL     1       0.891   9.272  20.565  0.00  0.00    +0.000 A 
ATOM      9  N   UNL     1       0.238  10.490  20.866  0.00  0.00    +0.000 N 
ATOM     10  C   UNL     1      -0.540  10.743  21.989  0.00  0.00    +0.000 C 
ATOM     11  O   UNL     1      -0.704   9.930  22.902  0.00  0.00    +0.000 OA
ENDROOT
BRANCH   5  12
ATOM     12  C   UNL     1       2.979   5.884  18.892  0.00  0.00    +0.000 A 
ATOM     13  C   UNL     1       2.388   5.074  17.913  0.00  0.00    +0.000 A 
ATOM     14  C   UNL     1       3.073   3.969  17.421  0.00  0.00    +0.000 A 
ATOM     15  N   UNL     1       4.312   3.618  17.821  0.00  0.00    +0.000 NA
ATOM     16  C   UNL     1       4.883   4.404  18.758  0.00  0.00    +0.000 A 
ATOM     17  C   UNL     1       4.267   5.524  19.310  0.00  0.00    +0.000 A 
ENDBRANCH   5  12
BRANCH   1  20
ATOM     18  C   UNL     1       3.167  14.001  18.901  0.00  0.00    +0.000 C 
ATOM     19  N   UNL     1       2.014  13.137  18.841  0.00  0.00    +0.000 N 
ATOM     20  C   UNL     1       1.537  12.487  19.963  0.00  0.00    +0.000 C 
ATOM     21  O   UNL     1       2.060  12.636  21.069  0.00  0.00    +0.000 OA
ATOM     22  H   UNL     1       1.384  13.239  18.053  0.00  0.00    +0.000 HD
ENDBRANCH   1  20
BRANCH  10  23
ATOM     23  C   UNL     1      -1.164  12.149  22.112  0.00  0.00    +0.000 C 
BRANCH  23  24
ATOM     24  O   UNL     1      -0.629  12.946  23.154  0.00  0.00    +0.000 OA
BRANCH  24  25
ATOM     25  C   UNL     1      -1.502  13.850  23.711  0.00  0.00    +0.000 A 
ATOM     26  C   UNL     1      -1.166  15.102  24.249  0.00  0.00    +0.000 A 
ATOM     27  C   UNL     1      -2.158  15.936  24.772  0.00  0.00    +0.000 A 
ATOM     28  C   UNL     1      -3.481  15.518  24.761  0.00  0.00    +0.000 A 
ATOM     29  F   UNL     1      -4.430  16.318  25.264  0.00  0.00    +0.000 F 
ATOM     30  C   UNL     1      -3.832  14.279  24.239  0.00  0.00    +0.000 A 
ATOM     31  C   UNL     1      -2.840  13.448  23.712  0.00  0.00    +0.000 A 
ENDBRANCH  24  25
ENDBRANCH  23  24
ENDBRANCH  10  23
TORSDOF 5
ENDMDL
MODEL 9
REMARK VINA RESULT:      -7.9      0.938      1.470
REMARK  Name = 
REMARK  6 active torsions:
REMARK  status: ('A' for Active; 'I' for Inactive)
REMARK    1  A    between atoms: C_1  and  N_2
REMARK    2  A    between atoms: C_3  and  C_5
REMARK    3  A    between atoms: C_9  and  C_10
REMARK    4  A    between atoms: C_20  and  C_22
REMARK    5  A    between atoms: C_22  and  O_23
REMARK    6  A    between atoms: O_23  and  C_24
REMARK                            x       y       z     vdW  Elec       q    Type
REMARK                         _______ _______ _______ _____ _____    ______ ____
ROOT
ATOM      1  C   UNL     1       0.045  11.536  20.084  0.00  0.00    +0.000 C 
ATOM      2  C   UNL     1       0.367  10.822  18.759  0.00  0.00    +0.000 C 
ATOM      3  C   UNL     1       1.036   9.577  19.255  0.00  0.00    +0.000 A 
ATOM      4  C   UNL     1       1.711   8.633  18.484  0.00  0.00    +0.000 A 
ATOM      5  C   UNL     1       2.218   7.466  19.090  0.00  0.00    +0.000 A 
ATOM      6  C   UNL     1       1.983   7.303  20.476  0.00  0.00    +0.000 A 
ATOM      7  C   UNL     1       1.271   8.249  21.241  0.00  0.00    +0.000 A 
ATOM      8  C   UNL     1       0.814   9.395  20.618  0.00  0.00    +0.000 A 
ATOM      9  N   UNL     1       0.100  10.496  21.147  0.00  0.00    +0.000 N 
ATOM     10  C   UNL     1      -0.518  10.547  22.390  0.00  0.00    +0.000 C 
ATOM     11  O   UNL     1      -0.459   9.635  23.218  0.00  0.00    +0.000 OA
ENDROOT
BRANCH   5  12
ATOM     12  C   UNL     1       2.940   6.447  18.289  0.00  0.00    +0.000 A 
ATOM     13  C   UNL     1       4.117   6.755  17.593  0.00  0.00    +0.000 A 
ATOM     14  C   UNL     1       4.747   5.780  16.829  0.00  0.00    +0.000 A 
ATOM     15  N   UNL     1       4.299   4.512  16.718  0.00  0.00    +0.000 NA
ATOM     16  C   UNL     1       3.171   4.215  17.395  0.00  0.00    +0.000 A 
ATOM     17  C   UNL     1       2.472   5.130  18.178  0.00  0.00    +0.000 A 
ENDBRANCH   5  12
BRANCH   1  20
ATOM     18  C   UNL     1       2.012  14.746  19.314  0.00  0.00    +0.000 C 
ATOM     19  N   UNL     1       1.002  13.717  19.362  0.00  0.00    +0.000 N 
ATOM     20  C   UNL     1       1.043  12.706  20.301  0.00  0.00    +0.000 C 
ATOM     21  O   UNL     1       1.929  12.652  21.157  0.00  0.00    +0.000 OA
ATOM     22  H   UNL     1       0.116  13.900  18.905  0.00  0.00    +0.000 HD
ENDBRANCH   1  20
BRANCH  10  23
ATOM     23  C   UNL     1      -1.250  11.854  22.761  0.00  0.00    +0.000 C 
BRANCH  23  24
ATOM     24  O   UNL     1      -2.515  11.671  23.373  0.00  0.00    +0.000 OA
BRANCH  24  25
ATOM     25  C   UNL     1      -3.390  12.723  23.239  0.00  0.00    +0.000 A 
ATOM     26  C   UNL     1      -3.255  13.806  22.357  0.00  0.00    +0.000 A 
ATOM     27  C   UNL     1      -4.232  14.804  22.308  0.00  0.00    +0.000 A 
ATOM     28  C   UNL     1      -5.339  14.722  23.141  0.00  0.00    +0.000 A 
ATOM     29  F   UNL     1      -6.273  15.680  23.094  0.00  0.00    +0.000 F 
ATOM     30  C   UNL     1      -5.487  13.660  24.025  0.00  0.00    +0.000 A 
ATOM     31  C   UNL     1      -4.512  12.661  24.070  0.00  0.00    +0.000 A 
ENDBRANCH  24  25
ENDBRANCH  23  24
ENDBRANCH  10  23
TORSDOF 5
ENDMDL
