MODEL 1
REMARK VINA RESULT:      -6.7      0.000      0.000
REMARK  Name = 
REMARK  6 active torsions:
REMARK  status: ('A' for Active; 'I' for Inactive)
REMARK    1  A    between atoms: C_1  and  C_2
REMARK    2  A    between atoms: C_2  and  C_3
REMARK    3  A    between atoms: C_3  and  N_4
REMARK    4  A    between atoms: N_7  and  C_8
REMARK    5  A    between atoms: C_11  and  O_12
REMARK    6  A    between atoms: O_12  and  C_13
REMARK                            x       y       z     vdW  Elec       q    Type
REMARK                         _______ _______ _______ _____ _____    ______ ____
ROOT
ATOM      1  N   UNL     1       1.462   2.616  18.117  0.00  0.00    +0.000 NA
ATOM      2  C   UNL     1       1.429   4.087  17.938  0.00  0.00    +0.000 C 
ATOM      3  C   UNL     1       2.550   4.849  18.676  0.00  0.00    +0.000 C 
ATOM      4  N   UNL     1       3.860   4.333  18.257  0.00  0.00    +0.000 N 
ATOM      5  C   UNL     1       4.030   2.876  18.338  0.00  0.00    +0.000 C 
ATOM      6  C   UNL     1       2.811   2.142  17.709  0.00  0.00    +0.000 C 
ENDROOT
BRANCH   4   7
ATOM      7  C   UNL     1       4.901   5.178  17.937  0.00  0.00    +0.000 A 
ATOM      8  C   UNL     1       4.773   6.210  16.993  0.00  0.00    +0.000 A 
ATOM      9  C   UNL     1       5.832   7.091  16.720  0.00  0.00    +0.000 A 
ATOM     10  C   UNL     1       7.039   6.979  17.403  0.00  0.00    +0.000 A 
ATOM     11  C   UNL     1       7.200   5.950  18.321  0.00  0.00    +0.000 A 
ATOM     12  C   UNL     1       6.141   5.071  18.579  0.00  0.00    +0.000 A 
BRANCH  10  13
ATOM     13  O   UNL     1       8.000   7.900  17.087  0.00  0.00    +0.000 OA
ATOM     14  C   UNL     1       8.178   8.937  18.048  0.00  0.00    +0.000 C 
ENDBRANCH  10  13
ENDBRANCH   4   7
BRANCH   1  15
ATOM     15  C   UNL     1       1.136   2.186  19.484  0.00  0.00    +0.000 C 
BRANCH  15  17
ATOM     16  C   UNL     1       1.874   3.183  21.725  0.00  0.00    +0.000 C 
ATOM     17  C   UNL     1       0.991   3.335  20.495  0.00  0.00    +0.000 C 
ENDBRANCH  15  17
ENDBRANCH   1  15
TORSDOF 4
ENDMDL
MODEL 2
REMARK VINA RESULT:      -6.6      0.218      1.174
REMARK  Name = 
REMARK  6 active torsions:
REMARK  status: ('A' for Active; 'I' for Inactive)
REMARK    1  A    between atoms: C_1  and  C_2
REMARK    2  A    between atoms: C_2  and  C_3
REMARK    3  A    between atoms: C_3  and  N_4
REMARK    4  A    between atoms: N_7  and  C_8
REMARK    5  A    between atoms: C_11  and  O_12
REMARK    6  A    between atoms: O_12  and  C_13
REMARK                            x       y       z     vdW  Elec       q    Type
REMARK                         _______ _______ _______ _____ _____    ______ ____
ROOT
ATOM      1  N   UNL     1       1.448   2.713  17.989  0.00  0.00    +0.000 NA
ATOM      2  C   UNL     1       1.407   4.193  18.014  0.00  0.00    +0.000 C 
ATOM      3  C   UNL     1       2.553   4.855  18.809  0.00  0.00    +0.000 C 
ATOM      4  N   UNL     1       3.848   4.409  18.277  0.00  0.00    +0.000 N 
ATOM      5  C   UNL     1       4.022   2.955  18.153  0.00  0.00    +0.000 C 
ATOM      6  C   UNL     1       2.782   2.306  17.473  0.00  0.00    +0.000 C 
ENDROOT
BRANCH   4   7
ATOM      7  C   UNL     1       4.876   5.296  18.039  0.00  0.00    +0.000 A 
ATOM      8  C   UNL     1       6.170   5.104  18.548  0.00  0.00    +0.000 A 
ATOM      9  C   UNL     1       7.216   5.994  18.251  0.00  0.00    +0.000 A 
ATOM     10  C   UNL     1       6.999   7.086  17.417  0.00  0.00    +0.000 A 
ATOM     11  C   UNL     1       5.720   7.313  16.924  0.00  0.00    +0.000 A 
ATOM     12  C   UNL     1       4.683   6.425  17.233  0.00  0.00    +0.000 A 
BRANCH  10  13
ATOM     13  O   UNL     1       8.084   7.879  17.165  0.00  0.00    +0.000 OA
ATOM     14  C   UNL     1       8.153   9.069  17.947  0.00  0.00    +0.000 C 
ENDBRANCH  10  13
ENDBRANCH   4   7
BRANCH   1  15
ATOM     15  C   UNL     1       1.171   2.098  19.295  0.00  0.00    +0.000 C 
BRANCH  15  17
ATOM     16  C   UNL     1       1.631   2.823  21.709  0.00  0.00    +0.000 C 
ATOM     17  C   UNL     1       0.870   3.101  20.420  0.00  0.00    +0.000 C 
ENDBRANCH  15  17
ENDBRANCH   1  15
TORSDOF 4
ENDMDL
MODEL 3
REMARK VINA RESULT:      -6.4      2.210      2.758
REMARK  Name = 
REMARK  6 active torsions:
REMARK  status: ('A' for Active; 'I' for Inactive)
REMARK    1  A    between atoms: C_1  and  C_2
REMARK    2  A    between atoms: C_2  and  C_3
REMARK    3  A    between atoms: C_3  and  N_4
REMARK    4  A    between atoms: N_7  and  C_8
REMARK    5  A    between atoms: C_11  and  O_12
REMARK    6  A    between atoms: O_12  and  C_13
REMARK                            x       y       z     vdW  Elec       q    Type
REMARK                         _______ _______ _______ _____ _____    ______ ____
ROOT
ATOM      1  N   UNL     1       2.396   2.135  19.715  0.00  0.00    +0.000 NA
ATOM      2  C   UNL     1       2.093   2.581  18.335  0.00  0.00    +0.000 C 
ATOM      3  C   UNL     1       2.756   3.915  17.931  0.00  0.00    +0.000 C 
ATOM      4  N   UNL     1       4.211   3.822  18.109  0.00  0.00    +0.000 N 
ATOM      5  C   UNL     1       4.665   3.348  19.424  0.00  0.00    +0.000 C 
ATOM      6  C   UNL     1       3.875   2.082  19.859  0.00  0.00    +0.000 C 
ENDROOT
BRANCH   4   7
ATOM      7  C   UNL     1       5.088   4.276  17.148  0.00  0.00    +0.000 A 
ATOM      8  C   UNL     1       6.320   4.868  17.471  0.00  0.00    +0.000 A 
ATOM      9  C   UNL     1       7.221   5.278  16.474  0.00  0.00    +0.000 A 
ATOM     10  C   UNL     1       6.923   5.085  15.129  0.00  0.00    +0.000 A 
ATOM     11  C   UNL     1       5.699   4.527  14.783  0.00  0.00    +0.000 A 
ATOM     12  C   UNL     1       4.804   4.130  15.784  0.00  0.00    +0.000 A 
BRANCH  10  13
ATOM     13  O   UNL     1       7.874   5.493  14.234  0.00  0.00    +0.000 OA
ATOM     14  C   UNL     1       7.687   5.023  12.902  0.00  0.00    +0.000 C 
ENDBRANCH  10  13
ENDBRANCH   4   7
BRANCH   1  15
ATOM     15  C   UNL     1       1.789   2.984  20.750  0.00  0.00    +0.000 C 
BRANCH  15  17
ATOM     16  C   UNL     1       1.510   5.530  20.696  0.00  0.00    +0.000 C 
ATOM     17  C   UNL     1       0.997   4.184  20.205  0.00  0.00    +0.000 C 
ENDBRANCH  15  17
ENDBRANCH   1  15
TORSDOF 4
ENDMDL
MODEL 4
REMARK VINA RESULT:      -6.4      4.067      5.800
REMARK  Name = 
REMARK  6 active torsions:
REMARK  status: ('A' for Active; 'I' for Inactive)
REMARK    1  A    between atoms: C_1  and  C_2
REMARK    2  A    between atoms: C_2  and  C_3
REMARK    3  A    between atoms: C_3  and  N_4
REMARK    4  A    between atoms: N_7  and  C_8
REMARK    5  A    between atoms: C_11  and  O_12
REMARK    6  A    between atoms: O_12  and  C_13
REMARK                            x       y       z     vdW  Elec       q    Type
REMARK                         _______ _______ _______ _____ _____    ______ ____
ROOT
ATOM      1  N   UNL     1       5.023   4.369  17.862  0.00  0.00    +0.000 NA
ATOM      2  C   UNL     1       5.429   5.789  17.977  0.00  0.00    +0.000 C 
ATOM      3  C   UNL     1       4.391   6.800  17.444  0.00  0.00    +0.000 C 
ATOM      4  N   UNL     1       3.107   6.601  18.129  0.00  0.00    +0.000 N 
ATOM      5  C   UNL     1       2.593   5.224  18.136  0.00  0.00    +0.000 C 
ATOM      6  C   UNL     1       3.709   4.219  18.542  0.00  0.00    +0.000 C 
ENDROOT
BRANCH   4   7
ATOM      7  C   UNL     1       2.374   7.662  18.614  0.00  0.00    +0.000 A 
ATOM      8  C   UNL     1       1.970   8.734  17.801  0.00  0.00    +0.000 A 
ATOM      9  C   UNL     1       1.180   9.780  18.305  0.00  0.00    +0.000 A 
ATOM     10  C   UNL     1       0.752   9.769  19.629  0.00  0.00    +0.000 A 
ATOM     11  C   UNL     1       1.161   8.734  20.460  0.00  0.00    +0.000 A 
ATOM     12  C   UNL     1       1.957   7.701  19.951  0.00  0.00    +0.000 A 
BRANCH  10  13
ATOM     13  O   UNL     1      -0.036  10.817  20.019  0.00  0.00    +0.000 OA
ATOM     14  C   UNL     1      -0.781  11.431  18.970  0.00  0.00    +0.000 C 
ENDBRANCH  10  13
ENDBRANCH   4   7
BRANCH   1  15
ATOM     15  C   UNL     1       4.963   3.888  16.474  0.00  0.00    +0.000 C 
BRANCH  15  17
ATOM     16  C   UNL     1       6.072   4.019  14.169  0.00  0.00    +0.000 C 
ATOM     17  C   UNL     1       6.263   4.084  15.677  0.00  0.00    +0.000 C 
ENDBRANCH  15  17
ENDBRANCH   1  15
TORSDOF 4
ENDMDL
MODEL 5
REMARK VINA RESULT:      -6.4      4.014      5.832
REMARK  Name = 
REMARK  6 active torsions:
REMARK  status: ('A' for Active; 'I' for Inactive)
REMARK    1  A    between atoms: C_1  and  C_2
REMARK    2  A    between atoms: C_2  and  C_3
REMARK    3  A    between atoms: C_3  and  N_4
REMARK    4  A    between atoms: N_7  and  C_8
REMARK    5  A    between atoms: C_11  and  O_12
REMARK    6  A    between atoms: O_12  and  C_13
REMARK                            x       y       z     vdW  Elec       q    Type
REMARK                         _______ _______ _______ _____ _____    ______ ____
ROOT
ATOM      1  N   UNL     1       5.343   4.483  17.678  0.00  0.00    +0.000 NA
ATOM      2  C   UNL     1       5.630   5.933  17.781  0.00  0.00    +0.000 C 
ATOM      3  C   UNL     1       4.492   6.849  17.283  0.00  0.00    +0.000 C 
ATOM      4  N   UNL     1       3.252   6.541  18.009  0.00  0.00    +0.000 N 
ATOM      5  C   UNL     1       2.859   5.125  18.030  0.00  0.00    +0.000 C 
ATOM      6  C   UNL     1       4.069   4.221  18.399  0.00  0.00    +0.000 C 
ENDROOT
BRANCH   4   7
ATOM      7  C   UNL     1       2.446   7.536  18.518  0.00  0.00    +0.000 A 
ATOM      8  C   UNL     1       2.047   7.568  19.864  0.00  0.00    +0.000 A 
ATOM      9  C   UNL     1       1.266   8.620  20.373  0.00  0.00    +0.000 A 
ATOM     10  C   UNL     1       0.887   9.679  19.556  0.00  0.00    +0.000 A 
ATOM     11  C   UNL     1       1.246   9.657  18.214  0.00  0.00    +0.000 A 
ATOM     12  C   UNL     1       2.016   8.600  17.714  0.00  0.00    +0.000 A 
BRANCH  10  13
ATOM     13  O   UNL     1       0.152  10.668  20.150  0.00  0.00    +0.000 OA
ATOM     14  C   UNL     1       0.913  11.630  20.875  0.00  0.00    +0.000 C 
ENDBRANCH  10  13
ENDBRANCH   4   7
BRANCH   1  15
ATOM     15  C   UNL     1       5.281   3.996  16.292  0.00  0.00    +0.000 C 
BRANCH  15  17
ATOM     16  C   UNL     1       6.296   4.139  13.944  0.00  0.00    +0.000 C 
ATOM     17  C   UNL     1       6.507   4.356  15.436  0.00  0.00    +0.000 C 
ENDBRANCH  15  17
ENDBRANCH   1  15
TORSDOF 4
ENDMDL
MODEL 6
REMARK VINA RESULT:      -6.3      0.969      1.683
REMARK  Name = 
REMARK  6 active torsions:
REMARK  status: ('A' for Active; 'I' for Inactive)
REMARK    1  A    between atoms: C_1  and  C_2
REMARK    2  A    between atoms: C_2  and  C_3
REMARK    3  A    between atoms: C_3  and  N_4
REMARK    4  A    between atoms: N_7  and  C_8
REMARK    5  A    between atoms: C_11  and  O_12
REMARK    6  A    between atoms: O_12  and  C_13
REMARK                            x       y       z     vdW  Elec       q    Type
REMARK                         _______ _______ _______ _____ _____    ______ ____
ROOT
ATOM      1  N   UNL     1       2.885   1.745  18.658  0.00  0.00    +0.000 NA
ATOM      2  C   UNL     1       3.188   2.391  17.360  0.00  0.00    +0.000 C 
ATOM      3  C   UNL     1       3.283   3.931  17.416  0.00  0.00    +0.000 C 
ATOM      4  N   UNL     1       4.288   4.331  18.410  0.00  0.00    +0.000 N 
ATOM      5  C   UNL     1       4.142   3.732  19.744  0.00  0.00    +0.000 C 
ATOM      6  C   UNL     1       3.906   2.198  19.639  0.00  0.00    +0.000 C 
ENDROOT
BRANCH   4   7
ATOM      7  C   UNL     1       5.224   5.306  18.140  0.00  0.00    +0.000 A 
ATOM      8  C   UNL     1       6.482   5.338  18.765  0.00  0.00    +0.000 A 
ATOM      9  C   UNL     1       7.439   6.312  18.437  0.00  0.00    +0.000 A 
ATOM     10  C   UNL     1       7.173   7.264  17.458  0.00  0.00    +0.000 A 
ATOM     11  C   UNL     1       5.926   7.270  16.846  0.00  0.00    +0.000 A 
ATOM     12  C   UNL     1       4.975   6.301  17.186  0.00  0.00    +0.000 A 
BRANCH  10  13
ATOM     13  O   UNL     1       8.178   8.153  17.191  0.00  0.00    +0.000 OA
ATOM     14  C   UNL     1       8.351   9.176  18.168  0.00  0.00    +0.000 C 
ENDBRANCH  10  13
ENDBRANCH   4   7
BRANCH   1  15
ATOM     15  C   UNL     1       1.523   2.015  19.143  0.00  0.00    +0.000 C 
BRANCH  15  17
ATOM     16  C   UNL     1       0.880   4.068  20.534  0.00  0.00    +0.000 C 
ATOM     17  C   UNL     1       1.460   2.661  20.537  0.00  0.00    +0.000 C 
ENDBRANCH  15  17
ENDBRANCH   1  15
TORSDOF 4
ENDMDL
MODEL 7
REMARK VINA RESULT:      -6.3      3.827      5.831
REMARK  Name = 
REMARK  6 active torsions:
REMARK  status: ('A' for Active; 'I' for Inactive)
REMARK    1  A    between atoms: C_1  and  C_2
REMARK    2  A    between atoms: C_2  and  C_3
REMARK    3  A    between atoms: C_3  and  N_4
REMARK    4  A    between atoms: N_7  and  C_8
REMARK    5  A    between atoms: C_11  and  O_12
REMARK    6  A    between atoms: O_12  and  C_13
REMARK                            x       y       z     vdW  Elec       q    Type
REMARK                         _______ _______ _______ _____ _____    ______ ____
ROOT
ATOM      1  N   UNL     1       6.140   4.700  16.979  0.00  0.00    +0.000 NA
ATOM      2  C   UNL     1       6.079   6.169  16.796  0.00  0.00    +0.000 C 
ATOM      3  C   UNL     1       4.656   6.733  16.598  0.00  0.00    +0.000 C 
ATOM      4  N   UNL     1       3.804   6.344  17.730  0.00  0.00    +0.000 N 
ATOM      5  C   UNL     1       3.796   4.912  18.061  0.00  0.00    +0.000 C 
ATOM      6  C   UNL     1       5.244   4.348  18.113  0.00  0.00    +0.000 C 
ENDROOT
BRANCH   4   7
ATOM      7  C   UNL     1       2.968   7.247  18.350  0.00  0.00    +0.000 A 
ATOM      8  C   UNL     1       2.477   8.391  17.699  0.00  0.00    +0.000 A 
ATOM      9  C   UNL     1       1.586   9.271  18.334  0.00  0.00    +0.000 A 
ATOM     10  C   UNL     1       1.143   9.017  19.628  0.00  0.00    +0.000 A 
ATOM     11  C   UNL     1       1.636   7.908  20.303  0.00  0.00    +0.000 A 
ATOM     12  C   UNL     1       2.531   7.041  19.665  0.00  0.00    +0.000 A 
BRANCH  10  13
ATOM     13  O   UNL     1       0.256   9.917  20.151  0.00  0.00    +0.000 OA
ATOM     14  C   UNL     1      -0.391  10.750  19.192  0.00  0.00    +0.000 C 
ENDBRANCH  10  13
ENDBRANCH   4   7
BRANCH   1  15
ATOM     15  C   UNL     1       5.789   3.945  15.768  0.00  0.00    +0.000 C 
BRANCH  15  17
ATOM     16  C   UNL     1       6.020   3.712  13.227  0.00  0.00    +0.000 C 
ATOM     17  C   UNL     1       6.401   4.501  14.472  0.00  0.00    +0.000 C 
ENDBRANCH  15  17
ENDBRANCH   1  15
TORSDOF 4
ENDMDL
MODEL 8
REMARK VINA RESULT:      -6.3      2.223      2.606
REMARK  Name = 
REMARK  6 active torsions:
REMARK  status: ('A' for Active; 'I' for Inactive)
REMARK    1  A    between atoms: C_1  and  C_2
REMARK    2  A    between atoms: C_2  and  C_3
REMARK    3  A    between atoms: C_3  and  N_4
REMARK    4  A    between atoms: N_7  and  C_8
REMARK    5  A    between atoms: C_11  and  O_12
REMARK    6  A    between atoms: O_12  and  C_13
REMARK                            x       y       z     vdW  Elec       q    Type
REMARK                         _______ _______ _______ _____ _____    ______ ____
ROOT
ATOM      1  N   UNL     1       2.427   2.196  19.781  0.00  0.00    +0.000 NA
ATOM      2  C   UNL     1       2.139   2.569  18.376  0.00  0.00    +0.000 C 
ATOM      3  C   UNL     1       2.817   3.873  17.906  0.00  0.00    +0.000 C 
ATOM      4  N   UNL     1       4.270   3.775  18.099  0.00  0.00    +0.000 N 
ATOM      5  C   UNL     1       4.711   3.370  19.441  0.00  0.00    +0.000 C 
ATOM      6  C   UNL     1       3.904   2.136  19.939  0.00  0.00    +0.000 C 
ENDROOT
BRANCH   4   7
ATOM      7  C   UNL     1       5.158   4.169  17.121  0.00  0.00    +0.000 A 
ATOM      8  C   UNL     1       4.770   4.367  15.786  0.00  0.00    +0.000 A 
ATOM      9  C   UNL     1       5.681   4.818  14.816  0.00  0.00    +0.000 A 
ATOM     10  C   UNL     1       6.997   5.106  15.162  0.00  0.00    +0.000 A 
ATOM     11  C   UNL     1       7.412   4.891  16.470  0.00  0.00    +0.000 A 
ATOM     12  C   UNL     1       6.499   4.433  17.427  0.00  0.00    +0.000 A 
BRANCH  10  13
ATOM     13  O   UNL     1       7.800   5.564  14.154  0.00  0.00    +0.000 OA
ATOM     14  C   UNL     1       7.497   5.046  12.861  0.00  0.00    +0.000 C 
ENDBRANCH  10  13
ENDBRANCH   4   7
BRANCH   1  15
ATOM     15  C   UNL     1       1.822   3.106  20.764  0.00  0.00    +0.000 C 
BRANCH  15  17
ATOM     16  C   UNL     1       1.648   5.662  20.721  0.00  0.00    +0.000 C 
ATOM     17  C   UNL     1       1.143   4.343  20.153  0.00  0.00    +0.000 C 
ENDBRANCH  15  17
ENDBRANCH   1  15
TORSDOF 4
ENDMDL
MODEL 9
REMARK VINA RESULT:      -6.2      2.081      2.592
REMARK  Name = 
REMARK  6 active torsions:
REMARK  status: ('A' for Active; 'I' for Inactive)
REMARK    1  A    between atoms: C_1  and  C_2
REMARK    2  A    between atoms: C_2  and  C_3
REMARK    3  A    between atoms: C_3  and  N_4
REMARK    4  A    between atoms: N_7  and  C_8
REMARK    5  A    between atoms: C_11  and  O_12
REMARK    6  A    between atoms: O_12  and  C_13
REMARK                            x       y       z     vdW  Elec       q    Type
REMARK                         _______ _______ _______ _____ _____    ______ ____
ROOT
ATOM      1  N   UNL     1       1.704   2.979  19.162  0.00  0.00    +0.000 NA
ATOM      2  C   UNL     1       1.568   3.728  17.891  0.00  0.00    +0.000 C 
ATOM      3  C   UNL     1       2.600   4.859  17.698  0.00  0.00    +0.000 C 
ATOM      4  N   UNL     1       3.961   4.313  17.802  0.00  0.00    +0.000 N 
ATOM      5  C   UNL     1       4.235   3.505  18.999  0.00  0.00    +0.000 C 
ATOM      6  C   UNL     1       3.099   2.470  19.239  0.00  0.00    +0.000 C 
ENDROOT
BRANCH   4   7
ATOM      7  C   UNL     1       4.947   4.652  16.901  0.00  0.00    +0.000 A 
ATOM      8  C   UNL     1       6.104   5.354  17.278  0.00  0.00    +0.000 A 
ATOM      9  C   UNL     1       7.120   5.644  16.352  0.00  0.00    +0.000 A 
ATOM     10  C   UNL     1       7.017   5.218  15.032  0.00  0.00    +0.000 A 
ATOM     11  C   UNL     1       5.870   4.546  14.629  0.00  0.00    +0.000 A 
ATOM     12  C   UNL     1       4.859   4.270  15.557  0.00  0.00    +0.000 A 
BRANCH  10  13
ATOM     13  O   UNL     1       8.069   5.525  14.214  0.00  0.00    +0.000 OA
ATOM     14  C   UNL     1       7.907   5.135  12.853  0.00  0.00    +0.000 C 
ENDBRANCH  10  13
ENDBRANCH   4   7
BRANCH   1  15
ATOM     15  C   UNL     1       1.359   3.774  20.349  0.00  0.00    +0.000 C 
BRANCH  15  17
ATOM     16  C   UNL     1       1.273   2.203  22.370  0.00  0.00    +0.000 C 
ATOM     17  C   UNL     1       2.035   3.305  21.648  0.00  0.00    +0.000 C 
ENDBRANCH  15  17
ENDBRANCH   1  15
TORSDOF 4
ENDMDL
