MODEL 1
REMARK VINA RESULT:      -8.7      0.000      0.000
REMARK  Name = 
REMARK  9 active torsions:
REMARK  status: ('A' for Active; 'I' for Inactive)
REMARK    1  A    between atoms: C_1  and  C_2
REMARK    2  A    between atoms: C_2  and  O_3
REMARK    3  A    between atoms: O_3  and  C_4
REMARK    4  A    between atoms: C_4  and  C_5
REMARK    5  A    between atoms: C_5  and  C_6
REMARK    6  A    between atoms: C_6  and  N_7
REMARK    7  A    between atoms: C_10  and  C_12
REMARK    8  A    between atoms: C_16  and  C_17
REMARK    9  A    between atoms: C_23  and  C_24
REMARK                            x       y       z     vdW  Elec       q    Type
REMARK                         _______ _______ _______ _____ _____    ______ ____
ROOT
ATOM      1  N   UNL     1       0.488  10.229  19.251  0.00  0.00    +0.000 N 
ATOM      2  C   UNL     1       0.240  10.305  20.610  0.00  0.00    +0.000 A 
ATOM      3  N   UNL     1      -0.540  11.283  21.197  0.00  0.00    +0.000 N 
ATOM      4  C   UNL     1      -0.753  11.299  22.568  0.00  0.00    +0.000 C 
ATOM      5  O   UNL     1      -0.218  10.583  23.410  0.00  0.00    +0.000 OA
ATOM      6  N   UNL     1       0.783   9.274  21.224  0.00  0.00    +0.000 NA
ATOM      7  C   UNL     1       1.392   8.529  20.261  0.00  0.00    +0.000 A 
ATOM      8  C   UNL     1       2.046   7.300  20.337  0.00  0.00    +0.000 A 
ATOM      9  C   UNL     1       2.664   6.833  19.176  0.00  0.00    +0.000 A 
ATOM     10  C   UNL     1       2.469   7.539  17.984  0.00  0.00    +0.000 A 
ATOM     11  N   UNL     1       1.767   8.698  17.844  0.00  0.00    +0.000 NA
ATOM     12  C   UNL     1       1.283   9.135  19.025  0.00  0.00    +0.000 A 
ATOM     13  H   UNL     1      -0.992  11.966  20.605  0.00  0.00    +0.000 HD
ENDROOT
BRANCH   9  14
ATOM     14  C   UNL     1       3.469   5.593  19.125  0.00  0.00    +0.000 C 
ATOM     15  O   UNL     1       4.605   5.656  19.596  0.00  0.00    +0.000 OA
ATOM     16  N   UNL     1       2.949   4.412  18.599  0.00  0.00    +0.000 N 
ATOM     17  C   UNL     1       1.582   4.157  18.121  0.00  0.00    +0.000 C 
ATOM     18  C   UNL     1       1.027   2.832  18.652  0.00  0.00    +0.000 C 
ATOM     19  O   UNL     1       1.927   1.744  18.417  0.00  0.00    +0.000 OA
ATOM     20  C   UNL     1       3.196   2.000  19.039  0.00  0.00    +0.000 C 
ATOM     21  C   UNL     1       3.841   3.258  18.452  0.00  0.00    +0.000 C 
ENDBRANCH   9  14
BRANCH   4  22
ATOM     22  C   UNL     1      -1.723  12.314  23.075  0.00  0.00    +0.000 A 
ATOM     23  C   UNL     1      -1.225  13.572  23.465  0.00  0.00    +0.000 A 
ATOM     24  C   UNL     1      -2.080  14.530  24.007  0.00  0.00    +0.000 A 
ATOM     25  C   UNL     1      -3.431  14.241  24.177  0.00  0.00    +0.000 A 
ATOM     26  C   UNL     1      -3.930  12.987  23.817  0.00  0.00    +0.000 A 
ATOM     27  C   UNL     1      -3.079  12.024  23.258  0.00  0.00    +0.000 A 
BRANCH  26  28
ATOM     28  C   UNL     1      -5.310  12.683  24.057  0.00  0.00    +0.000 C 
ATOM     29  N   UNL     1      -6.427  12.430  24.243  0.00  0.00    +0.000 NA
ENDBRANCH  26  28
ENDBRANCH   4  22
BRANCH   1  30
ATOM     30  C   UNL     1      -0.108  10.983  18.168  0.00  0.00    +0.000 C 
BRANCH  30  31
ATOM     31  C   UNL     1      -1.326  10.255  17.587  0.00  0.00    +0.000 C 
BRANCH  31  32
ATOM     32  C   UNL     1      -2.640  10.921  17.986  0.00  0.00    +0.000 C 
BRANCH  32  33
ATOM     33  O   UNL     1      -3.513  11.039  16.859  0.00  0.00    +0.000 OA
BRANCH  33  35
ATOM     34  C   UNL     1      -3.607  10.074  14.677  0.00  0.00    +0.000 C 
ATOM     35  C   UNL     1      -2.810  10.948  15.617  0.00  0.00    +0.000 C 
ENDBRANCH  33  35
ENDBRANCH  32  33
ENDBRANCH  31  32
ENDBRANCH  30  31
ENDBRANCH   1  30
TORSDOF 8
ENDMDL
MODEL 2
REMARK VINA RESULT:      -8.5      0.780      1.017
REMARK  Name = 
REMARK  9 active torsions:
REMARK  status: ('A' for Active; 'I' for Inactive)
REMARK    1  A    between atoms: C_1  and  C_2
REMARK    2  A    between atoms: C_2  and  O_3
REMARK    3  A    between atoms: O_3  and  C_4
REMARK    4  A    between atoms: C_4  and  C_5
REMARK    5  A    between atoms: C_5  and  C_6
REMARK    6  A    between atoms: C_6  and  N_7
REMARK    7  A    between atoms: C_10  and  C_12
REMARK    8  A    between atoms: C_16  and  C_17
REMARK    9  A    between atoms: C_23  and  C_24
REMARK                            x       y       z     vdW  Elec       q    Type
REMARK                         _______ _______ _______ _____ _____    ______ ____
ROOT
ATOM      1  N   UNL     1       0.474  10.259  19.276  0.00  0.00    +0.000 N 
ATOM      2  C   UNL     1       0.223  10.324  20.636  0.00  0.00    +0.000 A 
ATOM      3  N   UNL     1      -0.557  11.298  21.229  0.00  0.00    +0.000 N 
ATOM      4  C   UNL     1      -0.773  11.302  22.599  0.00  0.00    +0.000 C 
ATOM      5  O   UNL     1      -0.241  10.580  23.436  0.00  0.00    +0.000 OA
ATOM      6  N   UNL     1       0.764   9.287  21.242  0.00  0.00    +0.000 NA
ATOM      7  C   UNL     1       1.374   8.549  20.275  0.00  0.00    +0.000 A 
ATOM      8  C   UNL     1       2.026   7.319  20.342  0.00  0.00    +0.000 A 
ATOM      9  C   UNL     1       2.646   6.861  19.178  0.00  0.00    +0.000 A 
ATOM     10  C   UNL     1       2.455   7.576  17.992  0.00  0.00    +0.000 A 
ATOM     11  N   UNL     1       1.755   8.738  17.860  0.00  0.00    +0.000 NA
ATOM     12  C   UNL     1       1.269   9.165  19.044  0.00  0.00    +0.000 A 
ATOM     13  H   UNL     1      -1.006  11.986  20.641  0.00  0.00    +0.000 HD
ENDROOT
BRANCH   9  14
ATOM     14  C   UNL     1       3.450   5.619  19.119  0.00  0.00    +0.000 C 
ATOM     15  O   UNL     1       4.597   5.686  19.563  0.00  0.00    +0.000 OA
ATOM     16  N   UNL     1       2.917   4.434  18.616  0.00  0.00    +0.000 N 
ATOM     17  C   UNL     1       1.539   4.175  18.172  0.00  0.00    +0.000 C 
ATOM     18  C   UNL     1       0.996   2.855  18.727  0.00  0.00    +0.000 C 
ATOM     19  O   UNL     1       1.891   1.765  18.481  0.00  0.00    +0.000 OA
ATOM     20  C   UNL     1       3.174   2.026  19.071  0.00  0.00    +0.000 C 
ATOM     21  C   UNL     1       3.805   3.278  18.457  0.00  0.00    +0.000 C 
ENDBRANCH   9  14
BRANCH   4  22
ATOM     22  C   UNL     1      -1.743  12.315  23.112  0.00  0.00    +0.000 A 
ATOM     23  C   UNL     1      -1.247  13.576  23.495  0.00  0.00    +0.000 A 
ATOM     24  C   UNL     1      -2.102  14.531  24.042  0.00  0.00    +0.000 A 
ATOM     25  C   UNL     1      -3.449  14.237  24.224  0.00  0.00    +0.000 A 
ATOM     26  C   UNL     1      -3.946  12.980  23.872  0.00  0.00    +0.000 A 
ATOM     27  C   UNL     1      -3.097  12.020  23.308  0.00  0.00    +0.000 A 
BRANCH  26  28
ATOM     28  C   UNL     1      -5.323  12.671  24.125  0.00  0.00    +0.000 C 
ATOM     29  N   UNL     1      -6.437  12.413  24.322  0.00  0.00    +0.000 NA
ENDBRANCH  26  28
ENDBRANCH   4  22
BRANCH   1  30
ATOM     30  C   UNL     1      -0.118  11.022  18.198  0.00  0.00    +0.000 C 
BRANCH  30  31
ATOM     31  C   UNL     1      -1.443  10.402  17.739  0.00  0.00    +0.000 C 
BRANCH  31  32
ATOM     32  C   UNL     1      -2.651  11.183  18.251  0.00  0.00    +0.000 C 
BRANCH  32  33
ATOM     33  O   UNL     1      -3.572  11.446  17.188  0.00  0.00    +0.000 OA
BRANCH  33  35
ATOM     34  C   UNL     1      -4.778  12.108  19.140  0.00  0.00    +0.000 C 
ATOM     35  C   UNL     1      -4.879  11.769  17.671  0.00  0.00    +0.000 C 
ENDBRANCH  33  35
ENDBRANCH  32  33
ENDBRANCH  31  32
ENDBRANCH  30  31
ENDBRANCH   1  30
TORSDOF 8
ENDMDL
MODEL 3
REMARK VINA RESULT:      -8.5      1.201      1.642
REMARK  Name = 
REMARK  9 active torsions:
REMARK  status: ('A' for Active; 'I' for Inactive)
REMARK    1  A    between atoms: C_1  and  C_2
REMARK    2  A    between atoms: C_2  and  O_3
REMARK    3  A    between atoms: O_3  and  C_4
REMARK    4  A    between atoms: C_4  and  C_5
REMARK    5  A    between atoms: C_5  and  C_6
REMARK    6  A    between atoms: C_6  and  N_7
REMARK    7  A    between atoms: C_10  and  C_12
REMARK    8  A    between atoms: C_16  and  C_17
REMARK    9  A    between atoms: C_23  and  C_24
REMARK                            x       y       z     vdW  Elec       q    Type
REMARK                         _______ _______ _______ _____ _____    ______ ____
ROOT
ATOM      1  N   UNL     1       0.602  10.204  19.320  0.00  0.00    +0.000 N 
ATOM      2  C   UNL     1       0.338  10.240  20.678  0.00  0.00    +0.000 A 
ATOM      3  N   UNL     1      -0.429  11.214  21.289  0.00  0.00    +0.000 N 
ATOM      4  C   UNL     1      -0.659  11.189  22.656  0.00  0.00    +0.000 C 
ATOM      5  O   UNL     1      -0.151  10.435  23.480  0.00  0.00    +0.000 OA
ATOM      6  N   UNL     1       0.851   9.177  21.264  0.00  0.00    +0.000 NA
ATOM      7  C   UNL     1       1.457   8.452  20.284  0.00  0.00    +0.000 A 
ATOM      8  C   UNL     1       2.083   7.208  20.326  0.00  0.00    +0.000 A 
ATOM      9  C   UNL     1       2.707   6.767  19.158  0.00  0.00    +0.000 A 
ATOM     10  C   UNL     1       2.542   7.516  17.988  0.00  0.00    +0.000 A 
ATOM     11  N   UNL     1       1.866   8.694  17.879  0.00  0.00    +0.000 NA
ATOM     12  C   UNL     1       1.377   9.101  19.068  0.00  0.00    +0.000 A 
ATOM     13  H   UNL     1      -0.859  11.926  20.714  0.00  0.00    +0.000 HD
ENDROOT
BRANCH   9  14
ATOM     14  C   UNL     1       3.486   5.512  19.075  0.00  0.00    +0.000 C 
ATOM     15  O   UNL     1       4.640   5.553  19.504  0.00  0.00    +0.000 OA
ATOM     16  N   UNL     1       2.925   4.342  18.568  0.00  0.00    +0.000 N 
ATOM     17  C   UNL     1       1.536   4.113  18.140  0.00  0.00    +0.000 C 
ATOM     18  C   UNL     1       0.977   2.797  18.689  0.00  0.00    +0.000 C 
ATOM     19  O   UNL     1       1.848   1.693  18.419  0.00  0.00    +0.000 OA
ATOM     20  C   UNL     1       3.143   1.925  18.995  0.00  0.00    +0.000 C 
ATOM     21  C   UNL     1       3.789   3.171  18.385  0.00  0.00    +0.000 C 
ENDBRANCH   9  14
BRANCH   4  22
ATOM     22  C   UNL     1      -1.614  12.208  23.185  0.00  0.00    +0.000 A 
ATOM     23  C   UNL     1      -2.925  11.796  23.489  0.00  0.00    +0.000 A 
ATOM     24  C   UNL     1      -3.871  12.723  23.922  0.00  0.00    +0.000 A 
ATOM     25  C   UNL     1      -3.527  14.065  24.042  0.00  0.00    +0.000 A 
ATOM     26  C   UNL     1      -2.236  14.489  23.716  0.00  0.00    +0.000 A 
ATOM     27  C   UNL     1      -1.275  13.561  23.295  0.00  0.00    +0.000 A 
BRANCH  26  28
ATOM     28  C   UNL     1      -1.915  15.885  23.784  0.00  0.00    +0.000 C 
ATOM     29  N   UNL     1      -1.664  17.016  23.845  0.00  0.00    +0.000 NA
ENDBRANCH  26  28
ENDBRANCH   4  22
BRANCH   1  30
ATOM     30  C   UNL     1       0.036  11.006  18.256  0.00  0.00    +0.000 C 
BRANCH  30  31
ATOM     31  C   UNL     1      -1.304  10.433  17.780  0.00  0.00    +0.000 C 
BRANCH  31  32
ATOM     32  C   UNL     1      -2.356  11.521  17.577  0.00  0.00    +0.000 C 
BRANCH  32  33
ATOM     33  O   UNL     1      -3.388  11.071  16.695  0.00  0.00    +0.000 OA
BRANCH  33  35
ATOM     34  C   UNL     1      -3.106  10.166  14.504  0.00  0.00    +0.000 C 
ATOM     35  C   UNL     1      -3.018   9.887  15.986  0.00  0.00    +0.000 C 
ENDBRANCH  33  35
ENDBRANCH  32  33
ENDBRANCH  31  32
ENDBRANCH  30  31
ENDBRANCH   1  30
TORSDOF 8
ENDMDL
MODEL 4
REMARK VINA RESULT:      -8.3      1.471      2.131
REMARK  Name = 
REMARK  9 active torsions:
REMARK  status: ('A' for Active; 'I' for Inactive)
REMARK    1  A    between atoms: C_1  and  C_2
REMARK    2  A    between atoms: C_2  and  O_3
REMARK    3  A    between atoms: O_3  and  C_4
REMARK    4  A    between atoms: C_4  and  C_5
REMARK    5  A    between atoms: C_5  and  C_6
REMARK    6  A    between atoms: C_6  and  N_7
REMARK    7  A    between atoms: C_10  and  C_12
REMARK    8  A    between atoms: C_16  and  C_17
REMARK    9  A    between atoms: C_23  and  C_24
REMARK                            x       y       z     vdW  Elec       q    Type
REMARK                         _______ _______ _______ _____ _____    ______ ____
ROOT
ATOM      1  N   UNL     1       0.612  10.181  19.309  0.00  0.00    +0.000 N 
ATOM      2  C   UNL     1       0.343  10.212  20.666  0.00  0.00    +0.000 A 
ATOM      3  N   UNL     1      -0.427  11.184  21.276  0.00  0.00    +0.000 N 
ATOM      4  C   UNL     1      -0.662  11.153  22.643  0.00  0.00    +0.000 C 
ATOM      5  O   UNL     1      -0.156  10.397  23.466  0.00  0.00    +0.000 OA
ATOM      6  N   UNL     1       0.856   9.148  21.250  0.00  0.00    +0.000 NA
ATOM      7  C   UNL     1       1.466   8.426  20.270  0.00  0.00    +0.000 A 
ATOM      8  C   UNL     1       2.094   7.183  20.311  0.00  0.00    +0.000 A 
ATOM      9  C   UNL     1       2.722   6.746  19.143  0.00  0.00    +0.000 A 
ATOM     10  C   UNL     1       2.560   7.499  17.975  0.00  0.00    +0.000 A 
ATOM     11  N   UNL     1       1.884   8.677  17.868  0.00  0.00    +0.000 NA
ATOM     12  C   UNL     1       1.390   9.079  19.056  0.00  0.00    +0.000 A 
ATOM     13  H   UNL     1      -0.855  11.897  20.702  0.00  0.00    +0.000 HD
ENDROOT
BRANCH   9  14
ATOM     14  C   UNL     1       3.503   5.492  19.060  0.00  0.00    +0.000 C 
ATOM     15  O   UNL     1       4.655   5.533  19.494  0.00  0.00    +0.000 OA
ATOM     16  N   UNL     1       2.945   4.324  18.546  0.00  0.00    +0.000 N 
ATOM     17  C   UNL     1       1.558   4.095  18.111  0.00  0.00    +0.000 C 
ATOM     18  C   UNL     1       0.998   2.777  18.653  0.00  0.00    +0.000 C 
ATOM     19  O   UNL     1       1.871   1.675  18.384  0.00  0.00    +0.000 OA
ATOM     20  C   UNL     1       3.164   1.906  18.965  0.00  0.00    +0.000 C 
ATOM     21  C   UNL     1       3.811   3.155  18.363  0.00  0.00    +0.000 C 
ENDBRANCH   9  14
BRANCH   4  22
ATOM     22  C   UNL     1      -1.620  12.170  23.171  0.00  0.00    +0.000 A 
ATOM     23  C   UNL     1      -2.892  11.733  23.585  0.00  0.00    +0.000 A 
ATOM     24  C   UNL     1      -3.845  12.651  24.022  0.00  0.00    +0.000 A 
ATOM     25  C   UNL     1      -3.545  14.010  24.039  0.00  0.00    +0.000 A 
ATOM     26  C   UNL     1      -2.294  14.457  23.605  0.00  0.00    +0.000 A 
ATOM     27  C   UNL     1      -1.327  13.538  23.179  0.00  0.00    +0.000 A 
BRANCH  26  28
ATOM     28  C   UNL     1      -2.023  15.864  23.568  0.00  0.00    +0.000 C 
ATOM     29  N   UNL     1      -1.807  17.003  23.528  0.00  0.00    +0.000 NA
ENDBRANCH  26  28
ENDBRANCH   4  22
BRANCH   1  30
ATOM     30  C   UNL     1       0.050  10.985  18.245  0.00  0.00    +0.000 C 
BRANCH  30  31
ATOM     31  C   UNL     1      -1.355  10.504  17.866  0.00  0.00    +0.000 C 
BRANCH  31  32
ATOM     32  C   UNL     1      -2.377  11.638  17.881  0.00  0.00    +0.000 C 
BRANCH  32  33
ATOM     33  O   UNL     1      -2.835  11.892  19.213  0.00  0.00    +0.000 OA
BRANCH  33  35
ATOM     34  C   UNL     1      -4.532  13.061  20.417  0.00  0.00    +0.000 C 
ATOM     35  C   UNL     1      -4.244  12.126  19.266  0.00  0.00    +0.000 C 
ENDBRANCH  33  35
ENDBRANCH  32  33
ENDBRANCH  31  32
ENDBRANCH  30  31
ENDBRANCH   1  30
TORSDOF 8
ENDMDL
MODEL 5
REMARK VINA RESULT:      -8.0      1.368      1.917
REMARK  Name = 
REMARK  9 active torsions:
REMARK  status: ('A' for Active; 'I' for Inactive)
REMARK    1  A    between atoms: C_1  and  C_2
REMARK    2  A    between atoms: C_2  and  O_3
REMARK    3  A    between atoms: O_3  and  C_4
REMARK    4  A    between atoms: C_4  and  C_5
REMARK    5  A    between atoms: C_5  and  C_6
REMARK    6  A    between atoms: C_6  and  N_7
REMARK    7  A    between atoms: C_10  and  C_12
REMARK    8  A    between atoms: C_16  and  C_17
REMARK    9  A    between atoms: C_23  and  C_24
REMARK                            x       y       z     vdW  Elec       q    Type
REMARK                         _______ _______ _______ _____ _____    ______ ____
ROOT
ATOM      1  N   UNL     1       0.380  10.605  19.299  0.00  0.00    +0.000 N 
ATOM      2  C   UNL     1       0.101  10.612  20.655  0.00  0.00    +0.000 A 
ATOM      3  N   UNL     1      -0.674  11.573  21.277  0.00  0.00    +0.000 N 
ATOM      4  C   UNL     1      -0.919  11.518  22.641  0.00  0.00    +0.000 C 
ATOM      5  O   UNL     1      -0.418  10.748  23.454  0.00  0.00    +0.000 OA
ATOM      6  N   UNL     1       0.610   9.538  21.224  0.00  0.00    +0.000 NA
ATOM      7  C   UNL     1       1.227   8.834  20.235  0.00  0.00    +0.000 A 
ATOM      8  C   UNL     1       1.855   7.590  20.259  0.00  0.00    +0.000 A 
ATOM      9  C   UNL     1       2.492   7.174  19.088  0.00  0.00    +0.000 A 
ATOM     10  C   UNL     1       2.338   7.947  17.933  0.00  0.00    +0.000 A 
ATOM     11  N   UNL     1       1.662   9.126  17.841  0.00  0.00    +0.000 NA
ATOM     12  C   UNL     1       1.159   9.508  19.033  0.00  0.00    +0.000 A 
ATOM     13  H   UNL     1      -1.098  12.296  20.712  0.00  0.00    +0.000 HD
ENDROOT
BRANCH   9  14
ATOM     14  C   UNL     1       3.274   5.922  18.988  0.00  0.00    +0.000 C 
ATOM     15  O   UNL     1       2.868   4.967  19.652  0.00  0.00    +0.000 OA
ATOM     16  N   UNL     1       4.389   5.829  18.158  0.00  0.00    +0.000 N 
ATOM     17  C   UNL     1       4.911   6.836  17.222  0.00  0.00    +0.000 C 
ATOM     18  C   UNL     1       5.258   6.227  15.861  0.00  0.00    +0.000 C 
ATOM     19  O   UNL     1       6.099   5.076  15.989  0.00  0.00    +0.000 OA
ATOM     20  C   UNL     1       5.460   4.076  16.797  0.00  0.00    +0.000 C 
ATOM     21  C   UNL     1       5.200   4.608  18.209  0.00  0.00    +0.000 C 
ENDBRANCH   9  14
BRANCH   4  22
ATOM     22  C   UNL     1      -1.881  12.525  23.180  0.00  0.00    +0.000 A 
ATOM     23  C   UNL     1      -1.367  13.740  23.670  0.00  0.00    +0.000 A 
ATOM     24  C   UNL     1      -2.217  14.683  24.244  0.00  0.00    +0.000 A 
ATOM     25  C   UNL     1      -3.579  14.421  24.348  0.00  0.00    +0.000 A 
ATOM     26  C   UNL     1      -4.096  13.207  23.889  0.00  0.00    +0.000 A 
ATOM     27  C   UNL     1      -3.250  12.260  23.297  0.00  0.00    +0.000 A 
BRANCH  26  28
ATOM     28  C   UNL     1      -5.491  12.926  24.061  0.00  0.00    +0.000 C 
ATOM     29  N   UNL     1      -6.617  12.689  24.206  0.00  0.00    +0.000 NA
ENDBRANCH  26  28
ENDBRANCH   4  22
BRANCH   1  30
ATOM     30  C   UNL     1      -0.176  11.428  18.246  0.00  0.00    +0.000 C 
BRANCH  30  31
ATOM     31  C   UNL     1      -1.657  11.110  18.013  0.00  0.00    +0.000 C 
BRANCH  31  32
ATOM     32  C   UNL     1      -1.851   9.859  17.159  0.00  0.00    +0.000 C 
BRANCH  32  33
ATOM     33  O   UNL     1      -3.102   9.904  16.468  0.00  0.00    +0.000 OA
BRANCH  33  35
ATOM     34  C   UNL     1      -3.391  10.069  14.103  0.00  0.00    +0.000 C 
ATOM     35  C   UNL     1      -3.084  10.825  15.375  0.00  0.00    +0.000 C 
ENDBRANCH  33  35
ENDBRANCH  32  33
ENDBRANCH  31  32
ENDBRANCH  30  31
ENDBRANCH   1  30
TORSDOF 8
ENDMDL
MODEL 6
REMARK VINA RESULT:      -8.0      1.829      2.722
REMARK  Name = 
REMARK  9 active torsions:
REMARK  status: ('A' for Active; 'I' for Inactive)
REMARK    1  A    between atoms: C_1  and  C_2
REMARK    2  A    between atoms: C_2  and  O_3
REMARK    3  A    between atoms: O_3  and  C_4
REMARK    4  A    between atoms: C_4  and  C_5
REMARK    5  A    between atoms: C_5  and  C_6
REMARK    6  A    between atoms: C_6  and  N_7
REMARK    7  A    between atoms: C_10  and  C_12
REMARK    8  A    between atoms: C_16  and  C_17
REMARK    9  A    between atoms: C_23  and  C_24
REMARK                            x       y       z     vdW  Elec       q    Type
REMARK                         _______ _______ _______ _____ _____    ______ ____
ROOT
ATOM      1  N   UNL     1       0.745  10.316  19.375  0.00  0.00    +0.000 N 
ATOM      2  C   UNL     1       0.376  10.302  20.709  0.00  0.00    +0.000 A 
ATOM      3  N   UNL     1      -0.404  11.275  21.303  0.00  0.00    +0.000 N 
ATOM      4  C   UNL     1      -0.742  11.198  22.646  0.00  0.00    +0.000 C 
ATOM      5  O   UNL     1      -0.324  10.391  23.470  0.00  0.00    +0.000 OA
ATOM      6  N   UNL     1       0.808   9.197  21.282  0.00  0.00    +0.000 NA
ATOM      7  C   UNL     1       1.466   8.494  20.319  0.00  0.00    +0.000 A 
ATOM      8  C   UNL     1       2.047   7.228  20.352  0.00  0.00    +0.000 A 
ATOM      9  C   UNL     1       2.746   6.817  19.215  0.00  0.00    +0.000 A 
ATOM     10  C   UNL     1       2.697   7.621  18.072  0.00  0.00    +0.000 A 
ATOM     11  N   UNL     1       2.069   8.826  17.966  0.00  0.00    +0.000 NA
ATOM     12  C   UNL     1       1.502   9.198  19.132  0.00  0.00    +0.000 A 
ATOM     13  H   UNL     1      -0.765  12.026  20.730  0.00  0.00    +0.000 HD
ENDROOT
BRANCH   9  14
ATOM     14  C   UNL     1       3.489   5.540  19.135  0.00  0.00    +0.000 C 
ATOM     15  O   UNL     1       4.643   5.548  19.566  0.00  0.00    +0.000 OA
ATOM     16  N   UNL     1       2.895   4.386  18.627  0.00  0.00    +0.000 N 
ATOM     17  C   UNL     1       1.501   4.197  18.196  0.00  0.00    +0.000 C 
ATOM     18  C   UNL     1       0.903   2.899  18.745  0.00  0.00    +0.000 C 
ATOM     19  O   UNL     1       1.742   1.770  18.478  0.00  0.00    +0.000 OA
ATOM     20  C   UNL     1       3.043   1.964  19.055  0.00  0.00    +0.000 C 
ATOM     21  C   UNL     1       3.726   3.191  18.446  0.00  0.00    +0.000 C 
ENDBRANCH   9  14
BRANCH   4  22
ATOM     22  C   UNL     1      -1.702  12.225  23.146  0.00  0.00    +0.000 A 
ATOM     23  C   UNL     1      -1.198  13.492  23.497  0.00  0.00    +0.000 A 
ATOM     24  C   UNL     1      -2.043  14.463  24.032  0.00  0.00    +0.000 A 
ATOM     25  C   UNL     1      -3.390  14.179  24.234  0.00  0.00    +0.000 A 
ATOM     26  C   UNL     1      -3.895  12.916  23.914  0.00  0.00    +0.000 A 
ATOM     27  C   UNL     1      -3.055  11.940  23.362  0.00  0.00    +0.000 A 
BRANCH  26  28
ATOM     28  C   UNL     1      -5.271  12.618  24.187  0.00  0.00    +0.000 C 
ATOM     29  N   UNL     1      -6.386  12.379  24.398  0.00  0.00    +0.000 NA
ENDBRANCH  26  28
ENDBRANCH   4  22
BRANCH   1  30
ATOM     30  C   UNL     1       0.290  11.183  18.309  0.00  0.00    +0.000 C 
BRANCH  30  31
ATOM     31  C   UNL     1       0.814  12.612  18.490  0.00  0.00    +0.000 C 
BRANCH  31  32
ATOM     32  C   UNL     1       2.313  12.714  18.222  0.00  0.00    +0.000 C 
BRANCH  32  33
ATOM     33  O   UNL     1       2.946  13.557  19.189  0.00  0.00    +0.000 OA
BRANCH  33  35
ATOM     34  C   UNL     1       2.543  14.799  21.188  0.00  0.00    +0.000 C 
ATOM     35  C   UNL     1       2.306  13.493  20.465  0.00  0.00    +0.000 C 
ENDBRANCH  33  35
ENDBRANCH  32  33
ENDBRANCH  31  32
ENDBRANCH  30  31
ENDBRANCH   1  30
TORSDOF 8
ENDMDL
MODEL 7
REMARK VINA RESULT:      -7.9      1.618      2.363
REMARK  Name = 
REMARK  9 active torsions:
REMARK  status: ('A' for Active; 'I' for Inactive)
REMARK    1  A    between atoms: C_1  and  C_2
REMARK    2  A    between atoms: C_2  and  O_3
REMARK    3  A    between atoms: O_3  and  C_4
REMARK    4  A    between atoms: C_4  and  C_5
REMARK    5  A    between atoms: C_5  and  C_6
REMARK    6  A    between atoms: C_6  and  N_7
REMARK    7  A    between atoms: C_10  and  C_12
REMARK    8  A    between atoms: C_16  and  C_17
REMARK    9  A    between atoms: C_23  and  C_24
REMARK                            x       y       z     vdW  Elec       q    Type
REMARK                         _______ _______ _______ _____ _____    ______ ____
ROOT
ATOM      1  N   UNL     1       0.294  10.455  19.256  0.00  0.00    +0.000 N 
ATOM      2  C   UNL     1       0.080  10.507  20.623  0.00  0.00    +0.000 A 
ATOM      3  N   UNL     1      -0.706  11.458  21.243  0.00  0.00    +0.000 N 
ATOM      4  C   UNL     1      -0.884  11.450  22.619  0.00  0.00    +0.000 C 
ATOM      5  O   UNL     1      -0.310  10.737  23.437  0.00  0.00    +0.000 OA
ATOM      6  N   UNL     1       0.664   9.481  21.208  0.00  0.00    +0.000 NA
ATOM      7  C   UNL     1       1.266   8.763  20.219  0.00  0.00    +0.000 A 
ATOM      8  C   UNL     1       1.950   7.550  20.261  0.00  0.00    +0.000 A 
ATOM      9  C   UNL     1       2.548   7.114  19.078  0.00  0.00    +0.000 A 
ATOM     10  C   UNL     1       2.305   7.830  17.901  0.00  0.00    +0.000 A 
ATOM     11  N   UNL     1       1.572   8.974  17.796  0.00  0.00    +0.000 NA
ATOM     12  C   UNL     1       1.109   9.383  18.995  0.00  0.00    +0.000 A 
ATOM     13  H   UNL     1      -1.190  12.137  20.672  0.00  0.00    +0.000 HD
ENDROOT
BRANCH   9  14
ATOM     14  C   UNL     1       3.381   5.894  18.989  0.00  0.00    +0.000 C 
ATOM     15  O   UNL     1       3.029   4.938  19.681  0.00  0.00    +0.000 OA
ATOM     16  N   UNL     1       4.484   5.829  18.140  0.00  0.00    +0.000 N 
ATOM     17  C   UNL     1       4.945   6.837  17.173  0.00  0.00    +0.000 C 
ATOM     18  C   UNL     1       5.292   6.214  15.818  0.00  0.00    +0.000 C 
ATOM     19  O   UNL     1       6.185   5.103  15.955  0.00  0.00    +0.000 OA
ATOM     20  C   UNL     1       5.603   4.094  16.796  0.00  0.00    +0.000 C 
ATOM     21  C   UNL     1       5.347   4.645  18.201  0.00  0.00    +0.000 C 
ENDBRANCH   9  14
BRANCH   4  22
ATOM     22  C   UNL     1      -1.864  12.436  23.165  0.00  0.00    +0.000 A 
ATOM     23  C   UNL     1      -1.374  13.664  23.645  0.00  0.00    +0.000 A 
ATOM     24  C   UNL     1      -2.240  14.589  24.225  0.00  0.00    +0.000 A 
ATOM     25  C   UNL     1      -3.595  14.295  24.344  0.00  0.00    +0.000 A 
ATOM     26  C   UNL     1      -4.087  13.068  23.895  0.00  0.00    +0.000 A 
ATOM     27  C   UNL     1      -3.225  12.139  23.297  0.00  0.00    +0.000 A 
BRANCH  26  28
ATOM     28  C   UNL     1      -5.473  12.753  24.082  0.00  0.00    +0.000 C 
ATOM     29  N   UNL     1      -6.592  12.492  24.242  0.00  0.00    +0.000 NA
ENDBRANCH  26  28
ENDBRANCH   4  22
BRANCH   1  30
ATOM     30  C   UNL     1      -0.348  11.207  18.200  0.00  0.00    +0.000 C 
BRANCH  30  31
ATOM     31  C   UNL     1      -1.701  10.594  17.822  0.00  0.00    +0.000 C 
BRANCH  31  32
ATOM     32  C   UNL     1      -2.860  11.556  18.074  0.00  0.00    +0.000 C 
BRANCH  32  33
ATOM     33  O   UNL     1      -3.082  11.728  19.477  0.00  0.00    +0.000 OA
BRANCH  33  35
ATOM     34  C   UNL     1      -5.276  12.326  20.205  0.00  0.00    +0.000 C 
ATOM     35  C   UNL     1      -3.929  12.845  19.758  0.00  0.00    +0.000 C 
ENDBRANCH  33  35
ENDBRANCH  32  33
ENDBRANCH  31  32
ENDBRANCH  30  31
ENDBRANCH   1  30
TORSDOF 8
ENDMDL
MODEL 8
REMARK VINA RESULT:      -7.9      1.624      2.033
REMARK  Name = 
REMARK  9 active torsions:
REMARK  status: ('A' for Active; 'I' for Inactive)
REMARK    1  A    between atoms: C_1  and  C_2
REMARK    2  A    between atoms: C_2  and  O_3
REMARK    3  A    between atoms: O_3  and  C_4
REMARK    4  A    between atoms: C_4  and  C_5
REMARK    5  A    between atoms: C_5  and  C_6
REMARK    6  A    between atoms: C_6  and  N_7
REMARK    7  A    between atoms: C_10  and  C_12
REMARK    8  A    between atoms: C_16  and  C_17
REMARK    9  A    between atoms: C_23  and  C_24
REMARK                            x       y       z     vdW  Elec       q    Type
REMARK                         _______ _______ _______ _____ _____    ______ ____
ROOT
ATOM      1  N   UNL     1       0.293  10.541  19.337  0.00  0.00    +0.000 N 
ATOM      2  C   UNL     1       0.068  10.568  20.702  0.00  0.00    +0.000 A 
ATOM      3  N   UNL     1      -0.700  11.525  21.337  0.00  0.00    +0.000 N 
ATOM      4  C   UNL     1      -0.891  11.490  22.711  0.00  0.00    +0.000 C 
ATOM      5  O   UNL     1      -0.343  10.745  23.517  0.00  0.00    +0.000 OA
ATOM      6  N   UNL     1       0.620   9.514  21.269  0.00  0.00    +0.000 NA
ATOM      7  C   UNL     1       1.211   8.803  20.269  0.00  0.00    +0.000 A 
ATOM      8  C   UNL     1       1.864   7.572  20.290  0.00  0.00    +0.000 A 
ATOM      9  C   UNL     1       2.462   7.147  19.102  0.00  0.00    +0.000 A 
ATOM     10  C   UNL     1       2.248   7.895  17.940  0.00  0.00    +0.000 A 
ATOM     11  N   UNL     1       1.546   9.060  17.855  0.00  0.00    +0.000 NA
ATOM     12  C   UNL     1       1.083   9.454  19.058  0.00  0.00    +0.000 A 
ATOM     13  H   UNL     1      -1.161  12.229  20.777  0.00  0.00    +0.000 HD
ENDROOT
BRANCH   9  14
ATOM     14  C   UNL     1       3.264   5.908  18.993  0.00  0.00    +0.000 C 
ATOM     15  O   UNL     1       4.442   6.044  18.662  0.00  0.00    +0.000 OA
ATOM     16  N   UNL     1       2.714   4.661  19.285  0.00  0.00    +0.000 N 
ATOM     17  C   UNL     1       1.373   4.360  19.808  0.00  0.00    +0.000 C 
ATOM     18  C   UNL     1       1.420   3.345  20.953  0.00  0.00    +0.000 C 
ATOM     19  O   UNL     1       2.171   2.178  20.603  0.00  0.00    +0.000 OA
ATOM     20  C   UNL     1       3.515   2.537  20.244  0.00  0.00    +0.000 C 
ATOM     21  C   UNL     1       3.519   3.463  19.025  0.00  0.00    +0.000 C 
ENDBRANCH   9  14
BRANCH   4  22
ATOM     22  C   UNL     1      -1.850  12.488  23.270  0.00  0.00    +0.000 A 
ATOM     23  C   UNL     1      -3.175  12.078  23.504  0.00  0.00    +0.000 A 
ATOM     24  C   UNL     1      -4.124  12.990  23.962  0.00  0.00    +0.000 A 
ATOM     25  C   UNL     1      -3.768  14.317  24.177  0.00  0.00    +0.000 A 
ATOM     26  C   UNL     1      -2.461  14.741  23.922  0.00  0.00    +0.000 A 
ATOM     27  C   UNL     1      -1.498  13.827  23.476  0.00  0.00    +0.000 A 
BRANCH  26  28
ATOM     28  C   UNL     1      -2.125  16.125  24.087  0.00  0.00    +0.000 C 
ATOM     29  N   UNL     1      -1.848  17.243  24.229  0.00  0.00    +0.000 NA
ENDBRANCH  26  28
ENDBRANCH   4  22
BRANCH   1  30
ATOM     30  C   UNL     1      -0.319  11.333  18.292  0.00  0.00    +0.000 C 
BRANCH  30  31
ATOM     31  C   UNL     1      -1.622  10.694  17.799  0.00  0.00    +0.000 C 
BRANCH  31  32
ATOM     32  C   UNL     1      -2.856  11.453  18.282  0.00  0.00    +0.000 C 
BRANCH  32  33
ATOM     33  O   UNL     1      -4.049  10.718  17.996  0.00  0.00    +0.000 OA
BRANCH  33  35
ATOM     34  C   UNL     1      -6.361  11.312  18.048  0.00  0.00    +0.000 C 
ATOM     35  C   UNL     1      -5.038  11.521  17.349  0.00  0.00    +0.000 C 
ENDBRANCH  33  35
ENDBRANCH  32  33
ENDBRANCH  31  32
ENDBRANCH  30  31
ENDBRANCH   1  30
TORSDOF 8
ENDMDL
MODEL 9
REMARK VINA RESULT:      -7.9      1.062      1.073
REMARK  Name = 
REMARK  9 active torsions:
REMARK  status: ('A' for Active; 'I' for Inactive)
REMARK    1  A    between atoms: C_1  and  C_2
REMARK    2  A    between atoms: C_2  and  O_3
REMARK    3  A    between atoms: O_3  and  C_4
REMARK    4  A    between atoms: C_4  and  C_5
REMARK    5  A    between atoms: C_5  and  C_6
REMARK    6  A    between atoms: C_6  and  N_7
REMARK    7  A    between atoms: C_10  and  C_12
REMARK    8  A    between atoms: C_16  and  C_17
REMARK    9  A    between atoms: C_23  and  C_24
REMARK                            x       y       z     vdW  Elec       q    Type
REMARK                         _______ _______ _______ _____ _____    ______ ____
ROOT
ATOM      1  N   UNL     1       0.600  10.815  19.224  0.00  0.00    +0.000 N 
ATOM      2  C   UNL     1       0.243  10.716  20.557  0.00  0.00    +0.000 A 
ATOM      3  N   UNL     1      -0.520  11.657  21.221  0.00  0.00    +0.000 N 
ATOM      4  C   UNL     1      -0.848  11.494  22.559  0.00  0.00    +0.000 C 
ATOM      5  O   UNL     1      -0.433  10.629  23.324  0.00  0.00    +0.000 OA
ATOM      6  N   UNL     1       0.666   9.570  21.051  0.00  0.00    +0.000 NA
ATOM      7  C   UNL     1       1.306   8.925  20.037  0.00  0.00    +0.000 A 
ATOM      8  C   UNL     1       1.871   7.653  19.980  0.00  0.00    +0.000 A 
ATOM      9  C   UNL     1       2.555   7.310  18.813  0.00  0.00    +0.000 A 
ATOM     10  C   UNL     1       2.507   8.190  17.727  0.00  0.00    +0.000 A 
ATOM     11  N   UNL     1       1.894   9.407  17.707  0.00  0.00    +0.000 NA
ATOM     12  C   UNL     1       1.341   9.707  18.900  0.00  0.00    +0.000 A 
ATOM     13  H   UNL     1      -0.876  12.449  20.704  0.00  0.00    +0.000 HD
ENDROOT
BRANCH   9  14
ATOM     14  C   UNL     1       3.281   6.032  18.641  0.00  0.00    +0.000 C 
ATOM     15  O   UNL     1       4.323   6.077  17.985  0.00  0.00    +0.000 OA
ATOM     16  N   UNL     1       2.820   4.852  19.222  0.00  0.00    +0.000 N 
ATOM     17  C   UNL     1       1.672   4.673  20.124  0.00  0.00    +0.000 C 
ATOM     18  C   UNL     1       2.023   3.795  21.328  0.00  0.00    +0.000 C 
ATOM     19  O   UNL     1       2.634   2.563  20.930  0.00  0.00    +0.000 OA
ATOM     20  C   UNL     1       3.830   2.818  20.176  0.00  0.00    +0.000 C 
ATOM     21  C   UNL     1       3.507   3.598  18.900  0.00  0.00    +0.000 C 
ENDBRANCH   9  14
BRANCH   4  22
ATOM     22  C   UNL     1      -1.790  12.498  23.136  0.00  0.00    +0.000 A 
ATOM     23  C   UNL     1      -1.256  13.694  23.651  0.00  0.00    +0.000 A 
ATOM     24  C   UNL     1      -2.087  14.632  24.259  0.00  0.00    +0.000 A 
ATOM     25  C   UNL     1      -3.451  14.384  24.373  0.00  0.00    +0.000 A 
ATOM     26  C   UNL     1      -3.988  13.189  23.889  0.00  0.00    +0.000 A 
ATOM     27  C   UNL     1      -3.162  12.247  23.262  0.00  0.00    +0.000 A 
BRANCH  26  28
ATOM     28  C   UNL     1      -5.385  12.920  24.070  0.00  0.00    +0.000 C 
ATOM     29  N   UNL     1      -6.514  12.704  24.227  0.00  0.00    +0.000 NA
ENDBRANCH  26  28
ENDBRANCH   4  22
BRANCH   1  30
ATOM     30  C   UNL     1       0.148  11.757  18.222  0.00  0.00    +0.000 C 
BRANCH  30  31
ATOM     31  C   UNL     1      -1.373  11.942  18.278  0.00  0.00    +0.000 C 
BRANCH  31  32
ATOM     32  C   UNL     1      -2.085  11.200  17.149  0.00  0.00    +0.000 C 
BRANCH  32  33
ATOM     33  O   UNL     1      -3.503  11.232  17.336  0.00  0.00    +0.000 OA
BRANCH  33  35
ATOM     34  C   UNL     1      -3.282  10.382  15.116  0.00  0.00    +0.000 C 
ATOM     35  C   UNL     1      -4.216  11.026  16.115  0.00  0.00    +0.000 C 
ENDBRANCH  33  35
ENDBRANCH  32  33
ENDBRANCH  31  32
ENDBRANCH  30  31
ENDBRANCH   1  30
TORSDOF 8
ENDMDL
