MODEL 1
REMARK VINA RESULT:      -6.7      0.000      0.000
REMARK  Name = 
REMARK  11 active torsions:
REMARK  status: ('A' for Active; 'I' for Inactive)
REMARK    1  A    between atoms: C_1  and  S_2
REMARK    2  A    between atoms: S_2  and  C_3
REMARK    3  A    between atoms: C_5  and  C_6
REMARK    4  A    between atoms: C_6  and  C_7
REMARK    5  A    between atoms: C_6  and  C_8
REMARK    6  A    between atoms: C_6  and  C_9
REMARK    7  A    between atoms: C_11  and  O_12
REMARK    8  A    between atoms: O_12  and  C_13
REMARK    9  A    between atoms: C_13  and  C_14
REMARK   10  A    between atoms: C_14  and  O_16
REMARK   11  A    between atoms: C_17  and  C_18
REMARK                            x       y       z     vdW  Elec       q    Type
REMARK                         _______ _______ _______ _____ _____    ______ ____
ROOT
ATOM      1  C   UNL     1       4.297   3.637  19.721  0.00  0.00    +0.000 A 
ATOM      2  N   UNL     1       5.435   4.053  19.121  0.00  0.00    +0.000 NA
ATOM      3  C   UNL     1       5.505   5.314  18.700  0.00  0.00    +0.000 A 
ATOM      4  N   UNL     1       4.456   6.149  18.762  0.00  0.00    +0.000 NA
ATOM      5  C   UNL     1       3.307   5.736  19.371  0.00  0.00    +0.000 A 
ATOM      6  C   UNL     1       3.198   4.467  19.961  0.00  0.00    +0.000 A 
ENDROOT
BRANCH   6   7
ATOM      7  C   UNL     1       2.044   4.011  20.803  0.00  0.00    +0.000 C 
ATOM      8  N   UNL     1       0.774   4.029  20.290  0.00  0.00    +0.000 N 
ATOM      9  O   UNL     1       2.135   3.612  21.952  0.00  0.00    +0.000 OA
ATOM     10  H   UNL     1       0.520   4.636  19.518  0.00  0.00    +0.000 HD
ATOM     11  H   UNL     1       0.043   3.840  20.968  0.00  0.00    +0.000 HD
ENDBRANCH   6   7
BRANCH   3  12
ATOM     12  C   UNL     1       6.808   5.767  18.030  0.00  0.00    +0.000 C 
ATOM     13  C   UNL     1       7.291   4.660  17.079  0.00  0.00    +0.000 C 
ATOM     14  C   UNL     1       6.598   7.069  17.239  0.00  0.00    +0.000 C 
ATOM     15  C   UNL     1       7.920   6.030  19.074  0.00  0.00    +0.000 C 
ENDBRANCH   3  12
BRANCH   1  17
ATOM     16  C   UNL     1       3.671   1.163  18.601  0.00  0.00    +0.000 C 
ATOM     17  S   UNL     1       4.351   1.879  20.123  0.00  0.00    +0.000 S 
ENDBRANCH   1  17
BRANCH   5  18
ATOM     18  O   UNL     1       2.407   6.766  19.317  0.00  0.00    +0.000 OA
BRANCH  18  19
ATOM     19  C   UNL     1       2.529   7.731  18.284  0.00  0.00    +0.000 C 
BRANCH  19  20
ATOM     20  C   UNL     1       1.738   9.025  18.446  0.00  0.00    +0.000 C 
ATOM     21  O   UNL     1       1.092   9.301  19.446  0.00  0.00    +0.000 OA
BRANCH  20  22
ATOM     22  O   UNL     1       1.810   9.854  17.382  0.00  0.00    +0.000 OA
ATOM     23  H   UNL     1       2.044   9.353  16.566  0.00  0.00    +0.000 HD
ENDBRANCH  20  22
ENDBRANCH  19  20
ENDBRANCH  18  19
ENDBRANCH   5  18
TORSDOF 7
ENDMDL
MODEL 2
REMARK VINA RESULT:      -6.6      3.598      6.189
REMARK  Name = 
REMARK  11 active torsions:
REMARK  status: ('A' for Active; 'I' for Inactive)
REMARK    1  A    between atoms: C_1  and  S_2
REMARK    2  A    between atoms: S_2  and  C_3
REMARK    3  A    between atoms: C_5  and  C_6
REMARK    4  A    between atoms: C_6  and  C_7
REMARK    5  A    between atoms: C_6  and  C_8
REMARK    6  A    between atoms: C_6  and  C_9
REMARK    7  A    between atoms: C_11  and  O_12
REMARK    8  A    between atoms: O_12  and  C_13
REMARK    9  A    between atoms: C_13  and  C_14
REMARK   10  A    between atoms: C_14  and  O_16
REMARK   11  A    between atoms: C_17  and  C_18
REMARK                            x       y       z     vdW  Elec       q    Type
REMARK                         _______ _______ _______ _____ _____    ______ ____
ROOT
ATOM      1  C   UNL     1       3.251   6.287  17.966  0.00  0.00    +0.000 A 
ATOM      2  N   UNL     1       2.536   5.496  18.797  0.00  0.00    +0.000 NA
ATOM      3  C   UNL     1       2.768   4.186  18.779  0.00  0.00    +0.000 A 
ATOM      4  N   UNL     1       3.609   3.619  17.901  0.00  0.00    +0.000 NA
ATOM      5  C   UNL     1       4.337   4.413  17.063  0.00  0.00    +0.000 A 
ATOM      6  C   UNL     1       4.250   5.813  17.112  0.00  0.00    +0.000 A 
ENDROOT
BRANCH   6   7
ATOM      7  C   UNL     1       5.145   6.753  16.359  0.00  0.00    +0.000 C 
ATOM      8  N   UNL     1       6.255   7.275  16.970  0.00  0.00    +0.000 N 
ATOM      9  O   UNL     1       4.967   7.113  15.208  0.00  0.00    +0.000 OA
ATOM     10  H   UNL     1       6.327   7.339  17.979  0.00  0.00    +0.000 HD
ATOM     11  H   UNL     1       6.722   8.005  16.441  0.00  0.00    +0.000 HD
ENDBRANCH   6   7
BRANCH   3  12
ATOM     12  C   UNL     1       1.952   3.307  19.736  0.00  0.00    +0.000 C 
ATOM     13  C   UNL     1       0.867   4.170  20.402  0.00  0.00    +0.000 C 
ATOM     14  C   UNL     1       1.291   2.139  18.985  0.00  0.00    +0.000 C 
ATOM     15  C   UNL     1       2.842   2.703  20.848  0.00  0.00    +0.000 C 
ENDBRANCH   3  12
BRANCH   1  17
ATOM     16  C   UNL     1       1.921   8.034  19.682  0.00  0.00    +0.000 C 
ATOM     17  S   UNL     1       2.722   8.011  18.055  0.00  0.00    +0.000 S 
ENDBRANCH   1  17
BRANCH   5  18
ATOM     18  O   UNL     1       5.122   3.602  16.288  0.00  0.00    +0.000 OA
BRANCH  18  19
ATOM     19  C   UNL     1       6.470   3.976  16.049  0.00  0.00    +0.000 C 
BRANCH  19  20
ATOM     20  C   UNL     1       6.838   4.379  14.626  0.00  0.00    +0.000 C 
ATOM     21  O   UNL     1       6.441   3.788  13.633  0.00  0.00    +0.000 OA
BRANCH  20  22
ATOM     22  O   UNL     1       7.648   5.456  14.548  0.00  0.00    +0.000 OA
ATOM     23  H   UNL     1       8.501   5.219  14.112  0.00  0.00    +0.000 HD
ENDBRANCH  20  22
ENDBRANCH  19  20
ENDBRANCH  18  19
ENDBRANCH   5  18
TORSDOF 7
ENDMDL
MODEL 3
REMARK VINA RESULT:      -6.6      3.614      6.208
REMARK  Name = 
REMARK  11 active torsions:
REMARK  status: ('A' for Active; 'I' for Inactive)
REMARK    1  A    between atoms: C_1  and  S_2
REMARK    2  A    between atoms: S_2  and  C_3
REMARK    3  A    between atoms: C_5  and  C_6
REMARK    4  A    between atoms: C_6  and  C_7
REMARK    5  A    between atoms: C_6  and  C_8
REMARK    6  A    between atoms: C_6  and  C_9
REMARK    7  A    between atoms: C_11  and  O_12
REMARK    8  A    between atoms: O_12  and  C_13
REMARK    9  A    between atoms: C_13  and  C_14
REMARK   10  A    between atoms: C_14  and  O_16
REMARK   11  A    between atoms: C_17  and  C_18
REMARK                            x       y       z     vdW  Elec       q    Type
REMARK                         _______ _______ _______ _____ _____    ______ ____
ROOT
ATOM      1  C   UNL     1       3.246   6.301  17.930  0.00  0.00    +0.000 A 
ATOM      2  N   UNL     1       2.538   5.515  18.771  0.00  0.00    +0.000 NA
ATOM      3  C   UNL     1       2.779   4.206  18.767  0.00  0.00    +0.000 A 
ATOM      4  N   UNL     1       3.623   3.635  17.894  0.00  0.00    +0.000 NA
ATOM      5  C   UNL     1       4.344   4.425  17.046  0.00  0.00    +0.000 A 
ATOM      6  C   UNL     1       4.248   5.825  17.080  0.00  0.00    +0.000 A 
ENDROOT
BRANCH   6   7
ATOM      7  C   UNL     1       5.135   6.762  16.316  0.00  0.00    +0.000 C 
ATOM      8  N   UNL     1       6.279   7.246  16.896  0.00  0.00    +0.000 N 
ATOM      9  O   UNL     1       4.923   7.153  15.180  0.00  0.00    +0.000 OA
ATOM     10  H   UNL     1       6.389   7.285  17.902  0.00  0.00    +0.000 HD
ATOM     11  H   UNL     1       6.742   7.977  16.366  0.00  0.00    +0.000 HD
ENDBRANCH   6   7
BRANCH   3  12
ATOM     12  C   UNL     1       1.971   3.333  19.735  0.00  0.00    +0.000 C 
ATOM     13  C   UNL     1       1.222   2.258  18.930  0.00  0.00    +0.000 C 
ATOM     14  C   UNL     1       2.889   2.656  20.767  0.00  0.00    +0.000 C 
ATOM     15  C   UNL     1       0.928   4.168  20.515  0.00  0.00    +0.000 C 
ENDBRANCH   3  12
BRANCH   1  17
ATOM     16  C   UNL     1       1.908   8.058  19.629  0.00  0.00    +0.000 C 
ATOM     17  S   UNL     1       2.706   8.022  18.001  0.00  0.00    +0.000 S 
ENDBRANCH   1  17
BRANCH   5  18
ATOM     18  O   UNL     1       5.134   3.611  16.279  0.00  0.00    +0.000 OA
BRANCH  18  19
ATOM     19  C   UNL     1       6.498   3.954  16.094  0.00  0.00    +0.000 C 
BRANCH  19  20
ATOM     20  C   UNL     1       6.927   4.364  14.690  0.00  0.00    +0.000 C 
ATOM     21  O   UNL     1       7.636   5.333  14.457  0.00  0.00    +0.000 OA
BRANCH  20  22
ATOM     22  O   UNL     1       6.457   3.563  13.711  0.00  0.00    +0.000 OA
ATOM     23  H   UNL     1       5.489   3.702  13.582  0.00  0.00    +0.000 HD
ENDBRANCH  20  22
ENDBRANCH  19  20
ENDBRANCH  18  19
ENDBRANCH   5  18
TORSDOF 7
ENDMDL
MODEL 4
REMARK VINA RESULT:      -6.5      3.633      6.204
REMARK  Name = 
REMARK  11 active torsions:
REMARK  status: ('A' for Active; 'I' for Inactive)
REMARK    1  A    between atoms: C_1  and  S_2
REMARK    2  A    between atoms: S_2  and  C_3
REMARK    3  A    between atoms: C_5  and  C_6
REMARK    4  A    between atoms: C_6  and  C_7
REMARK    5  A    between atoms: C_6  and  C_8
REMARK    6  A    between atoms: C_6  and  C_9
REMARK    7  A    between atoms: C_11  and  O_12
REMARK    8  A    between atoms: O_12  and  C_13
REMARK    9  A    between atoms: C_13  and  C_14
REMARK   10  A    between atoms: C_14  and  O_16
REMARK   11  A    between atoms: C_17  and  C_18
REMARK                            x       y       z     vdW  Elec       q    Type
REMARK                         _______ _______ _______ _____ _____    ______ ____
ROOT
ATOM      1  C   UNL     1       3.336   6.277  17.942  0.00  0.00    +0.000 A 
ATOM      2  N   UNL     1       2.599   5.485  18.751  0.00  0.00    +0.000 NA
ATOM      3  C   UNL     1       2.905   4.191  18.821  0.00  0.00    +0.000 A 
ATOM      4  N   UNL     1       3.849   3.636  18.046  0.00  0.00    +0.000 NA
ATOM      5  C   UNL     1       4.600   4.432  17.231  0.00  0.00    +0.000 A 
ATOM      6  C   UNL     1       4.431   5.824  17.199  0.00  0.00    +0.000 A 
ENDROOT
BRANCH   6   7
ATOM      7  C   UNL     1       5.332   6.780  16.476  0.00  0.00    +0.000 C 
ATOM      8  N   UNL     1       6.432   7.295  17.110  0.00  0.00    +0.000 N 
ATOM      9  O   UNL     1       5.169   7.159  15.328  0.00  0.00    +0.000 OA
ATOM     10  H   UNL     1       6.490   7.342  18.121  0.00  0.00    +0.000 HD
ATOM     11  H   UNL     1       6.904   8.035  16.600  0.00  0.00    +0.000 HD
ENDBRANCH   6   7
BRANCH   3  12
ATOM     12  C   UNL     1       2.061   3.311  19.751  0.00  0.00    +0.000 C 
ATOM     13  C   UNL     1       2.979   2.684  20.813  0.00  0.00    +0.000 C 
ATOM     14  C   UNL     1       0.961   4.135  20.443  0.00  0.00    +0.000 C 
ATOM     15  C   UNL     1       1.367   2.167  18.974  0.00  0.00    +0.000 C 
ENDBRANCH   3  12
BRANCH   1  17
ATOM     16  C   UNL     1       1.907   8.074  19.522  0.00  0.00    +0.000 C 
ATOM     17  S   UNL     1       2.706   7.968  17.897  0.00  0.00    +0.000 S 
ENDBRANCH   1  17
BRANCH   5  18
ATOM     18  O   UNL     1       5.493   3.634  16.567  0.00  0.00    +0.000 OA
BRANCH  18  19
ATOM     19  C   UNL     1       5.435   3.570  15.151  0.00  0.00    +0.000 C 
BRANCH  19  20
ATOM     20  C   UNL     1       6.589   4.200  14.379  0.00  0.00    +0.000 C 
ATOM     21  O   UNL     1       6.715   4.118  13.166  0.00  0.00    +0.000 OA
BRANCH  20  22
ATOM     22  O   UNL     1       7.474   4.866  15.152  0.00  0.00    +0.000 OA
ATOM     23  H   UNL     1       8.329   4.378  15.202  0.00  0.00    +0.000 HD
ENDBRANCH  20  22
ENDBRANCH  19  20
ENDBRANCH  18  19
ENDBRANCH   5  18
TORSDOF 7
ENDMDL
MODEL 5
REMARK VINA RESULT:      -6.4      3.645      6.179
REMARK  Name = 
REMARK  11 active torsions:
REMARK  status: ('A' for Active; 'I' for Inactive)
REMARK    1  A    between atoms: C_1  and  S_2
REMARK    2  A    between atoms: S_2  and  C_3
REMARK    3  A    between atoms: C_5  and  C_6
REMARK    4  A    between atoms: C_6  and  C_7
REMARK    5  A    between atoms: C_6  and  C_8
REMARK    6  A    between atoms: C_6  and  C_9
REMARK    7  A    between atoms: C_11  and  O_12
REMARK    8  A    between atoms: O_12  and  C_13
REMARK    9  A    between atoms: C_13  and  C_14
REMARK   10  A    between atoms: C_14  and  O_16
REMARK   11  A    between atoms: C_17  and  C_18
REMARK                            x       y       z     vdW  Elec       q    Type
REMARK                         _______ _______ _______ _____ _____    ______ ____
ROOT
ATOM      1  C   UNL     1       3.284   6.284  17.981  0.00  0.00    +0.000 A 
ATOM      2  N   UNL     1       2.556   5.480  18.788  0.00  0.00    +0.000 NA
ATOM      3  C   UNL     1       2.790   4.170  18.755  0.00  0.00    +0.000 A 
ATOM      4  N   UNL     1       3.649   3.618  17.884  0.00  0.00    +0.000 NA
ATOM      5  C   UNL     1       4.390   4.425  17.071  0.00  0.00    +0.000 A 
ATOM      6  C   UNL     1       4.299   5.824  17.138  0.00  0.00    +0.000 A 
ENDROOT
BRANCH   6   7
ATOM      7  C   UNL     1       5.206   6.776  16.416  0.00  0.00    +0.000 C 
ATOM      8  N   UNL     1       4.985   7.060  15.094  0.00  0.00    +0.000 N 
ATOM      9  O   UNL     1       6.164   7.341  16.916  0.00  0.00    +0.000 OA
ATOM     10  H   UNL     1       4.470   6.427  14.492  0.00  0.00    +0.000 HD
ATOM     11  H   UNL     1       5.722   7.599  14.650  0.00  0.00    +0.000 HD
ENDBRANCH   6   7
BRANCH   3  12
ATOM     12  C   UNL     1       1.959   3.277  19.684  0.00  0.00    +0.000 C 
ATOM     13  C   UNL     1       2.871   2.726  20.793  0.00  0.00    +0.000 C 
ATOM     14  C   UNL     1       0.799   4.065  20.315  0.00  0.00    +0.000 C 
ATOM     15  C   UNL     1       1.348   2.078  18.919  0.00  0.00    +0.000 C 
ENDBRANCH   3  12
BRANCH   1  17
ATOM     16  C   UNL     1       1.904   7.999  19.690  0.00  0.00    +0.000 C 
ATOM     17  S   UNL     1       2.751   8.005  18.087  0.00  0.00    +0.000 S 
ENDBRANCH   1  17
BRANCH   5  18
ATOM     18  O   UNL     1       5.190   3.627  16.298  0.00  0.00    +0.000 OA
BRANCH  18  19
ATOM     19  C   UNL     1       6.530   4.026  16.056  0.00  0.00    +0.000 C 
BRANCH  19  20
ATOM     20  C   UNL     1       6.906   4.359  14.616  0.00  0.00    +0.000 C 
ATOM     21  O   UNL     1       7.590   5.322  14.302  0.00  0.00    +0.000 OA
BRANCH  20  22
ATOM     22  O   UNL     1       6.416   3.494  13.702  0.00  0.00    +0.000 OA
ATOM     23  H   UNL     1       5.579   3.083  14.024  0.00  0.00    +0.000 HD
ENDBRANCH  20  22
ENDBRANCH  19  20
ENDBRANCH  18  19
ENDBRANCH   5  18
TORSDOF 7
ENDMDL
MODEL 6
REMARK VINA RESULT:      -6.4      3.838      6.242
REMARK  Name = 
REMARK  11 active torsions:
REMARK  status: ('A' for Active; 'I' for Inactive)
REMARK    1  A    between atoms: C_1  and  S_2
REMARK    2  A    between atoms: S_2  and  C_3
REMARK    3  A    between atoms: C_5  and  C_6
REMARK    4  A    between atoms: C_6  and  C_7
REMARK    5  A    between atoms: C_6  and  C_8
REMARK    6  A    between atoms: C_6  and  C_9
REMARK    7  A    between atoms: C_11  and  O_12
REMARK    8  A    between atoms: O_12  and  C_13
REMARK    9  A    between atoms: C_13  and  C_14
REMARK   10  A    between atoms: C_14  and  O_16
REMARK   11  A    between atoms: C_17  and  C_18
REMARK                            x       y       z     vdW  Elec       q    Type
REMARK                         _______ _______ _______ _____ _____    ______ ____
ROOT
ATOM      1  C   UNL     1       3.548   5.813  17.750  0.00  0.00    +0.000 A 
ATOM      2  N   UNL     1       2.923   4.837  18.446  0.00  0.00    +0.000 NA
ATOM      3  C   UNL     1       3.323   3.579  18.271  0.00  0.00    +0.000 A 
ATOM      4  N   UNL     1       4.251   3.242  17.363  0.00  0.00    +0.000 NA
ATOM      5  C   UNL     1       4.889   4.224  16.661  0.00  0.00    +0.000 A 
ATOM      6  C   UNL     1       4.620   5.583  16.883  0.00  0.00    +0.000 A 
ENDROOT
BRANCH   6   7
ATOM      7  C   UNL     1       5.403   6.718  16.291  0.00  0.00    +0.000 C 
ATOM      8  N   UNL     1       6.441   7.271  16.994  0.00  0.00    +0.000 N 
ATOM      9  O   UNL     1       5.190   7.217  15.199  0.00  0.00    +0.000 OA
ATOM     10  H   UNL     1       6.500   7.197  18.003  0.00  0.00    +0.000 HD
ATOM     11  H   UNL     1       6.822   8.118  16.584  0.00  0.00    +0.000 HD
ENDBRANCH   6   7
BRANCH   3  12
ATOM     12  C   UNL     1       2.606   2.489  19.076  0.00  0.00    +0.000 C 
ATOM     13  C   UNL     1       3.302   1.142  18.822  0.00  0.00    +0.000 C 
ATOM     14  C   UNL     1       2.631   2.806  20.581  0.00  0.00    +0.000 C 
ATOM     15  C   UNL     1       1.123   2.355  18.653  0.00  0.00    +0.000 C 
ENDBRANCH   3  12
BRANCH   1  17
ATOM     16  C   UNL     1       2.217   7.236  19.742  0.00  0.00    +0.000 C 
ATOM     17  S   UNL     1       2.798   7.430  18.035  0.00  0.00    +0.000 S 
ENDBRANCH   1  17
BRANCH   5  18
ATOM     18  O   UNL     1       5.790   3.626  15.822  0.00  0.00    +0.000 OA
BRANCH  18  19
ATOM     19  C   UNL     1       5.665   3.830  14.423  0.00  0.00    +0.000 C 
BRANCH  19  20
ATOM     20  C   UNL     1       6.852   4.462  13.705  0.00  0.00    +0.000 C 
ATOM     21  O   UNL     1       7.126   4.244  12.533  0.00  0.00    +0.000 OA
BRANCH  20  22
ATOM     22  O   UNL     1       7.587   5.292  14.475  0.00  0.00    +0.000 OA
ATOM     23  H   UNL     1       7.880   6.079  13.957  0.00  0.00    +0.000 HD
ENDBRANCH  20  22
ENDBRANCH  19  20
ENDBRANCH  18  19
ENDBRANCH   5  18
TORSDOF 7
ENDMDL
MODEL 7
REMARK VINA RESULT:      -6.4      1.126      1.621
REMARK  Name = 
REMARK  11 active torsions:
REMARK  status: ('A' for Active; 'I' for Inactive)
REMARK    1  A    between atoms: C_1  and  S_2
REMARK    2  A    between atoms: S_2  and  C_3
REMARK    3  A    between atoms: C_5  and  C_6
REMARK    4  A    between atoms: C_6  and  C_7
REMARK    5  A    between atoms: C_6  and  C_8
REMARK    6  A    between atoms: C_6  and  C_9
REMARK    7  A    between atoms: C_11  and  O_12
REMARK    8  A    between atoms: O_12  and  C_13
REMARK    9  A    between atoms: C_13  and  C_14
REMARK   10  A    between atoms: C_14  and  O_16
REMARK   11  A    between atoms: C_17  and  C_18
REMARK                            x       y       z     vdW  Elec       q    Type
REMARK                         _______ _______ _______ _____ _____    ______ ____
ROOT
ATOM      1  C   UNL     1       4.196   3.808  19.313  0.00  0.00    +0.000 A 
ATOM      2  N   UNL     1       5.457   4.173  18.992  0.00  0.00    +0.000 NA
ATOM      3  C   UNL     1       5.642   5.341  18.381  0.00  0.00    +0.000 A 
ATOM      4  N   UNL     1       4.619   6.114  17.988  0.00  0.00    +0.000 NA
ATOM      5  C   UNL     1       3.344   5.753  18.314  0.00  0.00    +0.000 A 
ATOM      6  C   UNL     1       3.073   4.605  19.074  0.00  0.00    +0.000 A 
ENDROOT
BRANCH   6   7
ATOM      7  C   UNL     1       1.726   4.243  19.626  0.00  0.00    +0.000 C 
ATOM      8  N   UNL     1       1.292   4.808  20.797  0.00  0.00    +0.000 N 
ATOM      9  O   UNL     1       0.950   3.456  19.111  0.00  0.00    +0.000 OA
ATOM     10  H   UNL     1       1.942   5.185  21.478  0.00  0.00    +0.000 HD
ATOM     11  H   UNL     1       0.439   4.405  21.168  0.00  0.00    +0.000 HD
ENDBRANCH   6   7
BRANCH   3  12
ATOM     12  C   UNL     1       7.082   5.739  18.033  0.00  0.00    +0.000 C 
ATOM     13  C   UNL     1       7.911   5.792  19.327  0.00  0.00    +0.000 C 
ATOM     14  C   UNL     1       7.714   4.731  17.058  0.00  0.00    +0.000 C 
ATOM     15  C   UNL     1       7.138   7.133  17.363  0.00  0.00    +0.000 C 
ENDBRANCH   3  12
BRANCH   1  17
ATOM     16  C   UNL     1       3.666   1.171  18.584  0.00  0.00    +0.000 C 
ATOM     17  S   UNL     1       4.135   2.155  20.033  0.00  0.00    +0.000 S 
ENDBRANCH   1  17
BRANCH   5  18
ATOM     18  O   UNL     1       2.495   6.706  17.817  0.00  0.00    +0.000 OA
BRANCH  18  19
ATOM     19  C   UNL     1       2.608   8.040  18.289  0.00  0.00    +0.000 C 
BRANCH  19  20
ATOM     20  C   UNL     1       1.770   8.420  19.505  0.00  0.00    +0.000 C 
ATOM     21  O   UNL     1       0.922   9.300  19.492  0.00  0.00    +0.000 OA
BRANCH  20  22
ATOM     22  O   UNL     1       2.043   7.699  20.613  0.00  0.00    +0.000 OA
ATOM     23  H   UNL     1       3.007   7.495  20.668  0.00  0.00    +0.000 HD
ENDBRANCH  20  22
ENDBRANCH  19  20
ENDBRANCH  18  19
ENDBRANCH   5  18
TORSDOF 7
ENDMDL
MODEL 8
REMARK VINA RESULT:      -6.4      2.639      4.603
REMARK  Name = 
REMARK  11 active torsions:
REMARK  status: ('A' for Active; 'I' for Inactive)
REMARK    1  A    between atoms: C_1  and  S_2
REMARK    2  A    between atoms: S_2  and  C_3
REMARK    3  A    between atoms: C_5  and  C_6
REMARK    4  A    between atoms: C_6  and  C_7
REMARK    5  A    between atoms: C_6  and  C_8
REMARK    6  A    between atoms: C_6  and  C_9
REMARK    7  A    between atoms: C_11  and  O_12
REMARK    8  A    between atoms: O_12  and  C_13
REMARK    9  A    between atoms: C_13  and  C_14
REMARK   10  A    between atoms: C_14  and  O_16
REMARK   11  A    between atoms: C_17  and  C_18
REMARK                            x       y       z     vdW  Elec       q    Type
REMARK                         _______ _______ _______ _____ _____    ______ ____
ROOT
ATOM      1  C   UNL     1       3.385   5.909  18.348  0.00  0.00    +0.000 A 
ATOM      2  N   UNL     1       4.651   6.332  18.134  0.00  0.00    +0.000 NA
ATOM      3  C   UNL     1       5.547   5.452  17.694  0.00  0.00    +0.000 A 
ATOM      4  N   UNL     1       5.260   4.149  17.551  0.00  0.00    +0.000 NA
ATOM      5  C   UNL     1       3.983   3.717  17.760  0.00  0.00    +0.000 A 
ATOM      6  C   UNL     1       2.949   4.605  18.096  0.00  0.00    +0.000 A 
ENDROOT
BRANCH   6   7
ATOM      7  C   UNL     1       1.495   4.241  18.161  0.00  0.00    +0.000 C 
ATOM      8  N   UNL     1       0.938   3.861  19.353  0.00  0.00    +0.000 N 
ATOM      9  O   UNL     1       0.732   4.249  17.210  0.00  0.00    +0.000 OA
ATOM     10  H   UNL     1       1.501   3.488  20.109  0.00  0.00    +0.000 HD
ATOM     11  H   UNL     1      -0.007   3.499  19.280  0.00  0.00    +0.000 HD
ENDBRANCH   6   7
BRANCH   3  12
ATOM     12  C   UNL     1       6.975   5.954  17.451  0.00  0.00    +0.000 C 
ATOM     13  C   UNL     1       7.520   5.306  16.167  0.00  0.00    +0.000 C 
ATOM     14  C   UNL     1       7.005   7.485  17.307  0.00  0.00    +0.000 C 
ATOM     15  C   UNL     1       7.915   5.577  18.621  0.00  0.00    +0.000 C 
ENDBRANCH   3  12
BRANCH   1  17
ATOM     16  C   UNL     1       2.437   8.455  17.725  0.00  0.00    +0.000 C 
ATOM     17  S   UNL     1       2.347   7.212  19.043  0.00  0.00    +0.000 S 
ENDBRANCH   1  17
BRANCH   5  18
ATOM     18  O   UNL     1       3.951   2.367  17.536  0.00  0.00    +0.000 OA
BRANCH  18  19
ATOM     19  C   UNL     1       3.607   1.501  18.607  0.00  0.00    +0.000 C 
BRANCH  19  20
ATOM     20  C   UNL     1       4.066   1.907  20.003  0.00  0.00    +0.000 C 
ATOM     21  O   UNL     1       3.357   2.502  20.801  0.00  0.00    +0.000 OA
BRANCH  20  22
ATOM     22  O   UNL     1       5.336   1.552  20.293  0.00  0.00    +0.000 OA
ATOM     23  H   UNL     1       5.952   2.306  20.138  0.00  0.00    +0.000 HD
ENDBRANCH  20  22
ENDBRANCH  19  20
ENDBRANCH  18  19
ENDBRANCH   5  18
TORSDOF 7
ENDMDL
MODEL 9
REMARK VINA RESULT:      -6.4      0.727      1.315
REMARK  Name = 
REMARK  11 active torsions:
REMARK  status: ('A' for Active; 'I' for Inactive)
REMARK    1  A    between atoms: C_1  and  S_2
REMARK    2  A    between atoms: S_2  and  C_3
REMARK    3  A    between atoms: C_5  and  C_6
REMARK    4  A    between atoms: C_6  and  C_7
REMARK    5  A    between atoms: C_6  and  C_8
REMARK    6  A    between atoms: C_6  and  C_9
REMARK    7  A    between atoms: C_11  and  O_12
REMARK    8  A    between atoms: O_12  and  C_13
REMARK    9  A    between atoms: C_13  and  C_14
REMARK   10  A    between atoms: C_14  and  O_16
REMARK   11  A    between atoms: C_17  and  C_18
REMARK                            x       y       z     vdW  Elec       q    Type
REMARK                         _______ _______ _______ _____ _____    ______ ____
ROOT
ATOM      1  C   UNL     1       4.166   3.835  19.312  0.00  0.00    +0.000 A 
ATOM      2  N   UNL     1       5.198   4.155  18.500  0.00  0.00    +0.000 NA
ATOM      3  C   UNL     1       5.202   5.356  17.925  0.00  0.00    +0.000 A 
ATOM      4  N   UNL     1       4.176   6.212  18.047  0.00  0.00    +0.000 NA
ATOM      5  C   UNL     1       3.134   5.895  18.870  0.00  0.00    +0.000 A 
ATOM      6  C   UNL     1       3.117   4.707  19.616  0.00  0.00    +0.000 A 
ENDROOT
BRANCH   6   7
ATOM      7  C   UNL     1       2.107   4.376  20.674  0.00  0.00    +0.000 C 
ATOM      8  N   UNL     1       0.786   4.235  20.337  0.00  0.00    +0.000 N 
ATOM      9  O   UNL     1       2.361   4.217  21.856  0.00  0.00    +0.000 OA
ATOM     10  H   UNL     1       0.400   4.664  19.503  0.00  0.00    +0.000 HD
ATOM     11  H   UNL     1       0.156   4.150  21.129  0.00  0.00    +0.000 HD
ENDBRANCH   6   7
BRANCH   3  12
ATOM     12  C   UNL     1       6.386   5.702  17.015  0.00  0.00    +0.000 C 
ATOM     13  C   UNL     1       6.927   7.087  17.405  0.00  0.00    +0.000 C 
ATOM     14  C   UNL     1       7.507   4.657  17.144  0.00  0.00    +0.000 C 
ATOM     15  C   UNL     1       5.962   5.748  15.527  0.00  0.00    +0.000 C 
ENDBRANCH   3  12
BRANCH   1  17
ATOM     16  C   UNL     1       3.588   1.233  18.495  0.00  0.00    +0.000 C 
ATOM     17  S   UNL     1       4.280   2.135  19.909  0.00  0.00    +0.000 S 
ENDBRANCH   1  17
BRANCH   5  18
ATOM     18  O   UNL     1       2.237   6.929  18.831  0.00  0.00    +0.000 OA
BRANCH  18  19
ATOM     19  C   UNL     1       2.502   8.038  17.986  0.00  0.00    +0.000 C 
BRANCH  19  20
ATOM     20  C   UNL     1       1.737   9.326  18.270  0.00  0.00    +0.000 C 
ATOM     21  O   UNL     1       1.020   9.484  19.247  0.00  0.00    +0.000 OA
BRANCH  20  22
ATOM     22  O   UNL     1       1.916  10.291  17.343  0.00  0.00    +0.000 OA
ATOM     23  H   UNL     1       2.081   9.895  16.455  0.00  0.00    +0.000 HD
ENDBRANCH  20  22
ENDBRANCH  19  20
ENDBRANCH  18  19
ENDBRANCH   5  18
TORSDOF 7
ENDMDL
