MODEL 1
REMARK VINA RESULT:      -8.2      0.000      0.000
REMARK  Name = 
REMARK  15 active torsions:
REMARK  status: ('A' for Active; 'I' for Inactive)
REMARK    1  A    between atoms: C_1  and  C_2
REMARK    2  A    between atoms: C_2  and  O_3
REMARK    3  A    between atoms: O_3  and  C_4
REMARK    4  A    between atoms: C_6  and  C_7
REMARK    5  A    between atoms: C_7  and  C_8
REMARK    6  A    between atoms: N_10  and  C_11
REMARK    7  A    between atoms: C_11  and  C_12
REMARK    8  A    between atoms: C_11  and  C_16
REMARK    9  A    between atoms: C_12  and  C_13
REMARK   10  A    between atoms: C_13  and  C_14
REMARK   11  A    between atoms: C_13  and  C_15
REMARK   12  A    between atoms: C_21  and  N_22
REMARK   13  A    between atoms: C_26  and  O_27
REMARK   14  A    between atoms: C_31  and  C_32
REMARK   15  A    between atoms: C_32  and  O_34
REMARK                            x       y       z     vdW  Elec       q    Type
REMARK                         _______ _______ _______ _____ _____    ______ ____
ROOT
ATOM      1  C   UNL     1      -0.043  10.331  18.690  0.00  0.00    +0.000 C 
ENDROOT
BRANCH   1   2
ATOM      2  C   UNL     1      -0.248  10.501  20.216  0.00  0.00    +0.000 A 
ATOM      3  C   UNL     1      -0.399   9.321  20.994  0.00  0.00    +0.000 A 
ATOM      4  C   UNL     1      -0.591   9.355  22.373  0.00  0.00    +0.000 A 
ATOM      5  C   UNL     1      -0.695  10.572  23.015  0.00  0.00    +0.000 A 
ATOM      6  C   UNL     1      -0.575  11.750  22.277  0.00  0.00    +0.000 A 
ATOM      7  C   UNL     1      -0.311  11.761  20.885  0.00  0.00    +0.000 A 
BRANCH   7   8
ATOM      8  N   UNL     1      -0.012  12.975  20.258  0.00  0.00    +0.000 N 
ATOM      9  C   UNL     1       1.402  13.390  20.187  0.00  0.00    +0.000 C 
ATOM     10  C   UNL     1       1.586  14.176  18.893  0.00  0.00    +0.000 C 
ATOM     11  C   UNL     1       0.635  15.371  18.816  0.00  0.00    +0.000 C 
ATOM     12  C   UNL     1      -0.812  15.017  19.189  0.00  0.00    +0.000 C 
ATOM     13  C   UNL     1      -0.884  14.140  20.455  0.00  0.00    +0.000 C 
BRANCH  12  14
ATOM     14  O   UNL     1      -1.551  16.223  19.382  0.00  0.00    +0.000 OA
ATOM     15  H   UNL     1      -1.564  16.396  20.340  0.00  0.00    +0.000 HD
ENDBRANCH  12  14
ENDBRANCH   7   8
ENDBRANCH   1   2
BRANCH   1  18
ATOM     16  C   UNL     1       2.123   9.258  17.899  0.00  0.00    +0.000 C 
ATOM     17  O   UNL     1       2.613  10.323  17.535  0.00  0.00    +0.000 OA
ATOM     18  N   UNL     1       0.836   9.174  18.388  0.00  0.00    +0.000 N 
ATOM     19  H   UNL     1       0.471   8.264  18.607  0.00  0.00    +0.000 HD
BRANCH  16  20
ATOM     20  C   UNL     1       2.838   7.898  17.752  0.00  0.00    +0.000 C 
BRANCH  20  23
ATOM     21  C   UNL     1       1.842   4.332  18.860  0.00  0.00    +0.000 A 
ATOM     22  C   UNL     1       2.158   5.457  18.064  0.00  0.00    +0.000 A 
ATOM     23  C   UNL     1       2.368   6.743  18.623  0.00  0.00    +0.000 A 
ATOM     24  C   UNL     1       2.248   6.863  20.010  0.00  0.00    +0.000 A 
ATOM     25  C   UNL     1       1.981   5.748  20.813  0.00  0.00    +0.000 A 
ATOM     26  C   UNL     1       1.823   4.472  20.250  0.00  0.00    +0.000 A 
BRANCH  26  27
ATOM     27  C   UNL     1       1.732   3.357  21.221  0.00  0.00    +0.000 C 
ATOM     28  O   UNL     1       2.595   3.115  22.046  0.00  0.00    +0.000 OA
BRANCH  27  29
ATOM     29  O   UNL     1       0.632   2.589  21.054  0.00  0.00    +0.000 OA
ATOM     30  H   UNL     1      -0.126   3.065  20.659  0.00  0.00    +0.000 HD
ENDBRANCH  27  29
ENDBRANCH  26  27
BRANCH  21  31
ATOM     31  O   UNL     1       1.671   3.164  18.157  0.00  0.00    +0.000 OA
BRANCH  31  33
ATOM     32  C   UNL     1       3.433   1.523  18.432  0.00  0.00    +0.000 C 
ATOM     33  C   UNL     1       2.829   2.584  17.534  0.00  0.00    +0.000 C 
ENDBRANCH  31  33
ENDBRANCH  21  31
ENDBRANCH  20  23
ENDBRANCH  16  20
ENDBRANCH   1  18
BRANCH   1  34
ATOM     34  C   UNL     1      -1.429  10.079  18.031  0.00  0.00    +0.000 C 
BRANCH  34  35
ATOM     35  C   UNL     1      -2.258  11.307  17.590  0.00  0.00    +0.000 C 
ATOM     36  C   UNL     1      -2.664  11.126  16.118  0.00  0.00    +0.000 C 
ATOM     37  C   UNL     1      -3.523  11.569  18.410  0.00  0.00    +0.000 C 
ENDBRANCH  34  35
ENDBRANCH   1  34
TORSDOF 12
ENDMDL
MODEL 2
REMARK VINA RESULT:      -7.3      1.787      2.524
REMARK  Name = 
REMARK  15 active torsions:
REMARK  status: ('A' for Active; 'I' for Inactive)
REMARK    1  A    between atoms: C_1  and  C_2
REMARK    2  A    between atoms: C_2  and  O_3
REMARK    3  A    between atoms: O_3  and  C_4
REMARK    4  A    between atoms: C_6  and  C_7
REMARK    5  A    between atoms: C_7  and  C_8
REMARK    6  A    between atoms: N_10  and  C_11
REMARK    7  A    between atoms: C_11  and  C_12
REMARK    8  A    between atoms: C_11  and  C_16
REMARK    9  A    between atoms: C_12  and  C_13
REMARK   10  A    between atoms: C_13  and  C_14
REMARK   11  A    between atoms: C_13  and  C_15
REMARK   12  A    between atoms: C_21  and  N_22
REMARK   13  A    between atoms: C_26  and  O_27
REMARK   14  A    between atoms: C_31  and  C_32
REMARK   15  A    between atoms: C_32  and  O_34
REMARK                            x       y       z     vdW  Elec       q    Type
REMARK                         _______ _______ _______ _____ _____    ______ ____
ROOT
ATOM      1  C   UNL     1      -0.450  11.127  18.996  0.00  0.00    +0.000 C 
ENDROOT
BRANCH   1   2
ATOM      2  C   UNL     1      -0.565  10.826  20.512  0.00  0.00    +0.000 A 
ATOM      3  C   UNL     1      -0.289   9.500  20.941  0.00  0.00    +0.000 A 
ATOM      4  C   UNL     1      -0.363   9.117  22.279  0.00  0.00    +0.000 A 
ATOM      5  C   UNL     1      -0.771  10.033  23.226  0.00  0.00    +0.000 A 
ATOM      6  C   UNL     1      -1.073  11.338  22.834  0.00  0.00    +0.000 A 
ATOM      7  C   UNL     1      -0.945  11.788  21.497  0.00  0.00    +0.000 A 
BRANCH   7   8
ATOM      8  N   UNL     1      -1.078  13.152  21.222  0.00  0.00    +0.000 N 
ATOM      9  C   UNL     1       0.151  13.962  21.113  0.00  0.00    +0.000 C 
ATOM     10  C   UNL     1      -0.113  15.064  20.093  0.00  0.00    +0.000 C 
ATOM     11  C   UNL     1      -1.325  15.913  20.478  0.00  0.00    +0.000 C 
ATOM     12  C   UNL     1      -2.543  15.076  20.895  0.00  0.00    +0.000 C 
ATOM     13  C   UNL     1      -2.156  13.929  21.850  0.00  0.00    +0.000 C 
BRANCH  12  14
ATOM     14  O   UNL     1      -3.505  15.930  21.515  0.00  0.00    +0.000 OA
ATOM     15  H   UNL     1      -4.102  15.357  22.027  0.00  0.00    +0.000 HD
ENDBRANCH  12  14
ENDBRANCH   7   8
ENDBRANCH   1   2
BRANCH   1  18
ATOM     16  C   UNL     1       1.451   9.766  17.995  0.00  0.00    +0.000 C 
ATOM     17  O   UNL     1       2.300  10.618  18.243  0.00  0.00    +0.000 OA
ATOM     18  N   UNL     1       0.112   9.969  18.257  0.00  0.00    +0.000 N 
ATOM     19  H   UNL     1      -0.539   9.260  17.971  0.00  0.00    +0.000 HD
BRANCH  16  20
ATOM     20  C   UNL     1       1.765   8.436  17.277  0.00  0.00    +0.000 C 
BRANCH  20  23
ATOM     21  C   UNL     1       3.231   5.730  19.613  0.00  0.00    +0.000 A 
ATOM     22  C   UNL     1       2.381   6.713  19.056  0.00  0.00    +0.000 A 
ATOM     23  C   UNL     1       2.757   7.486  17.929  0.00  0.00    +0.000 A 
ATOM     24  C   UNL     1       4.018   7.240  17.379  0.00  0.00    +0.000 A 
ATOM     25  C   UNL     1       4.851   6.239  17.894  0.00  0.00    +0.000 A 
ATOM     26  C   UNL     1       4.444   5.449  18.980  0.00  0.00    +0.000 A 
BRANCH  26  27
ATOM     27  C   UNL     1       5.334   4.309  19.303  0.00  0.00    +0.000 C 
ATOM     28  O   UNL     1       4.926   3.181  19.517  0.00  0.00    +0.000 OA
BRANCH  27  29
ATOM     29  O   UNL     1       6.635   4.658  19.411  0.00  0.00    +0.000 OA
ATOM     30  H   UNL     1       7.146   4.543  18.584  0.00  0.00    +0.000 HD
ENDBRANCH  27  29
ENDBRANCH  26  27
BRANCH  21  31
ATOM     31  O   UNL     1       2.711   5.075  20.703  0.00  0.00    +0.000 OA
BRANCH  31  33
ATOM     32  C   UNL     1       1.369   3.081  21.025  0.00  0.00    +0.000 C 
ATOM     33  C   UNL     1       1.385   4.532  20.585  0.00  0.00    +0.000 C 
ENDBRANCH  31  33
ENDBRANCH  21  31
ENDBRANCH  20  23
ENDBRANCH  16  20
ENDBRANCH   1  18
BRANCH   1  34
ATOM     34  C   UNL     1      -1.873  11.419  18.441  0.00  0.00    +0.000 C 
BRANCH  34  35
ATOM     35  C   UNL     1      -2.576  10.311  17.623  0.00  0.00    +0.000 C 
ATOM     36  C   UNL     1      -4.068  10.295  17.994  0.00  0.00    +0.000 C 
ATOM     37  C   UNL     1      -2.458  10.447  16.104  0.00  0.00    +0.000 C 
ENDBRANCH  34  35
ENDBRANCH   1  34
TORSDOF 12
ENDMDL
MODEL 3
REMARK VINA RESULT:      -7.2      2.105      3.631
REMARK  Name = 
REMARK  15 active torsions:
REMARK  status: ('A' for Active; 'I' for Inactive)
REMARK    1  A    between atoms: C_1  and  C_2
REMARK    2  A    between atoms: C_2  and  O_3
REMARK    3  A    between atoms: O_3  and  C_4
REMARK    4  A    between atoms: C_6  and  C_7
REMARK    5  A    between atoms: C_7  and  C_8
REMARK    6  A    between atoms: N_10  and  C_11
REMARK    7  A    between atoms: C_11  and  C_12
REMARK    8  A    between atoms: C_11  and  C_16
REMARK    9  A    between atoms: C_12  and  C_13
REMARK   10  A    between atoms: C_13  and  C_14
REMARK   11  A    between atoms: C_13  and  C_15
REMARK   12  A    between atoms: C_21  and  N_22
REMARK   13  A    between atoms: C_26  and  O_27
REMARK   14  A    between atoms: C_31  and  C_32
REMARK   15  A    between atoms: C_32  and  O_34
REMARK                            x       y       z     vdW  Elec       q    Type
REMARK                         _______ _______ _______ _____ _____    ______ ____
ROOT
ATOM      1  C   UNL     1       0.433  10.794  19.682  0.00  0.00    +0.000 C 
ENDROOT
BRANCH   1   2
ATOM      2  C   UNL     1      -0.977  10.931  19.055  0.00  0.00    +0.000 A 
ATOM      3  C   UNL     1      -1.283  10.107  17.938  0.00  0.00    +0.000 A 
ATOM      4  C   UNL     1      -2.518  10.148  17.295  0.00  0.00    +0.000 A 
ATOM      5  C   UNL     1      -3.471  11.056  17.711  0.00  0.00    +0.000 A 
ATOM      6  C   UNL     1      -3.194  11.896  18.790  0.00  0.00    +0.000 A 
ATOM      7  C   UNL     1      -1.978  11.839  19.516  0.00  0.00    +0.000 A 
BRANCH   7   8
ATOM      8  N   UNL     1      -1.856  12.577  20.698  0.00  0.00    +0.000 N 
ATOM      9  C   UNL     1      -2.071  11.874  21.978  0.00  0.00    +0.000 C 
ATOM     10  C   UNL     1      -1.166  12.527  23.018  0.00  0.00    +0.000 C 
ATOM     11  C   UNL     1      -1.431  14.028  23.138  0.00  0.00    +0.000 C 
ATOM     12  C   UNL     1      -1.516  14.737  21.779  0.00  0.00    +0.000 C 
ATOM     13  C   UNL     1      -2.374  13.949  20.768  0.00  0.00    +0.000 C 
BRANCH  12  14
ATOM     14  O   UNL     1      -2.056  16.045  21.969  0.00  0.00    +0.000 OA
ATOM     15  H   UNL     1      -2.253  16.134  22.918  0.00  0.00    +0.000 HD
ENDBRANCH  12  14
ENDBRANCH   7   8
ENDBRANCH   1   2
BRANCH   1  18
ATOM     16  C   UNL     1       1.777   8.707  19.129  0.00  0.00    +0.000 C 
ATOM     17  O   UNL     1       1.578   8.189  20.224  0.00  0.00    +0.000 OA
ATOM     18  N   UNL     1       1.327   9.975  18.826  0.00  0.00    +0.000 N 
ATOM     19  H   UNL     1       1.579  10.367  17.937  0.00  0.00    +0.000 HD
BRANCH  16  20
ATOM     20  C   UNL     1       2.632   8.053  18.022  0.00  0.00    +0.000 C 
BRANCH  20  23
ATOM     21  C   UNL     1       4.337   4.639  18.630  0.00  0.00    +0.000 A 
ATOM     22  C   UNL     1       4.123   6.024  18.441  0.00  0.00    +0.000 A 
ATOM     23  C   UNL     1       2.856   6.550  18.084  0.00  0.00    +0.000 A 
ATOM     24  C   UNL     1       1.809   5.638  17.921  0.00  0.00    +0.000 A 
ATOM     25  C   UNL     1       1.998   4.270  18.150  0.00  0.00    +0.000 A 
ATOM     26  C   UNL     1       3.247   3.770  18.550  0.00  0.00    +0.000 A 
BRANCH  26  27
ATOM     27  C   UNL     1       3.263   2.339  18.938  0.00  0.00    +0.000 C 
ATOM     28  O   UNL     1       2.354   1.800  19.546  0.00  0.00    +0.000 OA
BRANCH  27  29
ATOM     29  O   UNL     1       4.414   1.710  18.617  0.00  0.00    +0.000 OA
ATOM     30  H   UNL     1       4.472   1.445  17.677  0.00  0.00    +0.000 HD
ENDBRANCH  27  29
ENDBRANCH  26  27
BRANCH  21  31
ATOM     31  O   UNL     1       5.624   4.301  18.972  0.00  0.00    +0.000 OA
BRANCH  31  33
ATOM     32  C   UNL     1       7.588   4.572  17.577  0.00  0.00    +0.000 C 
ATOM     33  C   UNL     1       6.674   5.212  18.603  0.00  0.00    +0.000 C 
ENDBRANCH  31  33
ENDBRANCH  21  31
ENDBRANCH  20  23
ENDBRANCH  16  20
ENDBRANCH   1  18
BRANCH   1  34
ATOM     34  C   UNL     1       1.052  12.213  19.821  0.00  0.00    +0.000 C 
BRANCH  34  35
ATOM     35  C   UNL     1       1.359  13.002  18.528  0.00  0.00    +0.000 C 
ATOM     36  C   UNL     1       0.556  14.313  18.546  0.00  0.00    +0.000 C 
ATOM     37  C   UNL     1       2.834  13.345  18.307  0.00  0.00    +0.000 C 
ENDBRANCH  34  35
ENDBRANCH   1  34
TORSDOF 12
ENDMDL
MODEL 4
REMARK VINA RESULT:      -7.1      2.064      3.916
REMARK  Name = 
REMARK  15 active torsions:
REMARK  status: ('A' for Active; 'I' for Inactive)
REMARK    1  A    between atoms: C_1  and  C_2
REMARK    2  A    between atoms: C_2  and  O_3
REMARK    3  A    between atoms: O_3  and  C_4
REMARK    4  A    between atoms: C_6  and  C_7
REMARK    5  A    between atoms: C_7  and  C_8
REMARK    6  A    between atoms: N_10  and  C_11
REMARK    7  A    between atoms: C_11  and  C_12
REMARK    8  A    between atoms: C_11  and  C_16
REMARK    9  A    between atoms: C_12  and  C_13
REMARK   10  A    between atoms: C_13  and  C_14
REMARK   11  A    between atoms: C_13  and  C_15
REMARK   12  A    between atoms: C_21  and  N_22
REMARK   13  A    between atoms: C_26  and  O_27
REMARK   14  A    between atoms: C_31  and  C_32
REMARK   15  A    between atoms: C_32  and  O_34
REMARK                            x       y       z     vdW  Elec       q    Type
REMARK                         _______ _______ _______ _____ _____    ______ ____
ROOT
ATOM      1  C   UNL     1      -0.232  11.649  18.993  0.00  0.00    +0.000 C 
ENDROOT
BRANCH   1   2
ATOM      2  C   UNL     1      -1.774  11.631  18.850  0.00  0.00    +0.000 A 
ATOM      3  C   UNL     1      -2.327  10.866  17.788  0.00  0.00    +0.000 A 
ATOM      4  C   UNL     1      -3.699  10.780  17.564  0.00  0.00    +0.000 A 
ATOM      5  C   UNL     1      -4.564  11.503  18.360  0.00  0.00    +0.000 A 
ATOM      6  C   UNL     1      -4.053  12.284  19.398  0.00  0.00    +0.000 A 
ATOM      7  C   UNL     1      -2.670  12.344  19.703  0.00  0.00    +0.000 A 
BRANCH   7   8
ATOM      8  N   UNL     1      -2.261  12.992  20.873  0.00  0.00    +0.000 N 
ATOM      9  C   UNL     1      -2.437  12.284  22.156  0.00  0.00    +0.000 C 
ATOM     10  C   UNL     1      -1.299  12.711  23.077  0.00  0.00    +0.000 C 
ATOM     11  C   UNL     1      -1.258  14.228  23.262  0.00  0.00    +0.000 C 
ATOM     12  C   UNL     1      -1.382  15.002  21.942  0.00  0.00    +0.000 C 
ATOM     13  C   UNL     1      -2.496  14.432  21.040  0.00  0.00    +0.000 C 
BRANCH  12  14
ATOM     14  O   UNL     1      -1.636  16.377  22.230  0.00  0.00    +0.000 OA
ATOM     15  H   UNL     1      -1.456  16.505  23.177  0.00  0.00    +0.000 HD
ENDBRANCH  12  14
ENDBRANCH   7   8
ENDBRANCH   1   2
BRANCH   1  18
ATOM     16  C   UNL     1       1.101   9.501  18.713  0.00  0.00    +0.000 C 
ATOM     17  O   UNL     1       1.388   9.428  19.905  0.00  0.00    +0.000 OA
ATOM     18  N   UNL     1       0.397  10.568  18.195  0.00  0.00    +0.000 N 
ATOM     19  H   UNL     1       0.251  10.601  17.202  0.00  0.00    +0.000 HD
BRANCH  16  20
ATOM     20  C   UNL     1       1.579   8.481  17.659  0.00  0.00    +0.000 C 
BRANCH  20  23
ATOM     21  C   UNL     1       3.516   5.554  19.277  0.00  0.00    +0.000 A 
ATOM     22  C   UNL     1       2.523   6.520  18.993  0.00  0.00    +0.000 A 
ATOM     23  C   UNL     1       2.718   7.545  18.033  0.00  0.00    +0.000 A 
ATOM     24  C   UNL     1       3.946   7.568  17.366  0.00  0.00    +0.000 A 
ATOM     25  C   UNL     1       4.919   6.590  17.605  0.00  0.00    +0.000 A 
ATOM     26  C   UNL     1       4.693   5.555  18.524  0.00  0.00    +0.000 A 
BRANCH  26  27
ATOM     27  C   UNL     1       5.721   4.488  18.543  0.00  0.00    +0.000 C 
ATOM     28  O   UNL     1       6.888   4.688  18.831  0.00  0.00    +0.000 OA
BRANCH  27  29
ATOM     29  O   UNL     1       5.254   3.286  18.139  0.00  0.00    +0.000 OA
ATOM     30  H   UNL     1       5.513   2.544  18.722  0.00  0.00    +0.000 HD
ENDBRANCH  27  29
ENDBRANCH  26  27
BRANCH  21  31
ATOM     31  O   UNL     1       3.163   4.635  20.235  0.00  0.00    +0.000 OA
BRANCH  31  33
ATOM     32  C   UNL     1       1.058   3.525  20.699  0.00  0.00    +0.000 C 
ATOM     33  C   UNL     1       2.306   3.552  19.837  0.00  0.00    +0.000 C 
ENDBRANCH  31  33
ENDBRANCH  21  31
ENDBRANCH  20  23
ENDBRANCH  16  20
ENDBRANCH   1  18
BRANCH   1  34
ATOM     34  C   UNL     1       0.297  13.015  18.472  0.00  0.00    +0.000 C 
BRANCH  34  35
ATOM     35  C   UNL     1       1.465  13.682  19.235  0.00  0.00    +0.000 C 
ATOM     36  C   UNL     1       1.573  13.042  20.629  0.00  0.00    +0.000 C 
ATOM     37  C   UNL     1       2.831  13.583  18.553  0.00  0.00    +0.000 C 
ENDBRANCH  34  35
ENDBRANCH   1  34
TORSDOF 12
ENDMDL
MODEL 5
REMARK VINA RESULT:      -7.1      3.931      9.298
REMARK  Name = 
REMARK  15 active torsions:
REMARK  status: ('A' for Active; 'I' for Inactive)
REMARK    1  A    between atoms: C_1  and  C_2
REMARK    2  A    between atoms: C_2  and  O_3
REMARK    3  A    between atoms: O_3  and  C_4
REMARK    4  A    between atoms: C_6  and  C_7
REMARK    5  A    between atoms: C_7  and  C_8
REMARK    6  A    between atoms: N_10  and  C_11
REMARK    7  A    between atoms: C_11  and  C_12
REMARK    8  A    between atoms: C_11  and  C_16
REMARK    9  A    between atoms: C_12  and  C_13
REMARK   10  A    between atoms: C_13  and  C_14
REMARK   11  A    between atoms: C_13  and  C_15
REMARK   12  A    between atoms: C_21  and  N_22
REMARK   13  A    between atoms: C_26  and  O_27
REMARK   14  A    between atoms: C_31  and  C_32
REMARK   15  A    between atoms: C_32  and  O_34
REMARK                            x       y       z     vdW  Elec       q    Type
REMARK                         _______ _______ _______ _____ _____    ______ ____
ROOT
ATOM      1  C   UNL     1       4.322   4.339  17.278  0.00  0.00    +0.000 C 
ENDROOT
BRANCH   1   2
ATOM      2  C   UNL     1       5.171   4.336  15.982  0.00  0.00    +0.000 A 
ATOM      3  C   UNL     1       4.595   3.756  14.820  0.00  0.00    +0.000 A 
ATOM      4  C   UNL     1       5.267   3.697  13.602  0.00  0.00    +0.000 A 
ATOM      5  C   UNL     1       6.562   4.166  13.517  0.00  0.00    +0.000 A 
ATOM      6  C   UNL     1       7.167   4.720  14.646  0.00  0.00    +0.000 A 
ATOM      7  C   UNL     1       6.495   4.863  15.885  0.00  0.00    +0.000 A 
BRANCH   7   8
ATOM      8  N   UNL     1       7.101   5.602  16.906  0.00  0.00    +0.000 N 
ATOM      9  C   UNL     1       7.771   6.866  16.543  0.00  0.00    +0.000 C 
ATOM     10  C   UNL     1       7.623   7.820  17.723  0.00  0.00    +0.000 C 
ATOM     11  C   UNL     1       8.188   7.222  19.011  0.00  0.00    +0.000 C 
ATOM     12  C   UNL     1       7.737   5.775  19.255  0.00  0.00    +0.000 C 
ATOM     13  C   UNL     1       7.834   4.916  17.978  0.00  0.00    +0.000 C 
BRANCH  12  14
ATOM     14  O   UNL     1       8.536   5.206  20.293  0.00  0.00    +0.000 OA
ATOM     15  H   UNL     1       9.173   4.608  19.864  0.00  0.00    +0.000 HD
ENDBRANCH  12  14
ENDBRANCH   7   8
ENDBRANCH   1   2
BRANCH   1  18
ATOM     16  C   UNL     1       3.232   6.346  18.396  0.00  0.00    +0.000 C 
ATOM     17  O   UNL     1       3.745   6.120  19.488  0.00  0.00    +0.000 OA
ATOM     18  N   UNL     1       3.402   5.502  17.318  0.00  0.00    +0.000 N 
ATOM     19  H   UNL     1       2.902   5.708  16.472  0.00  0.00    +0.000 HD
BRANCH  16  20
ATOM     20  C   UNL     1       2.268   7.524  18.136  0.00  0.00    +0.000 C 
BRANCH  20  23
ATOM     21  C   UNL     1       0.806  10.421  20.235  0.00  0.00    +0.000 A 
ATOM     22  C   UNL     1       1.377   9.678  19.176  0.00  0.00    +0.000 A 
ATOM     23  C   UNL     1       1.784   8.329  19.332  0.00  0.00    +0.000 A 
ATOM     24  C   UNL     1       1.598   7.749  20.590  0.00  0.00    +0.000 A 
ATOM     25  C   UNL     1       0.992   8.459  21.633  0.00  0.00    +0.000 A 
ATOM     26  C   UNL     1       0.551   9.779  21.449  0.00  0.00    +0.000 A 
BRANCH  26  27
ATOM     27  C   UNL     1      -0.237  10.346  22.568  0.00  0.00    +0.000 C 
ATOM     28  O   UNL     1      -0.082  10.017  23.731  0.00  0.00    +0.000 OA
BRANCH  27  29
ATOM     29  O   UNL     1      -1.196  11.209  22.165  0.00  0.00    +0.000 OA
ATOM     30  H   UNL     1      -0.880  11.883  21.530  0.00  0.00    +0.000 HD
ENDBRANCH  27  29
ENDBRANCH  26  27
BRANCH  21  31
ATOM     31  O   UNL     1       0.470  11.713  19.911  0.00  0.00    +0.000 OA
BRANCH  31  33
ATOM     32  C   UNL     1       1.152  13.756  21.024  0.00  0.00    +0.000 C 
ATOM     33  C   UNL     1       1.504  12.709  19.985  0.00  0.00    +0.000 C 
ENDBRANCH  31  33
ENDBRANCH  21  31
ENDBRANCH  20  23
ENDBRANCH  16  20
ENDBRANCH   1  18
BRANCH   1  34
ATOM     34  C   UNL     1       3.471   3.038  17.313  0.00  0.00    +0.000 C 
BRANCH  34  35
ATOM     35  C   UNL     1       3.214   2.374  18.686  0.00  0.00    +0.000 C 
ATOM     36  C   UNL     1       4.377   2.724  19.629  0.00  0.00    +0.000 C 
ATOM     37  C   UNL     1       1.905   2.773  19.369  0.00  0.00    +0.000 C 
ENDBRANCH  34  35
ENDBRANCH   1  34
TORSDOF 12
ENDMDL
MODEL 6
REMARK VINA RESULT:      -7.1      1.748      3.580
REMARK  Name = 
REMARK  15 active torsions:
REMARK  status: ('A' for Active; 'I' for Inactive)
REMARK    1  A    between atoms: C_1  and  C_2
REMARK    2  A    between atoms: C_2  and  O_3
REMARK    3  A    between atoms: O_3  and  C_4
REMARK    4  A    between atoms: C_6  and  C_7
REMARK    5  A    between atoms: C_7  and  C_8
REMARK    6  A    between atoms: N_10  and  C_11
REMARK    7  A    between atoms: C_11  and  C_12
REMARK    8  A    between atoms: C_11  and  C_16
REMARK    9  A    between atoms: C_12  and  C_13
REMARK   10  A    between atoms: C_13  and  C_14
REMARK   11  A    between atoms: C_13  and  C_15
REMARK   12  A    between atoms: C_21  and  N_22
REMARK   13  A    between atoms: C_26  and  O_27
REMARK   14  A    between atoms: C_31  and  C_32
REMARK   15  A    between atoms: C_32  and  O_34
REMARK                            x       y       z     vdW  Elec       q    Type
REMARK                         _______ _______ _______ _____ _____    ______ ____
ROOT
ATOM      1  C   UNL     1       0.330  11.244  18.874  0.00  0.00    +0.000 C 
ENDROOT
BRANCH   1   2
ATOM      2  C   UNL     1      -1.176  11.079  18.549  0.00  0.00    +0.000 A 
ATOM      3  C   UNL     1      -1.528  10.183  17.505  0.00  0.00    +0.000 A 
ATOM      4  C   UNL     1      -2.850   9.959  17.126  0.00  0.00    +0.000 A 
ATOM      5  C   UNL     1      -3.862  10.666  17.742  0.00  0.00    +0.000 A 
ATOM      6  C   UNL     1      -3.549  11.572  18.756  0.00  0.00    +0.000 A 
ATOM      7  C   UNL     1      -2.225  11.779  19.218  0.00  0.00    +0.000 A 
BRANCH   7   8
ATOM      8  N   UNL     1      -2.019  12.556  20.363  0.00  0.00    +0.000 N 
ATOM      9  C   UNL     1      -1.673  11.861  21.619  0.00  0.00    +0.000 C 
ATOM     10  C   UNL     1      -0.759  12.784  22.418  0.00  0.00    +0.000 C 
ATOM     11  C   UNL     1      -1.411  14.142  22.677  0.00  0.00    +0.000 C 
ATOM     12  C   UNL     1      -2.055  14.753  21.423  0.00  0.00    +0.000 C 
ATOM     13  C   UNL     1      -2.878  13.716  20.633  0.00  0.00    +0.000 C 
BRANCH  12  14
ATOM     14  O   UNL     1      -2.885  15.848  21.812  0.00  0.00    +0.000 OA
ATOM     15  H   UNL     1      -3.733  15.738  21.347  0.00  0.00    +0.000 HD
ENDBRANCH  12  14
ENDBRANCH   7   8
ENDBRANCH   1   2
BRANCH   1  18
ATOM     16  C   UNL     1       1.656   9.089  18.620  0.00  0.00    +0.000 C 
ATOM     17  O   UNL     1       1.569   8.799  19.810  0.00  0.00    +0.000 OA
ATOM     18  N   UNL     1       1.156  10.271  18.116  0.00  0.00    +0.000 N 
ATOM     19  H   UNL     1       1.316  10.479  17.147  0.00  0.00    +0.000 HD
BRANCH  16  20
ATOM     20  C   UNL     1       2.416   8.228  17.588  0.00  0.00    +0.000 C 
BRANCH  20  23
ATOM     21  C   UNL     1       2.236   4.495  18.569  0.00  0.00    +0.000 A 
ATOM     22  C   UNL     1       1.880   5.837  18.303  0.00  0.00    +0.000 A 
ATOM     23  C   UNL     1       2.847   6.829  18.001  0.00  0.00    +0.000 A 
ATOM     24  C   UNL     1       4.185   6.428  17.975  0.00  0.00    +0.000 A 
ATOM     25  C   UNL     1       4.546   5.094  18.192  0.00  0.00    +0.000 A 
ATOM     26  C   UNL     1       3.574   4.113  18.443  0.00  0.00    +0.000 A 
BRANCH  26  27
ATOM     27  C   UNL     1       4.072   2.718  18.468  0.00  0.00    +0.000 C 
ATOM     28  O   UNL     1       3.657   1.846  17.724  0.00  0.00    +0.000 OA
BRANCH  27  29
ATOM     29  O   UNL     1       4.977   2.489  19.444  0.00  0.00    +0.000 OA
ATOM     30  H   UNL     1       4.603   2.053  20.237  0.00  0.00    +0.000 HD
ENDBRANCH  27  29
ENDBRANCH  26  27
BRANCH  21  31
ATOM     31  O   UNL     1       1.176   3.666  18.845  0.00  0.00    +0.000 OA
BRANCH  31  33
ATOM     32  C   UNL     1       1.639   3.820  21.220  0.00  0.00    +0.000 C 
ATOM     33  C   UNL     1       1.212   2.922  20.075  0.00  0.00    +0.000 C 
ENDBRANCH  31  33
ENDBRANCH  21  31
ENDBRANCH  20  23
ENDBRANCH  16  20
ENDBRANCH   1  18
BRANCH   1  34
ATOM     34  C   UNL     1       0.768  12.680  18.469  0.00  0.00    +0.000 C 
BRANCH  34  35
ATOM     35  C   UNL     1       1.864  13.371  19.313  0.00  0.00    +0.000 C 
ATOM     36  C   UNL     1       3.076  13.656  18.411  0.00  0.00    +0.000 C 
ATOM     37  C   UNL     1       1.444  14.680  19.984  0.00  0.00    +0.000 C 
ENDBRANCH  34  35
ENDBRANCH   1  34
TORSDOF 12
ENDMDL
MODEL 7
REMARK VINA RESULT:      -7.1      3.630      9.134
REMARK  Name = 
REMARK  15 active torsions:
REMARK  status: ('A' for Active; 'I' for Inactive)
REMARK    1  A    between atoms: C_1  and  C_2
REMARK    2  A    between atoms: C_2  and  O_3
REMARK    3  A    between atoms: O_3  and  C_4
REMARK    4  A    between atoms: C_6  and  C_7
REMARK    5  A    between atoms: C_7  and  C_8
REMARK    6  A    between atoms: N_10  and  C_11
REMARK    7  A    between atoms: C_11  and  C_12
REMARK    8  A    between atoms: C_11  and  C_16
REMARK    9  A    between atoms: C_12  and  C_13
REMARK   10  A    between atoms: C_13  and  C_14
REMARK   11  A    between atoms: C_13  and  C_15
REMARK   12  A    between atoms: C_21  and  N_22
REMARK   13  A    between atoms: C_26  and  O_27
REMARK   14  A    between atoms: C_31  and  C_32
REMARK   15  A    between atoms: C_32  and  O_34
REMARK                            x       y       z     vdW  Elec       q    Type
REMARK                         _______ _______ _______ _____ _____    ______ ____
ROOT
ATOM      1  C   UNL     1       4.552   5.894  16.638  0.00  0.00    +0.000 C 
ENDROOT
BRANCH   1   2
ATOM      2  C   UNL     1       5.676   5.747  17.693  0.00  0.00    +0.000 A 
ATOM      3  C   UNL     1       6.766   6.656  17.624  0.00  0.00    +0.000 A 
ATOM      4  C   UNL     1       7.832   6.615  18.520  0.00  0.00    +0.000 A 
ATOM      5  C   UNL     1       7.874   5.626  19.481  0.00  0.00    +0.000 A 
ATOM      6  C   UNL     1       6.831   4.702  19.562  0.00  0.00    +0.000 A 
ATOM      7  C   UNL     1       5.695   4.750  18.716  0.00  0.00    +0.000 A 
BRANCH   7   8
ATOM      8  N   UNL     1       4.609   3.912  18.987  0.00  0.00    +0.000 N 
ATOM      9  C   UNL     1       4.513   3.316  20.334  0.00  0.00    +0.000 C 
ATOM     10  C   UNL     1       3.031   3.171  20.667  0.00  0.00    +0.000 C 
ATOM     11  C   UNL     1       2.293   2.338  19.618  0.00  0.00    +0.000 C 
ATOM     12  C   UNL     1       2.622   2.751  18.177  0.00  0.00    +0.000 C 
ATOM     13  C   UNL     1       4.135   2.967  17.968  0.00  0.00    +0.000 C 
BRANCH  12  14
ATOM     14  O   UNL     1       2.139   1.748  17.283  0.00  0.00    +0.000 OA
ATOM     15  H   UNL     1       2.837   1.600  16.621  0.00  0.00    +0.000 HD
ENDBRANCH  12  14
ENDBRANCH   7   8
ENDBRANCH   1   2
BRANCH   1  18
ATOM     16  C   UNL     1       2.674   7.212  17.736  0.00  0.00    +0.000 C 
ATOM     17  O   UNL     1       2.200   6.227  18.295  0.00  0.00    +0.000 OA
ATOM     18  N   UNL     1       3.747   7.118  16.874  0.00  0.00    +0.000 N 
ATOM     19  H   UNL     1       4.046   7.950  16.398  0.00  0.00    +0.000 HD
BRANCH  16  20
ATOM     20  C   UNL     1       2.068   8.627  17.847  0.00  0.00    +0.000 C 
BRANCH  20  23
ATOM     21  C   UNL     1       0.533  10.848  20.612  0.00  0.00    +0.000 A 
ATOM     22  C   UNL     1       1.096  10.414  19.390  0.00  0.00    +0.000 A 
ATOM     23  C   UNL     1       1.595   9.098  19.214  0.00  0.00    +0.000 A 
ATOM     24  C   UNL     1       1.511   8.232  20.307  0.00  0.00    +0.000 A 
ATOM     25  C   UNL     1       0.915   8.637  21.507  0.00  0.00    +0.000 A 
ATOM     26  C   UNL     1       0.382   9.928  21.651  0.00  0.00    +0.000 A 
BRANCH  26  27
ATOM     27  C   UNL     1      -0.382  10.163  22.898  0.00  0.00    +0.000 C 
ATOM     28  O   UNL     1      -1.400  10.832  22.944  0.00  0.00    +0.000 OA
BRANCH  27  29
ATOM     29  O   UNL     1       0.199   9.626  23.993  0.00  0.00    +0.000 OA
ATOM     30  H   UNL     1      -0.433   9.391  24.702  0.00  0.00    +0.000 HD
ENDBRANCH  27  29
ENDBRANCH  26  27
BRANCH  21  31
ATOM     31  O   UNL     1       0.101  12.152  20.610  0.00  0.00    +0.000 OA
BRANCH  31  33
ATOM     32  C   UNL     1      -2.155  12.095  19.723  0.00  0.00    +0.000 C 
ATOM     33  C   UNL     1      -0.732  12.578  19.518  0.00  0.00    +0.000 C 
ENDBRANCH  31  33
ENDBRANCH  21  31
ENDBRANCH  20  23
ENDBRANCH  16  20
ENDBRANCH   1  18
BRANCH   1  34
ATOM     34  C   UNL     1       5.206   6.001  15.231  0.00  0.00    +0.000 C 
BRANCH  34  35
ATOM     35  C   UNL     1       6.025   4.795  14.717  0.00  0.00    +0.000 C 
ATOM     36  C   UNL     1       5.235   4.104  13.594  0.00  0.00    +0.000 C 
ATOM     37  C   UNL     1       7.420   5.132  14.186  0.00  0.00    +0.000 C 
ENDBRANCH  34  35
ENDBRANCH   1  34
TORSDOF 12
ENDMDL
MODEL 8
REMARK VINA RESULT:      -7.1      1.877      2.646
REMARK  Name = 
REMARK  15 active torsions:
REMARK  status: ('A' for Active; 'I' for Inactive)
REMARK    1  A    between atoms: C_1  and  C_2
REMARK    2  A    between atoms: C_2  and  O_3
REMARK    3  A    between atoms: O_3  and  C_4
REMARK    4  A    between atoms: C_6  and  C_7
REMARK    5  A    between atoms: C_7  and  C_8
REMARK    6  A    between atoms: N_10  and  C_11
REMARK    7  A    between atoms: C_11  and  C_12
REMARK    8  A    between atoms: C_11  and  C_16
REMARK    9  A    between atoms: C_12  and  C_13
REMARK   10  A    between atoms: C_13  and  C_14
REMARK   11  A    between atoms: C_13  and  C_15
REMARK   12  A    between atoms: C_21  and  N_22
REMARK   13  A    between atoms: C_26  and  O_27
REMARK   14  A    between atoms: C_31  and  C_32
REMARK   15  A    between atoms: C_32  and  O_34
REMARK                            x       y       z     vdW  Elec       q    Type
REMARK                         _______ _______ _______ _____ _____    ______ ____
ROOT
ATOM      1  C   UNL     1      -0.098  11.250  18.947  0.00  0.00    +0.000 C 
ENDROOT
BRANCH   1   2
ATOM      2  C   UNL     1      -0.355  11.030  20.458  0.00  0.00    +0.000 A 
ATOM      3  C   UNL     1      -0.310   9.696  20.946  0.00  0.00    +0.000 A 
ATOM      4  C   UNL     1      -0.527   9.382  22.285  0.00  0.00    +0.000 A 
ATOM      5  C   UNL     1      -0.854  10.386  23.174  0.00  0.00    +0.000 A 
ATOM      6  C   UNL     1      -0.931  11.704  22.723  0.00  0.00    +0.000 A 
ATOM      7  C   UNL     1      -0.649  12.076  21.385  0.00  0.00    +0.000 A 
BRANCH   7   8
ATOM      8  N   UNL     1      -0.558  13.433  21.062  0.00  0.00    +0.000 N 
ATOM      9  C   UNL     1      -1.764  14.103  20.536  0.00  0.00    +0.000 C 
ATOM     10  C   UNL     1      -1.726  15.554  21.006  0.00  0.00    +0.000 C 
ATOM     11  C   UNL     1      -0.442  16.258  20.566  0.00  0.00    +0.000 C 
ATOM     12  C   UNL     1       0.824  15.431  20.832  0.00  0.00    +0.000 C 
ATOM     13  C   UNL     1       0.650  13.957  20.412  0.00  0.00    +0.000 C 
BRANCH  12  14
ATOM     14  O   UNL     1       1.920  16.017  20.130  0.00  0.00    +0.000 OA
ATOM     15  H   UNL     1       2.731  15.608  20.480  0.00  0.00    +0.000 HD
ENDBRANCH  12  14
ENDBRANCH   7   8
ENDBRANCH   1   2
BRANCH   1  18
ATOM     16  C   UNL     1       1.628   9.664  17.960  0.00  0.00    +0.000 C 
ATOM     17  O   UNL     1       2.551  10.465  18.078  0.00  0.00    +0.000 OA
ATOM     18  N   UNL     1       0.328   9.993  18.283  0.00  0.00    +0.000 N 
ATOM     19  H   UNL     1      -0.391   9.315  18.103  0.00  0.00    +0.000 HD
BRANCH  16  20
ATOM     20  C   UNL     1       1.795   8.257  17.347  0.00  0.00    +0.000 C 
BRANCH  20  23
ATOM     21  C   UNL     1       3.512   5.512  19.458  0.00  0.00    +0.000 A 
ATOM     22  C   UNL     1       2.574   6.457  18.982  0.00  0.00    +0.000 A 
ATOM     23  C   UNL     1       2.873   7.349  17.921  0.00  0.00    +0.000 A 
ATOM     24  C   UNL     1       4.147   7.262  17.354  0.00  0.00    +0.000 A 
ATOM     25  C   UNL     1       5.068   6.301  17.786  0.00  0.00    +0.000 A 
ATOM     26  C   UNL     1       4.741   5.393  18.805  0.00  0.00    +0.000 A 
BRANCH  26  27
ATOM     27  C   UNL     1       5.731   4.314  19.035  0.00  0.00    +0.000 C 
ATOM     28  O   UNL     1       6.930   4.460  18.876  0.00  0.00    +0.000 OA
BRANCH  27  29
ATOM     29  O   UNL     1       5.167   3.131  19.366  0.00  0.00    +0.000 OA
ATOM     30  H   UNL     1       4.406   2.884  18.804  0.00  0.00    +0.000 HD
ENDBRANCH  27  29
ENDBRANCH  26  27
BRANCH  21  31
ATOM     31  O   UNL     1       3.059   4.728  20.491  0.00  0.00    +0.000 OA
BRANCH  31  33
ATOM     32  C   UNL     1       1.528   3.065  21.367  0.00  0.00    +0.000 C 
ATOM     33  C   UNL     1       1.715   4.223  20.406  0.00  0.00    +0.000 C 
ENDBRANCH  31  33
ENDBRANCH  21  31
ENDBRANCH  20  23
ENDBRANCH  16  20
ENDBRANCH   1  18
BRANCH   1  34
ATOM     34  C   UNL     1      -1.421  11.730  18.285  0.00  0.00    +0.000 C 
BRANCH  34  35
ATOM     35  C   UNL     1      -2.628  10.764  18.290  0.00  0.00    +0.000 C 
ATOM     36  C   UNL     1      -3.911  11.577  18.529  0.00  0.00    +0.000 C 
ATOM     37  C   UNL     1      -2.811   9.942  17.013  0.00  0.00    +0.000 C 
ENDBRANCH  34  35
ENDBRANCH   1  34
TORSDOF 12
ENDMDL
MODEL 9
REMARK VINA RESULT:      -7.0      1.810      4.110
REMARK  Name = 
REMARK  15 active torsions:
REMARK  status: ('A' for Active; 'I' for Inactive)
REMARK    1  A    between atoms: C_1  and  C_2
REMARK    2  A    between atoms: C_2  and  O_3
REMARK    3  A    between atoms: O_3  and  C_4
REMARK    4  A    between atoms: C_6  and  C_7
REMARK    5  A    between atoms: C_7  and  C_8
REMARK    6  A    between atoms: N_10  and  C_11
REMARK    7  A    between atoms: C_11  and  C_12
REMARK    8  A    between atoms: C_11  and  C_16
REMARK    9  A    between atoms: C_12  and  C_13
REMARK   10  A    between atoms: C_13  and  C_14
REMARK   11  A    between atoms: C_13  and  C_15
REMARK   12  A    between atoms: C_21  and  N_22
REMARK   13  A    between atoms: C_26  and  O_27
REMARK   14  A    between atoms: C_31  and  C_32
REMARK   15  A    between atoms: C_32  and  O_34
REMARK                            x       y       z     vdW  Elec       q    Type
REMARK                         _______ _______ _______ _____ _____    ______ ____
ROOT
ATOM      1  C   UNL     1       0.604  10.557  19.679  0.00  0.00    +0.000 C 
ENDROOT
BRANCH   1   2
ATOM      2  C   UNL     1       0.738  12.034  19.229  0.00  0.00    +0.000 A 
ATOM      3  C   UNL     1       2.045  12.588  19.174  0.00  0.00    +0.000 A 
ATOM      4  C   UNL     1       2.284  13.904  18.786  0.00  0.00    +0.000 A 
ATOM      5  C   UNL     1       1.217  14.730  18.493  0.00  0.00    +0.000 A 
ATOM      6  C   UNL     1      -0.081  14.224  18.560  0.00  0.00    +0.000 A 
ATOM      7  C   UNL     1      -0.364  12.874  18.883  0.00  0.00    +0.000 A 
BRANCH   7   8
ATOM      8  N   UNL     1      -1.672  12.399  18.739  0.00  0.00    +0.000 N 
ATOM      9  C   UNL     1      -2.477  12.203  19.961  0.00  0.00    +0.000 C 
ATOM     10  C   UNL     1      -3.932  12.486  19.602  0.00  0.00    +0.000 C 
ATOM     11  C   UNL     1      -4.414  11.603  18.451  0.00  0.00    +0.000 C 
ATOM     12  C   UNL     1      -3.429  11.551  17.275  0.00  0.00    +0.000 C 
ATOM     13  C   UNL     1      -1.974  11.359  17.748  0.00  0.00    +0.000 C 
BRANCH  12  14
ATOM     14  O   UNL     1      -3.806  10.489  16.398  0.00  0.00    +0.000 OA
ATOM     15  H   UNL     1      -4.659  10.739  16.002  0.00  0.00    +0.000 HD
ENDBRANCH  12  14
ENDBRANCH   7   8
ENDBRANCH   1   2
BRANCH   1  18
ATOM     16  C   UNL     1       1.724   9.014  17.996  0.00  0.00    +0.000 C 
ATOM     17  O   UNL     1       0.709   8.884  17.317  0.00  0.00    +0.000 OA
ATOM     18  N   UNL     1       1.730   9.734  19.172  0.00  0.00    +0.000 N 
ATOM     19  H   UNL     1       2.575   9.748  19.715  0.00  0.00    +0.000 HD
BRANCH  16  20
ATOM     20  C   UNL     1       3.059   8.310  17.673  0.00  0.00    +0.000 C 
BRANCH  20  23
ATOM     21  C   UNL     1       2.217   4.745  18.904  0.00  0.00    +0.000 A 
ATOM     22  C   UNL     1       2.247   6.152  18.769  0.00  0.00    +0.000 A 
ATOM     23  C   UNL     1       3.148   6.808  17.893  0.00  0.00    +0.000 A 
ATOM     24  C   UNL     1       4.021   6.002  17.156  0.00  0.00    +0.000 A 
ATOM     25  C   UNL     1       3.970   4.606  17.248  0.00  0.00    +0.000 A 
ATOM     26  C   UNL     1       3.040   3.970  18.084  0.00  0.00    +0.000 A 
BRANCH  26  27
ATOM     27  C   UNL     1       2.966   2.496  17.945  0.00  0.00    +0.000 C 
ATOM     28  O   UNL     1       3.950   1.781  17.871  0.00  0.00    +0.000 OA
BRANCH  27  29
ATOM     29  O   UNL     1       1.703   2.031  17.835  0.00  0.00    +0.000 OA
ATOM     30  H   UNL     1       1.214   2.005  18.682  0.00  0.00    +0.000 HD
ENDBRANCH  27  29
ENDBRANCH  26  27
BRANCH  21  31
ATOM     31  O   UNL     1       1.283   4.276  19.797  0.00  0.00    +0.000 OA
BRANCH  31  33
ATOM     32  C   UNL     1       1.637   2.613  21.524  0.00  0.00    +0.000 C 
ATOM     33  C   UNL     1       1.700   4.083  21.159  0.00  0.00    +0.000 C 
ENDBRANCH  31  33
ENDBRANCH  21  31
ENDBRANCH  20  23
ENDBRANCH  16  20
ENDBRANCH   1  18
BRANCH   1  34
ATOM     34  C   UNL     1       0.622  10.511  21.233  0.00  0.00    +0.000 C 
BRANCH  34  35
ATOM     35  C   UNL     1      -0.169   9.384  21.936  0.00  0.00    +0.000 C 
ATOM     36  C   UNL     1       0.483   8.035  21.593  0.00  0.00    +0.000 C 
ATOM     37  C   UNL     1      -0.260   9.503  23.459  0.00  0.00    +0.000 C 
ENDBRANCH  34  35
ENDBRANCH   1  34
TORSDOF 12
ENDMDL
