MODEL 1
REMARK VINA RESULT:      -8.0      0.000      0.000
REMARK  Name = 
REMARK  6 active torsions:
REMARK  status: ('A' for Active; 'I' for Inactive)
REMARK    1  A    between atoms: C_1  and  C_2
REMARK    2  A    between atoms: C_4  and  C_5
REMARK    3  A    between atoms: N_6  and  C_7
REMARK    4  A    between atoms: C_7  and  C_8
REMARK    5  A    between atoms: C_11  and  C_12
REMARK    6  A    between atoms: N_14  and  C_15
REMARK                            x       y       z     vdW  Elec       q    Type
REMARK                         _______ _______ _______ _____ _____    ______ ____
ROOT
ATOM      1  C   UNL     1       6.664   6.341  17.026  0.00  0.00    +0.000 A 
ATOM      2  C   UNL     1       7.424   5.780  18.031  0.00  0.00    +0.000 A 
ATOM      3  C   UNL     1       8.148   6.833  18.612  0.00  0.00    +0.000 A 
ATOM      4  C   UNL     1       7.806   7.991  17.937  0.00  0.00    +0.000 A 
ATOM      5  O   UNL     1       6.882   7.700  16.962  0.00  0.00    +0.000 OA
ENDROOT
BRANCH   4   6
ATOM      6  C   UNL     1       8.331   9.322  18.195  0.00  0.00    +0.000 C 
ATOM      7  O   UNL     1       7.999  10.241  17.452  0.00  0.00    +0.000 OA
ATOM      8  N   UNL     1       9.213   9.477  19.257  0.00  0.00    +0.000 N 
ATOM      9  H   UNL     1       9.550   8.631  19.699  0.00  0.00    +0.000 HD
BRANCH   8  10
ATOM     10  C   UNL     1       9.791  10.719  19.643  0.00  0.00    +0.000 A 
ATOM     11  C   UNL     1      10.832  11.328  18.925  0.00  0.00    +0.000 A 
ATOM     12  C   UNL     1      11.428  12.513  19.365  0.00  0.00    +0.000 A 
ATOM     13  C   UNL     1      10.978  13.124  20.526  0.00  0.00    +0.000 A 
ATOM     14  C   UNL     1       9.916  12.558  21.232  0.00  0.00    +0.000 A 
ATOM     15  C   UNL     1       9.318  11.367  20.788  0.00  0.00    +0.000 A 
ENDBRANCH   8  10
ENDBRANCH   4   6
BRANCH   1  16
ATOM     16  C   UNL     1       5.684   5.718  16.099  0.00  0.00    +0.000 C 
BRANCH  16  22
ATOM     17  C   UNL     1       3.178   1.976  17.921  0.00  0.00    +0.000 C 
ATOM     18  C   UNL     1       3.550   3.385  17.644  0.00  0.00    +0.000 A 
ATOM     19  C   UNL     1       2.906   4.554  18.105  0.00  0.00    +0.000 A 
ATOM     20  C   UNL     1       3.625   5.604  17.578  0.00  0.00    +0.000 A 
ATOM     21  C   UNL     1       3.442   7.067  17.716  0.00  0.00    +0.000 C 
ATOM     22  N   UNL     1       4.622   5.031  16.826  0.00  0.00    +0.000 N 
ATOM     23  N   UNL     1       4.612   3.677  16.882  0.00  0.00    +0.000 NA
ENDBRANCH  16  22
ENDBRANCH   1  16
TORSDOF 4
ENDMDL
MODEL 2
REMARK VINA RESULT:      -8.0      0.083      1.027
REMARK  Name = 
REMARK  6 active torsions:
REMARK  status: ('A' for Active; 'I' for Inactive)
REMARK    1  A    between atoms: C_1  and  C_2
REMARK    2  A    between atoms: C_4  and  C_5
REMARK    3  A    between atoms: N_6  and  C_7
REMARK    4  A    between atoms: C_7  and  C_8
REMARK    5  A    between atoms: C_11  and  C_12
REMARK    6  A    between atoms: N_14  and  C_15
REMARK                            x       y       z     vdW  Elec       q    Type
REMARK                         _______ _______ _______ _____ _____    ______ ____
ROOT
ATOM      1  C   UNL     1       6.667   6.408  17.030  0.00  0.00    +0.000 A 
ATOM      2  C   UNL     1       7.427   5.829  18.025  0.00  0.00    +0.000 A 
ATOM      3  C   UNL     1       8.160   6.869  18.618  0.00  0.00    +0.000 A 
ATOM      4  C   UNL     1       7.823   8.039  17.960  0.00  0.00    +0.000 A 
ATOM      5  O   UNL     1       6.894   7.767  16.984  0.00  0.00    +0.000 OA
ENDROOT
BRANCH   4   6
ATOM      6  C   UNL     1       8.358   9.363  18.233  0.00  0.00    +0.000 C 
ATOM      7  O   UNL     1       8.039  10.291  17.496  0.00  0.00    +0.000 OA
ATOM      8  N   UNL     1       9.233   9.500  19.304  0.00  0.00    +0.000 N 
ATOM      9  H   UNL     1       9.559   8.647  19.740  0.00  0.00    +0.000 HD
BRANCH   8  10
ATOM     10  C   UNL     1       9.819  10.733  19.705  0.00  0.00    +0.000 A 
ATOM     11  C   UNL     1       9.398  11.439  20.843  0.00  0.00    +0.000 A 
ATOM     12  C   UNL     1       9.944  12.682  21.175  0.00  0.00    +0.000 A 
ATOM     13  C   UNL     1      10.940  13.235  20.382  0.00  0.00    +0.000 A 
ATOM     14  C   UNL     1      11.402  12.530  19.271  0.00  0.00    +0.000 A 
ATOM     15  C   UNL     1      10.853  11.281  18.939  0.00  0.00    +0.000 A 
ENDBRANCH   8  10
ENDBRANCH   4   6
BRANCH   1  16
ATOM     16  C   UNL     1       5.680   5.804  16.099  0.00  0.00    +0.000 C 
BRANCH  16  22
ATOM     17  C   UNL     1       3.192   2.027  17.872  0.00  0.00    +0.000 C 
ATOM     18  C   UNL     1       3.559   3.441  17.616  0.00  0.00    +0.000 A 
ATOM     19  C   UNL     1       2.915   4.601  18.100  0.00  0.00    +0.000 A 
ATOM     20  C   UNL     1       3.629   5.661  17.587  0.00  0.00    +0.000 A 
ATOM     21  C   UNL     1       3.444   7.121  17.750  0.00  0.00    +0.000 C 
ATOM     22  N   UNL     1       4.623   5.103  16.820  0.00  0.00    +0.000 N 
ATOM     23  N   UNL     1       4.617   3.748  16.854  0.00  0.00    +0.000 NA
ENDBRANCH  16  22
ENDBRANCH   1  16
TORSDOF 4
ENDMDL
MODEL 3
REMARK VINA RESULT:      -7.4      0.928      1.814
REMARK  Name = 
REMARK  6 active torsions:
REMARK  status: ('A' for Active; 'I' for Inactive)
REMARK    1  A    between atoms: C_1  and  C_2
REMARK    2  A    between atoms: C_4  and  C_5
REMARK    3  A    between atoms: N_6  and  C_7
REMARK    4  A    between atoms: C_7  and  C_8
REMARK    5  A    between atoms: C_11  and  C_12
REMARK    6  A    between atoms: N_14  and  C_15
REMARK                            x       y       z     vdW  Elec       q    Type
REMARK                         _______ _______ _______ _____ _____    ______ ____
ROOT
ATOM      1  C   UNL     1       6.515   6.975  16.979  0.00  0.00    +0.000 A 
ATOM      2  C   UNL     1       7.328   6.304  17.867  0.00  0.00    +0.000 A 
ATOM      3  C   UNL     1       8.152   7.274  18.459  0.00  0.00    +0.000 A 
ATOM      4  C   UNL     1       7.814   8.496  17.905  0.00  0.00    +0.000 A 
ATOM      5  O   UNL     1       6.796   8.324  16.998  0.00  0.00    +0.000 OA
ENDROOT
BRANCH   4   6
ATOM      6  C   UNL     1       8.426   9.778  18.213  0.00  0.00    +0.000 C 
ATOM      7  O   UNL     1       8.188  10.736  17.483  0.00  0.00    +0.000 OA
ATOM      8  N   UNL     1       9.281   9.843  19.307  0.00  0.00    +0.000 N 
ATOM      9  H   UNL     1       9.538   8.964  19.738  0.00  0.00    +0.000 HD
BRANCH   8  10
ATOM     10  C   UNL     1       9.935  11.029  19.743  0.00  0.00    +0.000 A 
ATOM     11  C   UNL     1       9.424  11.848  20.761  0.00  0.00    +0.000 A 
ATOM     12  C   UNL     1      10.051  13.043  21.122  0.00  0.00    +0.000 A 
ATOM     13  C   UNL     1      11.218  13.433  20.481  0.00  0.00    +0.000 A 
ATOM     14  C   UNL     1      11.766  12.612  19.494  0.00  0.00    +0.000 A 
ATOM     15  C   UNL     1      11.135  11.411  19.134  0.00  0.00    +0.000 A 
ENDBRANCH   8  10
ENDBRANCH   4   6
BRANCH   1  16
ATOM     16  C   UNL     1       5.429   6.471  16.099  0.00  0.00    +0.000 C 
BRANCH  16  22
ATOM     17  C   UNL     1       2.096   4.318  18.902  0.00  0.00    +0.000 C 
ATOM     18  C   UNL     1       3.213   4.445  17.935  0.00  0.00    +0.000 A 
ATOM     19  C   UNL     1       3.903   3.407  17.272  0.00  0.00    +0.000 A 
ATOM     20  C   UNL     1       4.844   4.031  16.486  0.00  0.00    +0.000 A 
ATOM     21  C   UNL     1       5.854   3.473  15.558  0.00  0.00    +0.000 C 
ATOM     22  N   UNL     1       4.696   5.376  16.727  0.00  0.00    +0.000 N 
ATOM     23  N   UNL     1       3.681   5.649  17.583  0.00  0.00    +0.000 NA
ENDBRANCH  16  22
ENDBRANCH   1  16
TORSDOF 4
ENDMDL
MODEL 4
REMARK VINA RESULT:      -7.2      4.202      6.830
REMARK  Name = 
REMARK  6 active torsions:
REMARK  status: ('A' for Active; 'I' for Inactive)
REMARK    1  A    between atoms: C_1  and  C_2
REMARK    2  A    between atoms: C_4  and  C_5
REMARK    3  A    between atoms: N_6  and  C_7
REMARK    4  A    between atoms: C_7  and  C_8
REMARK    5  A    between atoms: C_11  and  C_12
REMARK    6  A    between atoms: N_14  and  C_15
REMARK                            x       y       z     vdW  Elec       q    Type
REMARK                         _______ _______ _______ _____ _____    ______ ____
ROOT
ATOM      1  C   UNL     1       4.010   5.354  19.264  0.00  0.00    +0.000 A 
ATOM      2  C   UNL     1       2.919   5.142  20.081  0.00  0.00    +0.000 A 
ATOM      3  C   UNL     1       2.052   6.225  19.871  0.00  0.00    +0.000 A 
ATOM      4  C   UNL     1       2.649   7.057  18.940  0.00  0.00    +0.000 A 
ATOM      5  O   UNL     1       3.854   6.523  18.550  0.00  0.00    +0.000 OA
ENDROOT
BRANCH   4   6
ATOM      6  C   UNL     1       2.109   8.310  18.437  0.00  0.00    +0.000 C 
ATOM      7  O   UNL     1       2.420   8.675  17.307  0.00  0.00    +0.000 OA
ATOM      8  N   UNL     1       1.290   9.049  19.282  0.00  0.00    +0.000 N 
ATOM      9  H   UNL     1       1.234   8.744  20.246  0.00  0.00    +0.000 HD
BRANCH   8  10
ATOM     10  C   UNL     1       0.674  10.280  18.924  0.00  0.00    +0.000 A 
ATOM     11  C   UNL     1       1.331  11.517  19.028  0.00  0.00    +0.000 A 
ATOM     12  C   UNL     1       0.679  12.718  18.735  0.00  0.00    +0.000 A 
ATOM     13  C   UNL     1      -0.642  12.702  18.311  0.00  0.00    +0.000 A 
ATOM     14  C   UNL     1      -1.300  11.481  18.160  0.00  0.00    +0.000 A 
ATOM     15  C   UNL     1      -0.643  10.275  18.454  0.00  0.00    +0.000 A 
ENDBRANCH   8  10
ENDBRANCH   4   6
BRANCH   1  16
ATOM     16  C   UNL     1       5.223   4.525  19.043  0.00  0.00    +0.000 C 
BRANCH  16  22
ATOM     17  C   UNL     1       5.612   4.141  14.216  0.00  0.00    +0.000 C 
ATOM     18  C   UNL     1       5.925   4.588  15.595  0.00  0.00    +0.000 A 
ATOM     19  C   UNL     1       6.947   5.472  16.005  0.00  0.00    +0.000 A 
ATOM     20  C   UNL     1       6.826   5.568  17.373  0.00  0.00    +0.000 A 
ATOM     21  C   UNL     1       7.604   6.350  18.361  0.00  0.00    +0.000 C 
ATOM     22  N   UNL     1       5.782   4.740  17.712  0.00  0.00    +0.000 N 
ATOM     23  N   UNL     1       5.199   4.160  16.636  0.00  0.00    +0.000 NA
ENDBRANCH  16  22
ENDBRANCH   1  16
TORSDOF 4
ENDMDL
MODEL 5
REMARK VINA RESULT:      -7.2      1.957      2.489
REMARK  Name = 
REMARK  6 active torsions:
REMARK  status: ('A' for Active; 'I' for Inactive)
REMARK    1  A    between atoms: C_1  and  C_2
REMARK    2  A    between atoms: C_4  and  C_5
REMARK    3  A    between atoms: N_6  and  C_7
REMARK    4  A    between atoms: C_7  and  C_8
REMARK    5  A    between atoms: C_11  and  C_12
REMARK    6  A    between atoms: N_14  and  C_15
REMARK                            x       y       z     vdW  Elec       q    Type
REMARK                         _______ _______ _______ _____ _____    ______ ____
ROOT
ATOM      1  C   UNL     1       7.618   6.606  18.030  0.00  0.00    +0.000 A 
ATOM      2  C   UNL     1       6.803   7.374  17.226  0.00  0.00    +0.000 A 
ATOM      3  C   UNL     1       7.219   8.704  17.397  0.00  0.00    +0.000 A 
ATOM      4  C   UNL     1       8.266   8.695  18.302  0.00  0.00    +0.000 A 
ATOM      5  O   UNL     1       8.528   7.403  18.691  0.00  0.00    +0.000 OA
ENDROOT
BRANCH   4   6
ATOM      6  C   UNL     1       8.992   9.858  18.787  0.00  0.00    +0.000 C 
ATOM      7  O   UNL     1       9.159   9.986  19.996  0.00  0.00    +0.000 OA
ATOM      8  N   UNL     1       9.432  10.785  17.850  0.00  0.00    +0.000 N 
ATOM      9  H   UNL     1       9.097  10.670  16.902  0.00  0.00    +0.000 HD
BRANCH   8  10
ATOM     10  C   UNL     1      10.171  11.958  18.171  0.00  0.00    +0.000 A 
ATOM     11  C   UNL     1       9.560  13.200  18.405  0.00  0.00    +0.000 A 
ATOM     12  C   UNL     1      10.314  14.351  18.651  0.00  0.00    +0.000 A 
ATOM     13  C   UNL     1      11.700  14.276  18.687  0.00  0.00    +0.000 A 
ATOM     14  C   UNL     1      12.325  13.042  18.498  0.00  0.00    +0.000 A 
ATOM     15  C   UNL     1      11.565  11.887  18.252  0.00  0.00    +0.000 A 
ENDBRANCH   8  10
ENDBRANCH   4   6
BRANCH   1  16
ATOM     16  C   UNL     1       7.662   5.135  18.230  0.00  0.00    +0.000 C 
BRANCH  16  22
ATOM     17  C   UNL     1       3.318   3.636  19.808  0.00  0.00    +0.000 C 
ATOM     18  C   UNL     1       4.419   3.920  18.854  0.00  0.00    +0.000 A 
ATOM     19  C   UNL     1       4.433   3.693  17.461  0.00  0.00    +0.000 A 
ATOM     20  C   UNL     1       5.669   4.119  17.030  0.00  0.00    +0.000 A 
ATOM     21  C   UNL     1       6.265   4.144  15.674  0.00  0.00    +0.000 C 
ATOM     22  N   UNL     1       6.329   4.545  18.157  0.00  0.00    +0.000 N 
ATOM     23  N   UNL     1       5.568   4.462  19.276  0.00  0.00    +0.000 NA
ENDBRANCH  16  22
ENDBRANCH   1  16
TORSDOF 4
ENDMDL
MODEL 6
REMARK VINA RESULT:      -7.2      0.971      1.951
REMARK  Name = 
REMARK  6 active torsions:
REMARK  status: ('A' for Active; 'I' for Inactive)
REMARK    1  A    between atoms: C_1  and  C_2
REMARK    2  A    between atoms: C_4  and  C_5
REMARK    3  A    between atoms: N_6  and  C_7
REMARK    4  A    between atoms: C_7  and  C_8
REMARK    5  A    between atoms: C_11  and  C_12
REMARK    6  A    between atoms: N_14  and  C_15
REMARK                            x       y       z     vdW  Elec       q    Type
REMARK                         _______ _______ _______ _____ _____    ______ ____
ROOT
ATOM      1  C   UNL     1       6.509   6.664  17.284  0.00  0.00    +0.000 A 
ATOM      2  C   UNL     1       7.452   6.057  18.086  0.00  0.00    +0.000 A 
ATOM      3  C   UNL     1       8.302   7.077  18.538  0.00  0.00    +0.000 A 
ATOM      4  C   UNL     1       7.849   8.265  17.991  0.00  0.00    +0.000 A 
ATOM      5  O   UNL     1       6.735   8.022  17.223  0.00  0.00    +0.000 OA
ENDROOT
BRANCH   4   6
ATOM      6  C   UNL     1       8.443   9.579  18.178  0.00  0.00    +0.000 C 
ATOM      7  O   UNL     1       8.149  10.476  17.393  0.00  0.00    +0.000 OA
ATOM      8  N   UNL     1       9.342   9.741  19.225  0.00  0.00    +0.000 N 
ATOM      9  H   UNL     1       9.640   8.901  19.705  0.00  0.00    +0.000 HD
BRANCH   8  10
ATOM     10  C   UNL     1       9.985  10.969  19.544  0.00  0.00    +0.000 A 
ATOM     11  C   UNL     1      11.107  11.443  18.846  0.00  0.00    +0.000 A 
ATOM     12  C   UNL     1      11.761  12.619  19.225  0.00  0.00    +0.000 A 
ATOM     13  C   UNL     1      11.290  13.356  20.302  0.00  0.00    +0.000 A 
ATOM     14  C   UNL     1      10.151  12.924  20.983  0.00  0.00    +0.000 A 
ATOM     15  C   UNL     1       9.495  11.743  20.601  0.00  0.00    +0.000 A 
ENDBRANCH   8  10
ENDBRANCH   4   6
BRANCH   1  16
ATOM     16  C   UNL     1       5.344   6.089  16.562  0.00  0.00    +0.000 C 
BRANCH  16  22
ATOM     17  C   UNL     1       1.844   7.777  19.477  0.00  0.00    +0.000 C 
ATOM     18  C   UNL     1       2.612   6.806  18.661  0.00  0.00    +0.000 A 
ATOM     19  C   UNL     1       2.324   5.440  18.448  0.00  0.00    +0.000 A 
ATOM     20  C   UNL     1       3.325   4.976  17.625  0.00  0.00    +0.000 A 
ATOM     21  C   UNL     1       3.559   3.632  17.049  0.00  0.00    +0.000 C 
ATOM     22  N   UNL     1       4.157   6.049  17.410  0.00  0.00    +0.000 N 
ATOM     23  N   UNL     1       3.718   7.183  18.007  0.00  0.00    +0.000 NA
ENDBRANCH  16  22
ENDBRANCH   1  16
TORSDOF 4
ENDMDL
MODEL 7
REMARK VINA RESULT:      -7.2      5.808      7.468
REMARK  Name = 
REMARK  6 active torsions:
REMARK  status: ('A' for Active; 'I' for Inactive)
REMARK    1  A    between atoms: C_1  and  C_2
REMARK    2  A    between atoms: C_4  and  C_5
REMARK    3  A    between atoms: N_6  and  C_7
REMARK    4  A    between atoms: C_7  and  C_8
REMARK    5  A    between atoms: C_11  and  C_12
REMARK    6  A    between atoms: N_14  and  C_15
REMARK                            x       y       z     vdW  Elec       q    Type
REMARK                         _______ _______ _______ _____ _____    ______ ____
ROOT
ATOM      1  C   UNL     1       2.830   7.227  18.857  0.00  0.00    +0.000 A 
ATOM      2  C   UNL     1       2.811   7.901  17.654  0.00  0.00    +0.000 A 
ATOM      3  C   UNL     1       1.933   8.983  17.822  0.00  0.00    +0.000 A 
ATOM      4  C   UNL     1       1.447   8.923  19.116  0.00  0.00    +0.000 A 
ATOM      5  O   UNL     1       2.003   7.849  19.768  0.00  0.00    +0.000 OA
ENDROOT
BRANCH   4   6
ATOM      6  C   UNL     1       0.492   9.840  19.718  0.00  0.00    +0.000 C 
ATOM      7  O   UNL     1      -0.576  10.037  19.147  0.00  0.00    +0.000 OA
ATOM      8  N   UNL     1       0.857  10.472  20.901  0.00  0.00    +0.000 N 
ATOM      9  H   UNL     1       1.819  10.369  21.196  0.00  0.00    +0.000 HD
BRANCH   8  10
ATOM     10  C   UNL     1       0.022  11.376  21.615  0.00  0.00    +0.000 A 
ATOM     11  C   UNL     1       0.101  12.769  21.459  0.00  0.00    +0.000 A 
ATOM     12  C   UNL     1      -0.683  13.637  22.223  0.00  0.00    +0.000 A 
ATOM     13  C   UNL     1      -1.581  13.124  23.149  0.00  0.00    +0.000 A 
ATOM     14  C   UNL     1      -1.705  11.741  23.290  0.00  0.00    +0.000 A 
ATOM     15  C   UNL     1      -0.917  10.871  22.520  0.00  0.00    +0.000 A 
ENDBRANCH   8  10
ENDBRANCH   4   6
BRANCH   1  16
ATOM     16  C   UNL     1       3.601   6.028  19.277  0.00  0.00    +0.000 C 
BRANCH  16  22
ATOM     17  C   UNL     1       0.598   2.243  18.769  0.00  0.00    +0.000 C 
ATOM     18  C   UNL     1       1.713   3.171  18.463  0.00  0.00    +0.000 A 
ATOM     19  C   UNL     1       2.608   3.115  17.372  0.00  0.00    +0.000 A 
ATOM     20  C   UNL     1       3.453   4.190  17.532  0.00  0.00    +0.000 A 
ATOM     21  C   UNL     1       4.587   4.661  16.704  0.00  0.00    +0.000 C 
ATOM     22  N   UNL     1       3.053   4.808  18.693  0.00  0.00    +0.000 N 
ATOM     23  N   UNL     1       1.970   4.219  19.256  0.00  0.00    +0.000 NA
ENDBRANCH  16  22
ENDBRANCH   1  16
TORSDOF 4
ENDMDL
MODEL 8
REMARK VINA RESULT:      -7.1      1.510      1.571
REMARK  Name = 
REMARK  6 active torsions:
REMARK  status: ('A' for Active; 'I' for Inactive)
REMARK    1  A    between atoms: C_1  and  C_2
REMARK    2  A    between atoms: C_4  and  C_5
REMARK    3  A    between atoms: N_6  and  C_7
REMARK    4  A    between atoms: C_7  and  C_8
REMARK    5  A    between atoms: C_11  and  C_12
REMARK    6  A    between atoms: N_14  and  C_15
REMARK                            x       y       z     vdW  Elec       q    Type
REMARK                         _______ _______ _______ _____ _____    ______ ____
ROOT
ATOM      1  C   UNL     1       6.530   6.845  17.109  0.00  0.00    +0.000 A 
ATOM      2  C   UNL     1       7.283   6.093  17.987  0.00  0.00    +0.000 A 
ATOM      3  C   UNL     1       8.170   6.984  18.610  0.00  0.00    +0.000 A 
ATOM      4  C   UNL     1       7.928   8.242  18.085  0.00  0.00    +0.000 A 
ATOM      5  O   UNL     1       6.909   8.169  17.165  0.00  0.00    +0.000 OA
ENDROOT
BRANCH   4   6
ATOM      6  C   UNL     1       8.631   9.467  18.431  0.00  0.00    +0.000 C 
ATOM      7  O   UNL     1       9.248   9.513  19.491  0.00  0.00    +0.000 OA
ATOM      8  N   UNL     1       8.539  10.538  17.551  0.00  0.00    +0.000 N 
ATOM      9  H   UNL     1       7.872  10.452  16.795  0.00  0.00    +0.000 HD
BRANCH   8  10
ATOM     10  C   UNL     1       9.187  11.790  17.744  0.00  0.00    +0.000 A 
ATOM     11  C   UNL     1      10.583  11.930  17.746  0.00  0.00    +0.000 A 
ATOM     12  C   UNL     1      11.195  13.159  18.006  0.00  0.00    +0.000 A 
ATOM     13  C   UNL     1      10.416  14.281  18.252  0.00  0.00    +0.000 A 
ATOM     14  C   UNL     1       9.025  14.172  18.213  0.00  0.00    +0.000 A 
ATOM     15  C   UNL     1       8.413  12.937  17.950  0.00  0.00    +0.000 A 
ENDBRANCH   8  10
ENDBRANCH   4   6
BRANCH   1  16
ATOM     16  C   UNL     1       5.418   6.446  16.208  0.00  0.00    +0.000 C 
BRANCH  16  22
ATOM     17  C   UNL     1       3.241   2.420  17.838  0.00  0.00    +0.000 C 
ATOM     18  C   UNL     1       3.499   3.868  17.641  0.00  0.00    +0.000 A 
ATOM     19  C   UNL     1       2.777   4.954  18.182  0.00  0.00    +0.000 A 
ATOM     20  C   UNL     1       3.403   6.085  17.709  0.00  0.00    +0.000 A 
ATOM     21  C   UNL     1       3.113   7.519  17.938  0.00  0.00    +0.000 C 
ATOM     22  N   UNL     1       4.426   5.636  16.908  0.00  0.00    +0.000 N 
ATOM     23  N   UNL     1       4.520   4.285  16.883  0.00  0.00    +0.000 NA
ENDBRANCH  16  22
ENDBRANCH   1  16
TORSDOF 4
ENDMDL
MODEL 9
REMARK VINA RESULT:      -7.1      5.790      7.521
REMARK  Name = 
REMARK  6 active torsions:
REMARK  status: ('A' for Active; 'I' for Inactive)
REMARK    1  A    between atoms: C_1  and  C_2
REMARK    2  A    between atoms: C_4  and  C_5
REMARK    3  A    between atoms: N_6  and  C_7
REMARK    4  A    between atoms: C_7  and  C_8
REMARK    5  A    between atoms: C_11  and  C_12
REMARK    6  A    between atoms: N_14  and  C_15
REMARK                            x       y       z     vdW  Elec       q    Type
REMARK                         _______ _______ _______ _____ _____    ______ ____
ROOT
ATOM      1  C   UNL     1       2.869   7.228  18.811  0.00  0.00    +0.000 A 
ATOM      2  C   UNL     1       2.809   7.904  17.610  0.00  0.00    +0.000 A 
ATOM      3  C   UNL     1       1.920   8.973  17.802  0.00  0.00    +0.000 A 
ATOM      4  C   UNL     1       1.469   8.904  19.109  0.00  0.00    +0.000 A 
ATOM      5  O   UNL     1       2.058   7.837  19.744  0.00  0.00    +0.000 OA
ENDROOT
BRANCH   4   6
ATOM      6  C   UNL     1       0.516   9.806  19.737  0.00  0.00    +0.000 C 
ATOM      7  O   UNL     1      -0.521  10.078  19.139  0.00  0.00    +0.000 OA
ATOM      8  N   UNL     1       0.849  10.341  20.976  0.00  0.00    +0.000 N 
ATOM      9  H   UNL     1       1.795  10.185  21.301  0.00  0.00    +0.000 HD
BRANCH   8  10
ATOM     10  C   UNL     1       0.012  11.218  21.719  0.00  0.00    +0.000 A 
ATOM     11  C   UNL     1      -0.936  10.758  22.647  0.00  0.00    +0.000 A 
ATOM     12  C   UNL     1      -1.794  11.638  23.313  0.00  0.00    +0.000 A 
ATOM     13  C   UNL     1      -1.704  13.003  23.078  0.00  0.00    +0.000 A 
ATOM     14  C   UNL     1      -0.740  13.484  22.191  0.00  0.00    +0.000 A 
ATOM     15  C   UNL     1       0.121  12.598  21.523  0.00  0.00    +0.000 A 
ENDBRANCH   8  10
ENDBRANCH   4   6
BRANCH   1  16
ATOM     16  C   UNL     1       3.668   6.041  19.208  0.00  0.00    +0.000 C 
BRANCH  16  22
ATOM     17  C   UNL     1       0.638   2.268  18.780  0.00  0.00    +0.000 C 
ATOM     18  C   UNL     1       1.761   3.180  18.455  0.00  0.00    +0.000 A 
ATOM     19  C   UNL     1       2.659   3.091  17.369  0.00  0.00    +0.000 A 
ATOM     20  C   UNL     1       3.512   4.163  17.506  0.00  0.00    +0.000 A 
ATOM     21  C   UNL     1       4.651   4.607  16.671  0.00  0.00    +0.000 C 
ATOM     22  N   UNL     1       3.113   4.811  18.651  0.00  0.00    +0.000 N 
ATOM     23  N   UNL     1       2.024   4.244  19.225  0.00  0.00    +0.000 NA
ENDBRANCH  16  22
ENDBRANCH   1  16
TORSDOF 4
ENDMDL
