MODEL 1
REMARK VINA RESULT:      -7.8      0.000      0.000
REMARK  Name = 
REMARK  8 active torsions:
REMARK  status: ('A' for Active; 'I' for Inactive)
REMARK    1  A    between atoms: C_1  and  O_2
REMARK    2  A    between atoms: O_2  and  C_3
REMARK    3  A    between atoms: C_7  and  C_8
REMARK    4  A    between atoms: N_10  and  C_11
REMARK    5  A    between atoms: C_11  and  C_12
REMARK    6  A    between atoms: C_11  and  C_13
REMARK    7  A    between atoms: C_13  and  S_14
REMARK    8  A    between atoms: S_14  and  C_15
REMARK                            x       y       z     vdW  Elec       q    Type
REMARK                         _______ _______ _______ _____ _____    ______ ____
ROOT
ATOM      1  C   UNL     1       5.148   4.720  18.493  0.00  0.00    +0.000 C 
ATOM      2  O   UNL     1       5.820   4.383  19.462  0.00  0.00    +0.000 OA
ATOM      3  N   UNL     1       3.839   5.145  18.631  0.00  0.00    +0.000 N 
ATOM      4  H   UNL     1       3.283   5.285  17.793  0.00  0.00    +0.000 HD
ENDROOT
BRANCH   1   9
ATOM      5  C   UNL     1       6.711   4.578  14.485  0.00  0.00    +0.000 A 
ATOM      6  C   UNL     1       7.507   5.065  15.518  0.00  0.00    +0.000 A 
ATOM      7  C   UNL     1       7.010   5.094  16.825  0.00  0.00    +0.000 A 
ATOM      8  F   UNL     1       7.828   5.545  17.791  0.00  0.00    +0.000 F 
ATOM      9  C   UNL     1       5.717   4.662  17.125  0.00  0.00    +0.000 A 
ATOM     10  C   UNL     1       4.931   4.185  16.075  0.00  0.00    +0.000 A 
ATOM     11  F   UNL     1       3.694   3.716  16.288  0.00  0.00    +0.000 F 
ATOM     12  C   UNL     1       5.417   4.146  14.769  0.00  0.00    +0.000 A 
BRANCH   5  14
ATOM     13  C   UNL     1       6.371   3.543  12.381  0.00  0.00    +0.000 C 
ATOM     14  O   UNL     1       7.070   4.501  13.169  0.00  0.00    +0.000 OA
ENDBRANCH   5  14
ENDBRANCH   1   9
BRANCH   3  15
ATOM     15  C   UNL     1       3.158   5.105  19.917  0.00  0.00    +0.000 C 
ATOM     16  C   UNL     1       2.238   6.328  19.991  0.00  0.00    +0.000 C 
BRANCH  15  17
ATOM     17  C   UNL     1       2.464   3.782  20.125  0.00  0.00    +0.000 C 
ATOM     18  C   UNL     1       3.121   2.615  20.841  0.00  0.00    +0.000 C 
ATOM     19  C   UNL     1       1.932   3.308  21.460  0.00  0.00    +0.000 C 
BRANCH  17  20
ATOM     20  S   UNL     1       1.460   3.223  18.686  0.00  0.00    +0.000 S 
ATOM     21  C   UNL     1       2.424   1.957  17.901  0.00  0.00    +0.000 C 
ATOM     22  O   UNL     1       0.271   2.579  19.215  0.00  0.00    +0.000 OA
ATOM     23  O   UNL     1       1.320   4.346  17.779  0.00  0.00    +0.000 OA
ENDBRANCH  17  20
ENDBRANCH  15  17
ENDBRANCH   3  15
TORSDOF 5
ENDMDL
MODEL 2
REMARK VINA RESULT:      -7.8      0.791      2.000
REMARK  Name = 
REMARK  8 active torsions:
REMARK  status: ('A' for Active; 'I' for Inactive)
REMARK    1  A    between atoms: C_1  and  O_2
REMARK    2  A    between atoms: O_2  and  C_3
REMARK    3  A    between atoms: C_7  and  C_8
REMARK    4  A    between atoms: N_10  and  C_11
REMARK    5  A    between atoms: C_11  and  C_12
REMARK    6  A    between atoms: C_11  and  C_13
REMARK    7  A    between atoms: C_13  and  S_14
REMARK    8  A    between atoms: S_14  and  C_15
REMARK                            x       y       z     vdW  Elec       q    Type
REMARK                         _______ _______ _______ _____ _____    ______ ____
ROOT
ATOM      1  C   UNL     1       5.153   4.790  18.358  0.00  0.00    +0.000 C 
ATOM      2  O   UNL     1       5.867   4.454  19.297  0.00  0.00    +0.000 OA
ATOM      3  N   UNL     1       3.839   5.176  18.548  0.00  0.00    +0.000 N 
ATOM      4  H   UNL     1       3.250   5.316  17.733  0.00  0.00    +0.000 HD
ENDROOT
BRANCH   1   9
ATOM      5  C   UNL     1       6.764   4.719  14.367  0.00  0.00    +0.000 A 
ATOM      6  C   UNL     1       5.479   4.236  14.600  0.00  0.00    +0.000 A 
ATOM      7  C   UNL     1       4.944   4.276  15.892  0.00  0.00    +0.000 A 
ATOM      8  F   UNL     1       3.690   3.827  16.059  0.00  0.00    +0.000 F 
ATOM      9  C   UNL     1       5.677   4.774  16.971  0.00  0.00    +0.000 A 
ATOM     10  C   UNL     1       6.966   5.245  16.719  0.00  0.00    +0.000 A 
ATOM     11  F   UNL     1       7.717   5.775  17.695  0.00  0.00    +0.000 F 
ATOM     12  C   UNL     1       7.508   5.215  15.436  0.00  0.00    +0.000 A 
BRANCH   5  14
ATOM     13  C   UNL     1       6.908   3.834  12.174  0.00  0.00    +0.000 C 
ATOM     14  O   UNL     1       7.405   4.732  13.161  0.00  0.00    +0.000 OA
ENDBRANCH   5  14
ENDBRANCH   1   9
BRANCH   3  15
ATOM     15  C   UNL     1       3.203   5.092  19.856  0.00  0.00    +0.000 C 
ATOM     16  C   UNL     1       2.304   6.323  20.012  0.00  0.00    +0.000 C 
BRANCH  15  17
ATOM     17  C   UNL     1       2.499   3.770  20.035  0.00  0.00    +0.000 C 
ATOM     18  C   UNL     1       2.984   2.708  21.005  0.00  0.00    +0.000 C 
ATOM     19  C   UNL     1       1.672   3.412  21.252  0.00  0.00    +0.000 C 
BRANCH  17  20
ATOM     20  S   UNL     1       1.871   3.032  18.469  0.00  0.00    +0.000 S 
ATOM     21  C   UNL     1       0.464   2.058  18.938  0.00  0.00    +0.000 C 
ATOM     22  O   UNL     1       1.374   4.122  17.649  0.00  0.00    +0.000 OA
ATOM     23  O   UNL     1       2.902   2.158  17.946  0.00  0.00    +0.000 OA
ENDBRANCH  17  20
ENDBRANCH  15  17
ENDBRANCH   3  15
TORSDOF 5
ENDMDL
MODEL 3
REMARK VINA RESULT:      -7.7      0.965      1.109
REMARK  Name = 
REMARK  8 active torsions:
REMARK  status: ('A' for Active; 'I' for Inactive)
REMARK    1  A    between atoms: C_1  and  O_2
REMARK    2  A    between atoms: O_2  and  C_3
REMARK    3  A    between atoms: C_7  and  C_8
REMARK    4  A    between atoms: N_10  and  C_11
REMARK    5  A    between atoms: C_11  and  C_12
REMARK    6  A    between atoms: C_11  and  C_13
REMARK    7  A    between atoms: C_13  and  S_14
REMARK    8  A    between atoms: S_14  and  C_15
REMARK                            x       y       z     vdW  Elec       q    Type
REMARK                         _______ _______ _______ _____ _____    ______ ____
ROOT
ATOM      1  C   UNL     1       5.250   4.864  18.362  0.00  0.00    +0.000 C 
ATOM      2  O   UNL     1       5.962   4.645  19.336  0.00  0.00    +0.000 OA
ATOM      3  N   UNL     1       3.904   5.152  18.497  0.00  0.00    +0.000 N 
ATOM      4  H   UNL     1       3.329   5.194  17.661  0.00  0.00    +0.000 HD
ENDROOT
BRANCH   1   9
ATOM      5  C   UNL     1       6.794   4.660  14.348  0.00  0.00    +0.000 A 
ATOM      6  C   UNL     1       7.141   5.732  15.167  0.00  0.00    +0.000 A 
ATOM      7  C   UNL     1       6.658   5.792  16.478  0.00  0.00    +0.000 A 
ATOM      8  F   UNL     1       7.047   6.829  17.237  0.00  0.00    +0.000 F 
ATOM      9  C   UNL     1       5.812   4.806  16.990  0.00  0.00    +0.000 A 
ATOM     10  C   UNL     1       5.468   3.745  16.153  0.00  0.00    +0.000 A 
ATOM     11  F   UNL     1       4.692   2.740  16.583  0.00  0.00    +0.000 F 
ATOM     12  C   UNL     1       5.947   3.672  14.846  0.00  0.00    +0.000 A 
BRANCH   5  14
ATOM     13  C   UNL     1       6.439   3.547  12.287  0.00  0.00    +0.000 C 
ATOM     14  O   UNL     1       7.189   4.485  13.053  0.00  0.00    +0.000 OA
ENDBRANCH   5  14
ENDBRANCH   1   9
BRANCH   3  15
ATOM     15  C   UNL     1       3.241   5.096  19.791  0.00  0.00    +0.000 C 
ATOM     16  C   UNL     1       2.355   6.341  19.911  0.00  0.00    +0.000 C 
BRANCH  15  17
ATOM     17  C   UNL     1       2.515   3.786  19.976  0.00  0.00    +0.000 C 
ATOM     18  C   UNL     1       2.988   2.717  20.943  0.00  0.00    +0.000 C 
ATOM     19  C   UNL     1       1.690   3.443  21.197  0.00  0.00    +0.000 C 
BRANCH  17  20
ATOM     20  S   UNL     1       1.866   3.058  18.414  0.00  0.00    +0.000 S 
ATOM     21  C   UNL     1       0.387   2.194  18.875  0.00  0.00    +0.000 C 
ATOM     22  O   UNL     1       1.461   4.161  17.560  0.00  0.00    +0.000 OA
ATOM     23  O   UNL     1       2.844   2.103  17.930  0.00  0.00    +0.000 OA
ENDBRANCH  17  20
ENDBRANCH  15  17
ENDBRANCH   3  15
TORSDOF 5
ENDMDL
MODEL 4
REMARK VINA RESULT:      -7.6      1.165      1.679
REMARK  Name = 
REMARK  8 active torsions:
REMARK  status: ('A' for Active; 'I' for Inactive)
REMARK    1  A    between atoms: C_1  and  O_2
REMARK    2  A    between atoms: O_2  and  C_3
REMARK    3  A    between atoms: C_7  and  C_8
REMARK    4  A    between atoms: N_10  and  C_11
REMARK    5  A    between atoms: C_11  and  C_12
REMARK    6  A    between atoms: C_11  and  C_13
REMARK    7  A    between atoms: C_13  and  S_14
REMARK    8  A    between atoms: S_14  and  C_15
REMARK                            x       y       z     vdW  Elec       q    Type
REMARK                         _______ _______ _______ _____ _____    ______ ____
ROOT
ATOM      1  C   UNL     1       4.827   5.379  18.743  0.00  0.00    +0.000 C 
ATOM      2  O   UNL     1       5.501   5.589  19.746  0.00  0.00    +0.000 OA
ATOM      3  N   UNL     1       3.477   5.094  18.822  0.00  0.00    +0.000 N 
ATOM      4  H   UNL     1       2.992   4.798  17.982  0.00  0.00    +0.000 HD
ENDROOT
BRANCH   1   9
ATOM      5  C   UNL     1       6.661   5.354  14.848  0.00  0.00    +0.000 A 
ATOM      6  C   UNL     1       5.525   6.128  15.070  0.00  0.00    +0.000 A 
ATOM      7  C   UNL     1       4.938   6.155  16.339  0.00  0.00    +0.000 A 
ATOM      8  F   UNL     1       3.863   6.941  16.510  0.00  0.00    +0.000 F 
ATOM      9  C   UNL     1       5.452   5.404  17.398  0.00  0.00    +0.000 A 
ATOM     10  C   UNL     1       6.585   4.628  17.154  0.00  0.00    +0.000 A 
ATOM     11  F   UNL     1       7.162   3.910  18.128  0.00  0.00    +0.000 F 
ATOM     12  C   UNL     1       7.182   4.596  15.895  0.00  0.00    +0.000 A 
BRANCH   5  14
ATOM     13  C   UNL     1       6.894   4.182  12.802  0.00  0.00    +0.000 C 
ATOM     14  O   UNL     1       7.325   5.233  13.660  0.00  0.00    +0.000 OA
ENDBRANCH   5  14
ENDBRANCH   1   9
BRANCH   3  15
ATOM     15  C   UNL     1       2.812   4.916  20.105  0.00  0.00    +0.000 C 
ATOM     16  C   UNL     1       1.926   6.144  20.341  0.00  0.00    +0.000 C 
BRANCH  15  17
ATOM     17  C   UNL     1       2.086   3.595  20.164  0.00  0.00    +0.000 C 
ATOM     18  C   UNL     1       2.555   2.440  21.031  0.00  0.00    +0.000 C 
ATOM     19  C   UNL     1       1.255   3.140  21.344  0.00  0.00    +0.000 C 
BRANCH  17  20
ATOM     20  S   UNL     1       1.446   3.014  18.538  0.00  0.00    +0.000 S 
ATOM     21  C   UNL     1       2.758   2.050  17.832  0.00  0.00    +0.000 C 
ATOM     22  O   UNL     1       0.351   2.099  18.808  0.00  0.00    +0.000 OA
ATOM     23  O   UNL     1       1.214   4.181  17.710  0.00  0.00    +0.000 OA
ENDBRANCH  17  20
ENDBRANCH  15  17
ENDBRANCH   3  15
TORSDOF 5
ENDMDL
MODEL 5
REMARK VINA RESULT:      -7.4      1.045      1.045
REMARK  Name = 
REMARK  8 active torsions:
REMARK  status: ('A' for Active; 'I' for Inactive)
REMARK    1  A    between atoms: C_1  and  O_2
REMARK    2  A    between atoms: O_2  and  C_3
REMARK    3  A    between atoms: C_7  and  C_8
REMARK    4  A    between atoms: N_10  and  C_11
REMARK    5  A    between atoms: C_11  and  C_12
REMARK    6  A    between atoms: C_11  and  C_13
REMARK    7  A    between atoms: C_13  and  S_14
REMARK    8  A    between atoms: S_14  and  C_15
REMARK                            x       y       z     vdW  Elec       q    Type
REMARK                         _______ _______ _______ _____ _____    ______ ____
ROOT
ATOM      1  C   UNL     1       4.959   5.337  18.712  0.00  0.00    +0.000 C 
ATOM      2  O   UNL     1       5.595   5.639  19.717  0.00  0.00    +0.000 OA
ATOM      3  N   UNL     1       3.611   5.036  18.771  0.00  0.00    +0.000 N 
ATOM      4  H   UNL     1       3.159   4.664  17.942  0.00  0.00    +0.000 HD
ENDROOT
BRANCH   1   9
ATOM      5  C   UNL     1       6.871   5.221  14.857  0.00  0.00    +0.000 A 
ATOM      6  C   UNL     1       7.479   4.602  15.947  0.00  0.00    +0.000 A 
ATOM      7  C   UNL     1       6.851   4.620  17.197  0.00  0.00    +0.000 A 
ATOM      8  F   UNL     1       7.463   3.984  18.209  0.00  0.00    +0.000 F 
ATOM      9  C   UNL     1       5.628   5.264  17.390  0.00  0.00    +0.000 A 
ATOM     10  C   UNL     1       5.039   5.886  16.289  0.00  0.00    +0.000 A 
ATOM     11  F   UNL     1       3.847   6.491  16.385  0.00  0.00    +0.000 F 
ATOM     12  C   UNL     1       5.652   5.871  15.037  0.00  0.00    +0.000 A 
BRANCH   5  14
ATOM     13  C   UNL     1       6.967   4.252  12.697  0.00  0.00    +0.000 C 
ATOM     14  O   UNL     1       7.378   5.282  13.590  0.00  0.00    +0.000 OA
ENDBRANCH   5  14
ENDBRANCH   1   9
BRANCH   3  15
ATOM     15  C   UNL     1       2.906   4.950  20.042  0.00  0.00    +0.000 C 
ATOM     16  C   UNL     1       2.056   6.217  20.186  0.00  0.00    +0.000 C 
BRANCH  15  17
ATOM     17  C   UNL     1       2.134   3.659  20.152  0.00  0.00    +0.000 C 
ATOM     18  C   UNL     1       2.565   2.522  21.061  0.00  0.00    +0.000 C 
ATOM     19  C   UNL     1       1.290   3.278  21.349  0.00  0.00    +0.000 C 
BRANCH  17  20
ATOM     20  S   UNL     1       1.470   3.040  18.550  0.00  0.00    +0.000 S 
ATOM     21  C   UNL     1       2.750   2.015  17.873  0.00  0.00    +0.000 C 
ATOM     22  O   UNL     1       0.350   2.167  18.856  0.00  0.00    +0.000 OA
ATOM     23  O   UNL     1       1.268   4.184  17.682  0.00  0.00    +0.000 OA
ENDBRANCH  17  20
ENDBRANCH  15  17
ENDBRANCH   3  15
TORSDOF 5
ENDMDL
MODEL 6
REMARK VINA RESULT:      -7.4      3.480      6.034
REMARK  Name = 
REMARK  8 active torsions:
REMARK  status: ('A' for Active; 'I' for Inactive)
REMARK    1  A    between atoms: C_1  and  O_2
REMARK    2  A    between atoms: O_2  and  C_3
REMARK    3  A    between atoms: C_7  and  C_8
REMARK    4  A    between atoms: N_10  and  C_11
REMARK    5  A    between atoms: C_11  and  C_12
REMARK    6  A    between atoms: C_11  and  C_13
REMARK    7  A    between atoms: C_13  and  S_14
REMARK    8  A    between atoms: S_14  and  C_15
REMARK                            x       y       z     vdW  Elec       q    Type
REMARK                         _______ _______ _______ _____ _____    ______ ____
ROOT
ATOM      1  C   UNL     1       2.676   6.290  19.840  0.00  0.00    +0.000 C 
ATOM      2  O   UNL     1       3.868   6.082  19.638  0.00  0.00    +0.000 OA
ATOM      3  N   UNL     1       1.832   5.294  20.296  0.00  0.00    +0.000 N 
ATOM      4  H   UNL     1       0.834   5.476  20.321  0.00  0.00    +0.000 HD
ENDROOT
BRANCH   1   9
ATOM      5  C   UNL     1       0.948  10.140  18.987  0.00  0.00    +0.000 A 
ATOM      6  C   UNL     1       0.843   9.606  20.269  0.00  0.00    +0.000 A 
ATOM      7  C   UNL     1       1.421   8.365  20.556  0.00  0.00    +0.000 A 
ATOM      8  F   UNL     1       1.318   7.908  21.814  0.00  0.00    +0.000 F 
ATOM      9  C   UNL     1       2.090   7.628  19.577  0.00  0.00    +0.000 A 
ATOM     10  C   UNL     1       2.177   8.175  18.297  0.00  0.00    +0.000 A 
ATOM     11  F   UNL     1       2.838   7.547  17.314  0.00  0.00    +0.000 F 
ATOM     12  C   UNL     1       1.611   9.413  18.000  0.00  0.00    +0.000 A 
BRANCH   5  14
ATOM     13  C   UNL     1       1.123  12.503  18.991  0.00  0.00    +0.000 C 
ATOM     14  O   UNL     1       0.426  11.333  18.574  0.00  0.00    +0.000 OA
ENDBRANCH   5  14
ENDBRANCH   1   9
BRANCH   3  15
ATOM     15  C   UNL     1       2.291   3.921  20.450  0.00  0.00    +0.000 C 
ATOM     16  C   UNL     1       1.445   3.272  21.551  0.00  0.00    +0.000 C 
BRANCH  15  17
ATOM     17  C   UNL     1       2.277   3.190  19.131  0.00  0.00    +0.000 C 
ATOM     18  C   UNL     1       1.149   2.260  18.721  0.00  0.00    +0.000 C 
ATOM     19  C   UNL     1       1.370   3.553  17.975  0.00  0.00    +0.000 C 
BRANCH  17  20
ATOM     20  S   UNL     1       3.920   2.544  18.609  0.00  0.00    +0.000 S 
ATOM     21  C   UNL     1       4.377   3.506  17.190  0.00  0.00    +0.000 C 
ATOM     22  O   UNL     1       4.866   2.873  19.662  0.00  0.00    +0.000 OA
ATOM     23  O   UNL     1       3.748   1.161  18.211  0.00  0.00    +0.000 OA
ENDBRANCH  17  20
ENDBRANCH  15  17
ENDBRANCH   3  15
TORSDOF 5
ENDMDL
MODEL 7
REMARK VINA RESULT:      -7.4      3.421      6.712
REMARK  Name = 
REMARK  8 active torsions:
REMARK  status: ('A' for Active; 'I' for Inactive)
REMARK    1  A    between atoms: C_1  and  O_2
REMARK    2  A    between atoms: O_2  and  C_3
REMARK    3  A    between atoms: C_7  and  C_8
REMARK    4  A    between atoms: N_10  and  C_11
REMARK    5  A    between atoms: C_11  and  C_12
REMARK    6  A    between atoms: C_11  and  C_13
REMARK    7  A    between atoms: C_13  and  S_14
REMARK    8  A    between atoms: S_14  and  C_15
REMARK                            x       y       z     vdW  Elec       q    Type
REMARK                         _______ _______ _______ _____ _____    ______ ____
ROOT
ATOM      1  C   UNL     1       3.253   6.173  18.951  0.00  0.00    +0.000 C 
ATOM      2  O   UNL     1       3.799   5.710  19.947  0.00  0.00    +0.000 OA
ATOM      3  N   UNL     1       3.345   5.552  17.719  0.00  0.00    +0.000 N 
ATOM      4  H   UNL     1       2.992   6.038  16.901  0.00  0.00    +0.000 HD
ENDROOT
BRANCH   1   9
ATOM      5  C   UNL     1       1.001   9.839  19.090  0.00  0.00    +0.000 A 
ATOM      6  C   UNL     1       0.961   8.964  20.173  0.00  0.00    +0.000 A 
ATOM      7  C   UNL     1       1.707   7.781  20.140  0.00  0.00    +0.000 A 
ATOM      8  F   UNL     1       1.659   6.986  21.221  0.00  0.00    +0.000 F 
ATOM      9  C   UNL     1       2.485   7.439  19.033  0.00  0.00    +0.000 A 
ATOM     10  C   UNL     1       2.506   8.324  17.954  0.00  0.00    +0.000 A 
ATOM     11  F   UNL     1       3.259   8.086  16.871  0.00  0.00    +0.000 F 
ATOM     12  C   UNL     1       1.771   9.508  17.977  0.00  0.00    +0.000 A 
BRANCH   5  14
ATOM     13  C   UNL     1       0.222  11.791  20.183  0.00  0.00    +0.000 C 
ATOM     14  O   UNL     1       0.319  11.018  18.991  0.00  0.00    +0.000 OA
ENDBRANCH   5  14
ENDBRANCH   1   9
BRANCH   3  15
ATOM     15  C   UNL     1       4.188   4.382  17.519  0.00  0.00    +0.000 C 
ATOM     16  C   UNL     1       3.313   3.280  16.912  0.00  0.00    +0.000 C 
BRANCH  15  17
ATOM     17  C   UNL     1       5.416   4.726  16.713  0.00  0.00    +0.000 C 
ATOM     18  C   UNL     1       5.687   4.138  15.340  0.00  0.00    +0.000 C 
ATOM     19  C   UNL     1       5.400   5.613  15.487  0.00  0.00    +0.000 C 
BRANCH  17  20
ATOM     20  S   UNL     1       6.956   4.870  17.712  0.00  0.00    +0.000 S 
ATOM     21  C   UNL     1       7.298   6.609  17.803  0.00  0.00    +0.000 C 
ATOM     22  O   UNL     1       6.638   4.433  19.060  0.00  0.00    +0.000 OA
ATOM     23  O   UNL     1       8.023   4.213  16.981  0.00  0.00    +0.000 OA
ENDBRANCH  17  20
ENDBRANCH  15  17
ENDBRANCH   3  15
TORSDOF 5
ENDMDL
MODEL 8
REMARK VINA RESULT:      -7.4      3.493      6.024
REMARK  Name = 
REMARK  8 active torsions:
REMARK  status: ('A' for Active; 'I' for Inactive)
REMARK    1  A    between atoms: C_1  and  O_2
REMARK    2  A    between atoms: O_2  and  C_3
REMARK    3  A    between atoms: C_7  and  C_8
REMARK    4  A    between atoms: N_10  and  C_11
REMARK    5  A    between atoms: C_11  and  C_12
REMARK    6  A    between atoms: C_11  and  C_13
REMARK    7  A    between atoms: C_13  and  S_14
REMARK    8  A    between atoms: S_14  and  C_15
REMARK                            x       y       z     vdW  Elec       q    Type
REMARK                         _______ _______ _______ _____ _____    ______ ____
ROOT
ATOM      1  C   UNL     1       2.697   6.313  19.766  0.00  0.00    +0.000 C 
ATOM      2  O   UNL     1       3.893   6.104  19.594  0.00  0.00    +0.000 OA
ATOM      3  N   UNL     1       1.845   5.324  20.223  0.00  0.00    +0.000 N 
ATOM      4  H   UNL     1       0.847   5.503  20.222  0.00  0.00    +0.000 HD
ENDROOT
BRANCH   1   9
ATOM      5  C   UNL     1       1.032  10.207  18.988  0.00  0.00    +0.000 A 
ATOM      6  C   UNL     1       1.720   9.537  17.979  0.00  0.00    +0.000 A 
ATOM      7  C   UNL     1       2.245   8.263  18.222  0.00  0.00    +0.000 A 
ATOM      8  F   UNL     1       2.873   7.647  17.207  0.00  0.00    +0.000 F 
ATOM      9  C   UNL     1       2.114   7.644  19.466  0.00  0.00    +0.000 A 
ATOM     10  C   UNL     1       1.429   8.334  20.467  0.00  0.00    +0.000 A 
ATOM     11  F   UNL     1       1.228   7.791  21.676  0.00  0.00    +0.000 F 
ATOM     12  C   UNL     1       0.897   9.602  20.236  0.00  0.00    +0.000 A 
BRANCH   5  14
ATOM     13  C   UNL     1       1.391  12.540  18.795  0.00  0.00    +0.000 C 
ATOM     14  O   UNL     1       0.478  11.451  18.886  0.00  0.00    +0.000 OA
ENDBRANCH   5  14
ENDBRANCH   1   9
BRANCH   3  15
ATOM     15  C   UNL     1       2.304   3.955  20.412  0.00  0.00    +0.000 C 
ATOM     16  C   UNL     1       1.458   3.336  21.530  0.00  0.00    +0.000 C 
BRANCH  15  17
ATOM     17  C   UNL     1       2.288   3.190  19.113  0.00  0.00    +0.000 C 
ATOM     18  C   UNL     1       1.164   2.242  18.733  0.00  0.00    +0.000 C 
ATOM     19  C   UNL     1       1.373   3.517  17.952  0.00  0.00    +0.000 C 
BRANCH  17  20
ATOM     20  S   UNL     1       3.933   2.541  18.600  0.00  0.00    +0.000 S 
ATOM     21  C   UNL     1       4.384   3.480  17.165  0.00  0.00    +0.000 C 
ATOM     22  O   UNL     1       4.878   2.890  19.646  0.00  0.00    +0.000 OA
ATOM     23  O   UNL     1       3.764   1.150  18.226  0.00  0.00    +0.000 OA
ENDBRANCH  17  20
ENDBRANCH  15  17
ENDBRANCH   3  15
TORSDOF 5
ENDMDL
MODEL 9
REMARK VINA RESULT:      -7.4      3.428      6.782
REMARK  Name = 
REMARK  8 active torsions:
REMARK  status: ('A' for Active; 'I' for Inactive)
REMARK    1  A    between atoms: C_1  and  O_2
REMARK    2  A    between atoms: O_2  and  C_3
REMARK    3  A    between atoms: C_7  and  C_8
REMARK    4  A    between atoms: N_10  and  C_11
REMARK    5  A    between atoms: C_11  and  C_12
REMARK    6  A    between atoms: C_11  and  C_13
REMARK    7  A    between atoms: C_13  and  S_14
REMARK    8  A    between atoms: S_14  and  C_15
REMARK                            x       y       z     vdW  Elec       q    Type
REMARK                         _______ _______ _______ _____ _____    ______ ____
ROOT
ATOM      1  C   UNL     1       3.196   6.225  18.947  0.00  0.00    +0.000 C 
ATOM      2  O   UNL     1       3.713   5.753  19.954  0.00  0.00    +0.000 OA
ATOM      3  N   UNL     1       3.332   5.620  17.711  0.00  0.00    +0.000 N 
ATOM      4  H   UNL     1       3.003   6.115  16.888  0.00  0.00    +0.000 HD
ENDROOT
BRANCH   1   9
ATOM      5  C   UNL     1       0.960   9.890  19.256  0.00  0.00    +0.000 A 
ATOM      6  C   UNL     1       1.725   9.643  18.118  0.00  0.00    +0.000 A 
ATOM      7  C   UNL     1       2.437   8.444  18.005  0.00  0.00    +0.000 A 
ATOM      8  F   UNL     1       3.134   8.241  16.876  0.00  0.00    +0.000 F 
ATOM      9  C   UNL     1       2.418   7.486  19.019  0.00  0.00    +0.000 A 
ATOM     10  C   UNL     1       1.654   7.755  20.155  0.00  0.00    +0.000 A 
ATOM     11  F   UNL     1       1.554   6.867  21.155  0.00  0.00    +0.000 F 
ATOM     12  C   UNL     1       0.936   8.943  20.278  0.00  0.00    +0.000 A 
BRANCH   5  14
ATOM     13  C   UNL     1      -0.263  11.180  20.822  0.00  0.00    +0.000 C 
ATOM     14  O   UNL     1       0.226  11.017  19.495  0.00  0.00    +0.000 OA
ENDBRANCH   5  14
ENDBRANCH   1   9
BRANCH   3  15
ATOM     15  C   UNL     1       4.189   4.457  17.523  0.00  0.00    +0.000 C 
ATOM     16  C   UNL     1       3.320   3.332  16.951  0.00  0.00    +0.000 C 
BRANCH  15  17
ATOM     17  C   UNL     1       5.401   4.802  16.694  0.00  0.00    +0.000 C 
ATOM     18  C   UNL     1       5.660   4.192  15.328  0.00  0.00    +0.000 C 
ATOM     19  C   UNL     1       5.357   5.666  15.453  0.00  0.00    +0.000 C 
BRANCH  17  20
ATOM     20  S   UNL     1       6.953   4.982  17.668  0.00  0.00    +0.000 S 
ATOM     21  C   UNL     1       7.305   6.720  17.679  0.00  0.00    +0.000 C 
ATOM     22  O   UNL     1       6.648   4.606  19.038  0.00  0.00    +0.000 OA
ATOM     23  O   UNL     1       8.008   4.287  16.955  0.00  0.00    +0.000 OA
ENDBRANCH  17  20
ENDBRANCH  15  17
ENDBRANCH   3  15
TORSDOF 5
ENDMDL
