MODEL 1
REMARK VINA RESULT:      -7.9      0.000      0.000
REMARK  Name = 
REMARK  9 active torsions:
REMARK  status: ('A' for Active; 'I' for Inactive)
REMARK    1  A    between atoms: C_1  and  C_2
REMARK    2  A    between atoms: C_2  and  C_3
REMARK    3  A    between atoms: N_5  and  C_6
REMARK    4  A    between atoms: C_9  and  C_10
REMARK    5  A    between atoms: C_15  and  N_16
REMARK    6  A    between atoms: N_16  and  C_17
REMARK    7  A    between atoms: N_16  and  C_18
REMARK    8  A    between atoms: C_18  and  C_19
REMARK    9  A    between atoms: C_19  and  C_20
REMARK                            x       y       z     vdW  Elec       q    Type
REMARK                         _______ _______ _______ _____ _____    ______ ____
ROOT
ATOM      1  C   UNL     1       2.706   6.591  19.413  0.00  0.00    +0.000 C 
ATOM      2  O   UNL     1       2.687   5.908  20.441  0.00  0.00    +0.000 OA
ATOM      3  N   UNL     1       2.043   7.816  19.335  0.00  0.00    +0.000 N 
ATOM      4  C   UNL     1       1.496   8.342  20.585  0.00  0.00    +0.000 C 
ATOM      5  C   UNL     1       0.124   8.954  20.334  0.00  0.00    +0.000 C 
ATOM      6  C   UNL     1       0.251  10.160  19.385  0.00  0.00    +0.000 C 
ATOM      7  C   UNL     1       0.688   9.498  18.054  0.00  0.00    +0.000 C 
ATOM      8  C   UNL     1       2.015   8.748  18.198  0.00  0.00    +0.000 C 
ENDROOT
BRANCH   1  12
ATOM      9  C   UNL     1       4.764   5.061  15.962  0.00  0.00    +0.000 A 
ATOM     10  C   UNL     1       4.916   6.370  16.409  0.00  0.00    +0.000 A 
ATOM     11  C   UNL     1       4.248   6.808  17.551  0.00  0.00    +0.000 A 
ATOM     12  C   UNL     1       3.368   5.963  18.245  0.00  0.00    +0.000 A 
ATOM     13  C   UNL     1       3.112   4.696  17.716  0.00  0.00    +0.000 A 
ATOM     14 CL   UNL     1       1.821   3.673  18.237  0.00  0.00    +0.000 Cl
ATOM     15  C   UNL     1       3.850   4.230  16.615  0.00  0.00    +0.000 A 
BRANCH   9  18
ATOM     16  C   UNL     1       6.784   4.810  14.531  0.00  0.00    +0.000 C 
ATOM     17  O   UNL     1       7.544   5.523  15.178  0.00  0.00    +0.000 OA
ATOM     18  N   UNL     1       5.466   4.533  14.854  0.00  0.00    +0.000 N 
ATOM     19  H   UNL     1       4.987   3.833  14.299  0.00  0.00    +0.000 HD
BRANCH  16  21
ATOM     20  C   UNL     1       6.044   3.484  12.547  0.00  0.00    +0.000 C 
ATOM     21  C   UNL     1       7.231   4.112  13.264  0.00  0.00    +0.000 C 
ENDBRANCH  16  21
ENDBRANCH   9  18
ENDBRANCH   1  12
BRANCH   6  22
ATOM     22  N   UNL     1       1.181  11.242  19.836  0.00  0.00    +0.000 NA
ATOM     23  C   UNL     1       1.788  11.938  18.683  0.00  0.00    +0.000 C 
BRANCH  22  24
ATOM     24  C   UNL     1       0.559  12.284  20.694  0.00  0.00    +0.000 C 
BRANCH  24  25
ATOM     25  C   UNL     1      -0.138  11.815  21.982  0.00  0.00    +0.000 C 
BRANCH  25  26
ATOM     26  C   UNL     1      -1.601  12.171  21.987  0.00  0.00    +0.000 A 
ATOM     27  C   UNL     1      -2.327  12.140  23.186  0.00  0.00    +0.000 A 
ATOM     28  C   UNL     1      -3.675  12.486  23.196  0.00  0.00    +0.000 A 
ATOM     29  C   UNL     1      -4.298  12.874  22.014  0.00  0.00    +0.000 A 
ATOM     30  C   UNL     1      -3.581  12.909  20.816  0.00  0.00    +0.000 A 
ATOM     31  C   UNL     1      -2.236  12.552  20.800  0.00  0.00    +0.000 A 
ENDBRANCH  25  26
ENDBRANCH  24  25
ENDBRANCH  22  24
ENDBRANCH   6  22
TORSDOF 7
ENDMDL
MODEL 2
REMARK VINA RESULT:      -7.9      2.853     10.078
REMARK  Name = 
REMARK  9 active torsions:
REMARK  status: ('A' for Active; 'I' for Inactive)
REMARK    1  A    between atoms: C_1  and  C_2
REMARK    2  A    between atoms: C_2  and  C_3
REMARK    3  A    between atoms: N_5  and  C_6
REMARK    4  A    between atoms: C_9  and  C_10
REMARK    5  A    between atoms: C_15  and  N_16
REMARK    6  A    between atoms: N_16  and  C_17
REMARK    7  A    between atoms: N_16  and  C_18
REMARK    8  A    between atoms: C_18  and  C_19
REMARK    9  A    between atoms: C_19  and  C_20
REMARK                            x       y       z     vdW  Elec       q    Type
REMARK                         _______ _______ _______ _____ _____    ______ ____
ROOT
ATOM      1  C   UNL     1       1.834   8.311  19.016  0.00  0.00    +0.000 C 
ATOM      2  O   UNL     1       2.338   8.826  18.014  0.00  0.00    +0.000 OA
ATOM      3  N   UNL     1       1.940   6.943  19.270  0.00  0.00    +0.000 N 
ATOM      4  C   UNL     1       2.843   6.188  18.402  0.00  0.00    +0.000 C 
ATOM      5  C   UNL     1       2.217   4.845  18.045  0.00  0.00    +0.000 C 
ATOM      6  C   UNL     1       2.037   3.995  19.317  0.00  0.00    +0.000 C 
ATOM      7  C   UNL     1       0.963   4.786  20.104  0.00  0.00    +0.000 C 
ATOM      8  C   UNL     1       1.429   6.207  20.435  0.00  0.00    +0.000 C 
ENDROOT
BRANCH   1  12
ATOM      9  C   UNL     1      -0.413  10.809  21.698  0.00  0.00    +0.000 A 
ATOM     10  C   UNL     1       0.550   9.909  22.139  0.00  0.00    +0.000 A 
ATOM     11  C   UNL     1       1.272   9.142  21.226  0.00  0.00    +0.000 A 
ATOM     12  C   UNL     1       1.010   9.218  19.849  0.00  0.00    +0.000 A 
ATOM     13  C   UNL     1      -0.051  10.020  19.421  0.00  0.00    +0.000 A 
ATOM     14 CL   UNL     1      -0.724   9.965  17.831  0.00  0.00    +0.000 Cl
ATOM     15  C   UNL     1      -0.718  10.852  20.334  0.00  0.00    +0.000 A 
BRANCH   9  18
ATOM     16  C   UNL     1      -0.826  12.994  22.816  0.00  0.00    +0.000 C 
ATOM     17  O   UNL     1       0.087  13.628  22.296  0.00  0.00    +0.000 OA
ATOM     18  N   UNL     1      -1.130  11.666  22.565  0.00  0.00    +0.000 N 
ATOM     19  H   UNL     1      -1.983  11.298  22.972  0.00  0.00    +0.000 HD
BRANCH  16  21
ATOM     20  C   UNL     1      -3.147  12.989  23.739  0.00  0.00    +0.000 C 
ATOM     21  C   UNL     1      -1.767  13.627  23.819  0.00  0.00    +0.000 C 
ENDBRANCH  16  21
ENDBRANCH   9  18
ENDBRANCH   1  12
BRANCH   6  22
ATOM     22  N   UNL     1       3.283   3.746  20.109  0.00  0.00    +0.000 NA
ATOM     23  C   UNL     1       3.039   2.770  21.191  0.00  0.00    +0.000 C 
BRANCH  22  24
ATOM     24  C   UNL     1       4.436   3.240  19.319  0.00  0.00    +0.000 C 
BRANCH  24  25
ATOM     25  C   UNL     1       5.650   4.171  19.166  0.00  0.00    +0.000 C 
BRANCH  25  26
ATOM     26  C   UNL     1       5.960   4.451  17.721  0.00  0.00    +0.000 A 
ATOM     27  C   UNL     1       5.228   3.811  16.709  0.00  0.00    +0.000 A 
ATOM     28  C   UNL     1       5.502   4.082  15.372  0.00  0.00    +0.000 A 
ATOM     29  C   UNL     1       6.496   4.997  15.040  0.00  0.00    +0.000 A 
ATOM     30  C   UNL     1       7.228   5.639  16.042  0.00  0.00    +0.000 A 
ATOM     31  C   UNL     1       6.965   5.362  17.379  0.00  0.00    +0.000 A 
ENDBRANCH  25  26
ENDBRANCH  24  25
ENDBRANCH  22  24
ENDBRANCH   6  22
TORSDOF 7
ENDMDL
MODEL 3
REMARK VINA RESULT:      -7.7      0.598      1.000
REMARK  Name = 
REMARK  9 active torsions:
REMARK  status: ('A' for Active; 'I' for Inactive)
REMARK    1  A    between atoms: C_1  and  C_2
REMARK    2  A    between atoms: C_2  and  C_3
REMARK    3  A    between atoms: N_5  and  C_6
REMARK    4  A    between atoms: C_9  and  C_10
REMARK    5  A    between atoms: C_15  and  N_16
REMARK    6  A    between atoms: N_16  and  C_17
REMARK    7  A    between atoms: N_16  and  C_18
REMARK    8  A    between atoms: C_18  and  C_19
REMARK    9  A    between atoms: C_19  and  C_20
REMARK                            x       y       z     vdW  Elec       q    Type
REMARK                         _______ _______ _______ _____ _____    ______ ____
ROOT
ATOM      1  C   UNL     1       2.814   6.679  19.383  0.00  0.00    +0.000 C 
ATOM      2  O   UNL     1       2.857   5.968  20.392  0.00  0.00    +0.000 OA
ATOM      3  N   UNL     1       2.102   7.879  19.363  0.00  0.00    +0.000 N 
ATOM      4  C   UNL     1       1.580   8.349  20.645  0.00  0.00    +0.000 C 
ATOM      5  C   UNL     1       0.177   8.913  20.459  0.00  0.00    +0.000 C 
ATOM      6  C   UNL     1       0.225  10.148  19.540  0.00  0.00    +0.000 C 
ATOM      7  C   UNL     1       0.640   9.540  18.177  0.00  0.00    +0.000 C 
ATOM      8  C   UNL     1       1.999   8.839  18.254  0.00  0.00    +0.000 C 
ENDROOT
BRANCH   1  12
ATOM      9  C   UNL     1       4.806   5.324  15.823  0.00  0.00    +0.000 A 
ATOM     10  C   UNL     1       4.923   6.625  16.300  0.00  0.00    +0.000 A 
ATOM     11  C   UNL     1       4.280   7.006  17.477  0.00  0.00    +0.000 A 
ATOM     12  C   UNL     1       3.458   6.109  18.177  0.00  0.00    +0.000 A 
ATOM     13  C   UNL     1       3.232   4.847  17.621  0.00  0.00    +0.000 A 
ATOM     14 CL   UNL     1       2.001   3.761  18.157  0.00  0.00    +0.000 Cl
ATOM     15  C   UNL     1       3.948   4.440  16.483  0.00  0.00    +0.000 A 
BRANCH   9  18
ATOM     16  C   UNL     1       6.846   4.589  14.601  0.00  0.00    +0.000 C 
ATOM     17  O   UNL     1       7.646   4.690  15.525  0.00  0.00    +0.000 OA
ATOM     18  N   UNL     1       5.488   4.854  14.677  0.00  0.00    +0.000 N 
ATOM     19  H   UNL     1       4.921   4.615  13.871  0.00  0.00    +0.000 HD
BRANCH  16  21
ATOM     20  C   UNL     1       6.151   3.358  12.540  0.00  0.00    +0.000 C 
ATOM     21  C   UNL     1       7.273   4.129  13.223  0.00  0.00    +0.000 C 
ENDBRANCH  16  21
ENDBRANCH   9  18
ENDBRANCH   1  12
BRANCH   6  22
ATOM     22  N   UNL     1       1.128  11.254  19.990  0.00  0.00    +0.000 NA
ATOM     23  C   UNL     1       1.179  12.340  18.989  0.00  0.00    +0.000 C 
BRANCH  22  24
ATOM     24  C   UNL     1       0.758  11.875  21.288  0.00  0.00    +0.000 C 
BRANCH  24  25
ATOM     25  C   UNL     1      -0.046  13.185  21.240  0.00  0.00    +0.000 C 
BRANCH  25  26
ATOM     26  C   UNL     1      -1.387  13.042  21.907  0.00  0.00    +0.000 A 
ATOM     27  C   UNL     1      -2.473  13.819  21.476  0.00  0.00    +0.000 A 
ATOM     28  C   UNL     1      -3.717  13.675  22.080  0.00  0.00    +0.000 A 
ATOM     29  C   UNL     1      -3.887  12.751  23.106  0.00  0.00    +0.000 A 
ATOM     30  C   UNL     1      -2.811  11.972  23.540  0.00  0.00    +0.000 A 
ATOM     31  C   UNL     1      -1.561  12.122  22.946  0.00  0.00    +0.000 A 
ENDBRANCH  25  26
ENDBRANCH  24  25
ENDBRANCH  22  24
ENDBRANCH   6  22
TORSDOF 7
ENDMDL
MODEL 4
REMARK VINA RESULT:      -7.7      2.949     10.334
REMARK  Name = 
REMARK  9 active torsions:
REMARK  status: ('A' for Active; 'I' for Inactive)
REMARK    1  A    between atoms: C_1  and  C_2
REMARK    2  A    between atoms: C_2  and  C_3
REMARK    3  A    between atoms: N_5  and  C_6
REMARK    4  A    between atoms: C_9  and  C_10
REMARK    5  A    between atoms: C_15  and  N_16
REMARK    6  A    between atoms: N_16  and  C_17
REMARK    7  A    between atoms: N_16  and  C_18
REMARK    8  A    between atoms: C_18  and  C_19
REMARK    9  A    between atoms: C_19  and  C_20
REMARK                            x       y       z     vdW  Elec       q    Type
REMARK                         _______ _______ _______ _____ _____    ______ ____
ROOT
ATOM      1  C   UNL     1       1.796   8.428  19.247  0.00  0.00    +0.000 C 
ATOM      2  O   UNL     1       2.199   8.977  18.217  0.00  0.00    +0.000 OA
ATOM      3  N   UNL     1       1.925   7.052  19.442  0.00  0.00    +0.000 N 
ATOM      4  C   UNL     1       2.735   6.328  18.464  0.00  0.00    +0.000 C 
ATOM      5  C   UNL     1       2.075   4.997  18.126  0.00  0.00    +0.000 C 
ATOM      6  C   UNL     1       2.021   4.104  19.380  0.00  0.00    +0.000 C 
ATOM      7  C   UNL     1       1.032   4.867  20.297  0.00  0.00    +0.000 C 
ATOM      8  C   UNL     1       1.531   6.276  20.627  0.00  0.00    +0.000 C 
ENDROOT
BRANCH   1  12
ATOM      9  C   UNL     1      -0.457  10.701  22.116  0.00  0.00    +0.000 A 
ATOM     10  C   UNL     1      -0.433   9.311  22.111  0.00  0.00    +0.000 A 
ATOM     11  C   UNL     1       0.338   8.621  21.177  0.00  0.00    +0.000 A 
ATOM     12  C   UNL     1       1.062   9.305  20.188  0.00  0.00    +0.000 A 
ATOM     13  C   UNL     1       0.926  10.694  20.110  0.00  0.00    +0.000 A 
ATOM     14 CL   UNL     1       1.459  11.643  18.769  0.00  0.00    +0.000 Cl
ATOM     15  C   UNL     1       0.217  11.389  21.103  0.00  0.00    +0.000 A 
BRANCH   9  18
ATOM     16  C   UNL     1      -2.302  12.207  22.837  0.00  0.00    +0.000 C 
ATOM     17  O   UNL     1      -2.889  12.288  21.763  0.00  0.00    +0.000 OA
ATOM     18  N   UNL     1      -1.160  11.462  23.079  0.00  0.00    +0.000 N 
ATOM     19  H   UNL     1      -0.846  11.387  24.040  0.00  0.00    +0.000 HD
BRANCH  16  21
ATOM     20  C   UNL     1      -4.187  12.455  24.459  0.00  0.00    +0.000 C 
ATOM     21  C   UNL     1      -2.795  12.934  24.071  0.00  0.00    +0.000 C 
ENDBRANCH  16  21
ENDBRANCH   9  18
ENDBRANCH   1  12
BRANCH   6  22
ATOM     22  N   UNL     1       3.339   3.831  20.035  0.00  0.00    +0.000 NA
ATOM     23  C   UNL     1       3.200   2.827  21.111  0.00  0.00    +0.000 C 
BRANCH  22  24
ATOM     24  C   UNL     1       4.403   3.342  19.120  0.00  0.00    +0.000 C 
BRANCH  24  25
ATOM     25  C   UNL     1       5.618   4.259  18.896  0.00  0.00    +0.000 C 
BRANCH  25  26
ATOM     26  C   UNL     1       5.945   4.406  17.435  0.00  0.00    +0.000 A 
ATOM     27  C   UNL     1       5.042   3.948  16.463  0.00  0.00    +0.000 A 
ATOM     28  C   UNL     1       5.334   4.100  15.112  0.00  0.00    +0.000 A 
ATOM     29  C   UNL     1       6.519   4.717  14.725  0.00  0.00    +0.000 A 
ATOM     30  C   UNL     1       7.423   5.177  15.686  0.00  0.00    +0.000 A 
ATOM     31  C   UNL     1       7.139   5.016  17.038  0.00  0.00    +0.000 A 
ENDBRANCH  25  26
ENDBRANCH  24  25
ENDBRANCH  22  24
ENDBRANCH   6  22
TORSDOF 7
ENDMDL
MODEL 5
REMARK VINA RESULT:      -7.6      2.916     10.184
REMARK  Name = 
REMARK  9 active torsions:
REMARK  status: ('A' for Active; 'I' for Inactive)
REMARK    1  A    between atoms: C_1  and  C_2
REMARK    2  A    between atoms: C_2  and  C_3
REMARK    3  A    between atoms: N_5  and  C_6
REMARK    4  A    between atoms: C_9  and  C_10
REMARK    5  A    between atoms: C_15  and  N_16
REMARK    6  A    between atoms: N_16  and  C_17
REMARK    7  A    between atoms: N_16  and  C_18
REMARK    8  A    between atoms: C_18  and  C_19
REMARK    9  A    between atoms: C_19  and  C_20
REMARK                            x       y       z     vdW  Elec       q    Type
REMARK                         _______ _______ _______ _____ _____    ______ ____
ROOT
ATOM      1  C   UNL     1       1.788   8.310  19.237  0.00  0.00    +0.000 C 
ATOM      2  O   UNL     1       2.274   8.865  18.248  0.00  0.00    +0.000 OA
ATOM      3  N   UNL     1       1.900   6.932  19.433  0.00  0.00    +0.000 N 
ATOM      4  C   UNL     1       2.788   6.215  18.520  0.00  0.00    +0.000 C 
ATOM      5  C   UNL     1       2.158   4.886  18.120  0.00  0.00    +0.000 C 
ATOM      6  C   UNL     1       2.001   3.985  19.359  0.00  0.00    +0.000 C 
ATOM      7  C   UNL     1       0.940   4.742  20.197  0.00  0.00    +0.000 C 
ATOM      8  C   UNL     1       1.410   6.149  20.576  0.00  0.00    +0.000 C 
ENDROOT
BRANCH   1  12
ATOM      9  C   UNL     1      -0.434  10.675  22.056  0.00  0.00    +0.000 A 
ATOM     10  C   UNL     1       0.474   9.697  22.447  0.00  0.00    +0.000 A 
ATOM     11  C   UNL     1       1.191   8.978  21.493  0.00  0.00    +0.000 A 
ATOM     12  C   UNL     1       0.978   9.181  20.120  0.00  0.00    +0.000 A 
ATOM     13  C   UNL     1      -0.033  10.064  19.731  0.00  0.00    +0.000 A 
ATOM     14 CL   UNL     1      -0.654  10.174  18.123  0.00  0.00    +0.000 Cl
ATOM     15  C   UNL     1      -0.692  10.847  20.693  0.00  0.00    +0.000 A 
BRANCH   9  18
ATOM     16  C   UNL     1      -2.249  12.264  22.671  0.00  0.00    +0.000 C 
ATOM     17  O   UNL     1      -2.799  12.329  21.576  0.00  0.00    +0.000 OA
ATOM     18  N   UNL     1      -1.141  11.489  22.972  0.00  0.00    +0.000 N 
ATOM     19  H   UNL     1      -0.860  11.435  23.944  0.00  0.00    +0.000 HD
BRANCH  16  21
ATOM     20  C   UNL     1      -1.925  14.304  24.076  0.00  0.00    +0.000 C 
ATOM     21  C   UNL     1      -2.754  13.045  23.865  0.00  0.00    +0.000 C 
ENDBRANCH  16  21
ENDBRANCH   9  18
ENDBRANCH   1  12
BRANCH   6  22
ATOM     22  N   UNL     1       3.260   3.706  20.119  0.00  0.00    +0.000 NA
ATOM     23  C   UNL     1       3.029   2.708  21.183  0.00  0.00    +0.000 C 
BRANCH  22  24
ATOM     24  C   UNL     1       4.392   3.208  19.294  0.00  0.00    +0.000 C 
BRANCH  24  25
ATOM     25  C   UNL     1       5.612   4.131  19.138  0.00  0.00    +0.000 C 
BRANCH  25  26
ATOM     26  C   UNL     1       5.888   4.451  17.694  0.00  0.00    +0.000 A 
ATOM     27  C   UNL     1       6.900   5.363  17.357  0.00  0.00    +0.000 A 
ATOM     28  C   UNL     1       7.170   5.646  16.022  0.00  0.00    +0.000 A 
ATOM     29  C   UNL     1       6.440   5.015  15.020  0.00  0.00    +0.000 A 
ATOM     30  C   UNL     1       5.432   4.105  15.346  0.00  0.00    +0.000 A 
ATOM     31  C   UNL     1       5.152   3.828  16.681  0.00  0.00    +0.000 A 
ENDBRANCH  25  26
ENDBRANCH  24  25
ENDBRANCH  22  24
ENDBRANCH   6  22
TORSDOF 7
ENDMDL
MODEL 6
REMARK VINA RESULT:      -7.5      2.884      4.692
REMARK  Name = 
REMARK  9 active torsions:
REMARK  status: ('A' for Active; 'I' for Inactive)
REMARK    1  A    between atoms: C_1  and  C_2
REMARK    2  A    between atoms: C_2  and  C_3
REMARK    3  A    between atoms: N_5  and  C_6
REMARK    4  A    between atoms: C_9  and  C_10
REMARK    5  A    between atoms: C_15  and  N_16
REMARK    6  A    between atoms: N_16  and  C_17
REMARK    7  A    between atoms: N_16  and  C_18
REMARK    8  A    between atoms: C_18  and  C_19
REMARK    9  A    between atoms: C_19  and  C_20
REMARK                            x       y       z     vdW  Elec       q    Type
REMARK                         _______ _______ _______ _____ _____    ______ ____
ROOT
ATOM      1  C   UNL     1      -0.162  10.884  19.420  0.00  0.00    +0.000 C 
ATOM      2  O   UNL     1      -1.343  10.677  19.123  0.00  0.00    +0.000 OA
ATOM      3  N   UNL     1       0.302  12.164  19.727  0.00  0.00    +0.000 N 
ATOM      4  C   UNL     1      -0.713  13.206  19.878  0.00  0.00    +0.000 C 
ATOM      5  C   UNL     1      -0.228  14.499  19.233  0.00  0.00    +0.000 C 
ATOM      6  C   UNL     1       1.025  15.014  19.966  0.00  0.00    +0.000 C 
ATOM      7  C   UNL     1       2.082  13.932  19.632  0.00  0.00    +0.000 C 
ATOM      8  C   UNL     1       1.661  12.548  20.135  0.00  0.00    +0.000 C 
ENDROOT
BRANCH   1  12
ATOM      9  C   UNL     1       2.457   7.543  18.748  0.00  0.00    +0.000 A 
ATOM     10  C   UNL     1       2.044   8.391  17.726  0.00  0.00    +0.000 A 
ATOM     11  C   UNL     1       1.218   9.479  18.002  0.00  0.00    +0.000 A 
ATOM     12  C   UNL     1       0.738   9.714  19.300  0.00  0.00    +0.000 A 
ATOM     13  C   UNL     1       1.041   8.782  20.296  0.00  0.00    +0.000 A 
ATOM     14 CL   UNL     1       0.265   8.728  21.838  0.00  0.00    +0.000 Cl
ATOM     15  C   UNL     1       1.941   7.737  20.032  0.00  0.00    +0.000 A 
BRANCH   9  18
ATOM     16  C   UNL     1       2.993   5.184  18.162  0.00  0.00    +0.000 C 
ATOM     17  O   UNL     1       1.854   4.808  17.903  0.00  0.00    +0.000 OA
ATOM     18  N   UNL     1       3.351   6.465  18.548  0.00  0.00    +0.000 N 
ATOM     19  H   UNL     1       4.341   6.672  18.615  0.00  0.00    +0.000 HD
BRANCH  16  21
ATOM     20  C   UNL     1       4.302   3.402  19.327  0.00  0.00    +0.000 C 
ATOM     21  C   UNL     1       4.181   4.251  18.068  0.00  0.00    +0.000 C 
ENDBRANCH  16  21
ENDBRANCH   9  18
ENDBRANCH   1  12
BRANCH   6  22
ATOM     22  N   UNL     1       0.864  15.245  21.436  0.00  0.00    +0.000 NA
ATOM     23  C   UNL     1       2.125  15.721  22.041  0.00  0.00    +0.000 C 
BRANCH  22  24
ATOM     24  C   UNL     1      -0.191  16.225  21.804  0.00  0.00    +0.000 C 
BRANCH  24  25
ATOM     25  C   UNL     1      -1.015  15.934  23.070  0.00  0.00    +0.000 C 
BRANCH  25  26
ATOM     26  C   UNL     1      -1.951  14.773  22.872  0.00  0.00    +0.000 A 
ATOM     27  C   UNL     1      -1.653  13.525  23.439  0.00  0.00    +0.000 A 
ATOM     28  C   UNL     1      -2.526  12.455  23.273  0.00  0.00    +0.000 A 
ATOM     29  C   UNL     1      -3.703  12.628  22.551  0.00  0.00    +0.000 A 
ATOM     30  C   UNL     1      -4.008  13.868  21.984  0.00  0.00    +0.000 A 
ATOM     31  C   UNL     1      -3.131  14.937  22.138  0.00  0.00    +0.000 A 
ENDBRANCH  25  26
ENDBRANCH  24  25
ENDBRANCH  22  24
ENDBRANCH   6  22
TORSDOF 7
ENDMDL
MODEL 7
REMARK VINA RESULT:      -7.5      2.638      4.481
REMARK  Name = 
REMARK  9 active torsions:
REMARK  status: ('A' for Active; 'I' for Inactive)
REMARK    1  A    between atoms: C_1  and  C_2
REMARK    2  A    between atoms: C_2  and  C_3
REMARK    3  A    between atoms: N_5  and  C_6
REMARK    4  A    between atoms: C_9  and  C_10
REMARK    5  A    between atoms: C_15  and  N_16
REMARK    6  A    between atoms: N_16  and  C_17
REMARK    7  A    between atoms: N_16  and  C_18
REMARK    8  A    between atoms: C_18  and  C_19
REMARK    9  A    between atoms: C_19  and  C_20
REMARK                            x       y       z     vdW  Elec       q    Type
REMARK                         _______ _______ _______ _____ _____    ______ ____
ROOT
ATOM      1  C   UNL     1      -0.060  10.753  19.331  0.00  0.00    +0.000 C 
ATOM      2  O   UNL     1      -1.259  10.508  19.167  0.00  0.00    +0.000 OA
ATOM      3  N   UNL     1       0.404  12.058  19.503  0.00  0.00    +0.000 N 
ATOM      4  C   UNL     1      -0.613  13.093  19.682  0.00  0.00    +0.000 C 
ATOM      5  C   UNL     1      -0.221  14.344  18.906  0.00  0.00    +0.000 C 
ATOM      6  C   UNL     1       1.087  14.928  19.475  0.00  0.00    +0.000 C 
ATOM      7  C   UNL     1       2.129  13.840  19.113  0.00  0.00    +0.000 C 
ATOM      8  C   UNL     1       1.788  12.489  19.748  0.00  0.00    +0.000 C 
ENDROOT
BRANCH   1  12
ATOM      9  C   UNL     1       2.599   7.447  18.639  0.00  0.00    +0.000 A 
ATOM     10  C   UNL     1       2.233   8.339  17.637  0.00  0.00    +0.000 A 
ATOM     11  C   UNL     1       1.390   9.413  17.920  0.00  0.00    +0.000 A 
ATOM     12  C   UNL     1       0.848   9.590  19.203  0.00  0.00    +0.000 A 
ATOM     13  C   UNL     1       1.107   8.616  20.171  0.00  0.00    +0.000 A 
ATOM     14 CL   UNL     1       0.259   8.494  21.671  0.00  0.00    +0.000 Cl
ATOM     15  C   UNL     1       2.023   7.585  19.905  0.00  0.00    +0.000 A 
BRANCH   9  18
ATOM     16  C   UNL     1       3.168   5.112  17.995  0.00  0.00    +0.000 C 
ATOM     17  O   UNL     1       2.041   4.740  17.684  0.00  0.00    +0.000 OA
ATOM     18  N   UNL     1       3.505   6.381  18.435  0.00  0.00    +0.000 N 
ATOM     19  H   UNL     1       4.492   6.590  18.544  0.00  0.00    +0.000 HD
BRANCH  16  21
ATOM     20  C   UNL     1       5.294   4.610  16.782  0.00  0.00    +0.000 C 
ATOM     21  C   UNL     1       4.364   4.187  17.912  0.00  0.00    +0.000 C 
ENDBRANCH  16  21
ENDBRANCH   9  18
ENDBRANCH   1  12
BRANCH   6  22
ATOM     22  N   UNL     1       1.065  15.259  20.934  0.00  0.00    +0.000 NA
ATOM     23  C   UNL     1       2.340  15.871  21.360  0.00  0.00    +0.000 C 
BRANCH  22  24
ATOM     24  C   UNL     1      -0.022  16.183  21.350  0.00  0.00    +0.000 C 
BRANCH  24  25
ATOM     25  C   UNL     1      -0.677  15.933  22.719  0.00  0.00    +0.000 C 
BRANCH  25  26
ATOM     26  C   UNL     1      -1.640  14.777  22.673  0.00  0.00    +0.000 A 
ATOM     27  C   UNL     1      -2.851  14.898  21.974  0.00  0.00    +0.000 A 
ATOM     28  C   UNL     1      -3.733  13.825  21.916  0.00  0.00    +0.000 A 
ATOM     29  C   UNL     1      -3.409  12.626  22.544  0.00  0.00    +0.000 A 
ATOM     30  C   UNL     1      -2.204  12.497  23.240  0.00  0.00    +0.000 A 
ATOM     31  C   UNL     1      -1.324  13.573  23.310  0.00  0.00    +0.000 A 
ENDBRANCH  25  26
ENDBRANCH  24  25
ENDBRANCH  22  24
ENDBRANCH   6  22
TORSDOF 7
ENDMDL
MODEL 8
REMARK VINA RESULT:      -7.3      6.565     10.168
REMARK  Name = 
REMARK  9 active torsions:
REMARK  status: ('A' for Active; 'I' for Inactive)
REMARK    1  A    between atoms: C_1  and  C_2
REMARK    2  A    between atoms: C_2  and  C_3
REMARK    3  A    between atoms: N_5  and  C_6
REMARK    4  A    between atoms: C_9  and  C_10
REMARK    5  A    between atoms: C_15  and  N_16
REMARK    6  A    between atoms: N_16  and  C_17
REMARK    7  A    between atoms: N_16  and  C_18
REMARK    8  A    between atoms: C_18  and  C_19
REMARK    9  A    between atoms: C_19  and  C_20
REMARK                            x       y       z     vdW  Elec       q    Type
REMARK                         _______ _______ _______ _____ _____    ______ ____
ROOT
ATOM      1  C   UNL     1       2.200  13.763  20.700  0.00  0.00    +0.000 C 
ATOM      2  O   UNL     1       1.930  13.835  21.903  0.00  0.00    +0.000 OA
ATOM      3  N   UNL     1       3.377  14.301  20.180  0.00  0.00    +0.000 N 
ATOM      4  C   UNL     1       4.363  14.771  21.152  0.00  0.00    +0.000 C 
ATOM      5  C   UNL     1       4.981  16.079  20.672  0.00  0.00    +0.000 C 
ATOM      6  C   UNL     1       5.753  15.846  19.359  0.00  0.00    +0.000 C 
ATOM      7  C   UNL     1       4.622  15.499  18.358  0.00  0.00    +0.000 C 
ATOM      8  C   UNL     1       3.844  14.252  18.786  0.00  0.00    +0.000 C 
ENDROOT
BRANCH   1  12
ATOM      9  C   UNL     1      -0.951  12.395  18.115  0.00  0.00    +0.000 A 
ATOM     10  C   UNL     1      -0.563  13.729  18.186  0.00  0.00    +0.000 A 
ATOM     11  C   UNL     1       0.485  14.116  19.020  0.00  0.00    +0.000 A 
ATOM     12  C   UNL     1       1.136  13.186  19.845  0.00  0.00    +0.000 A 
ATOM     13  C   UNL     1       0.654  11.875  19.874  0.00  0.00    +0.000 A 
ATOM     14 CL   UNL     1       1.103  10.705  21.062  0.00  0.00    +0.000 Cl
ATOM     15  C   UNL     1      -0.345  11.472  18.971  0.00  0.00    +0.000 A 
BRANCH   9  18
ATOM     16  C   UNL     1      -3.249  11.586  17.606  0.00  0.00    +0.000 C 
ATOM     17  O   UNL     1      -3.717  11.677  18.736  0.00  0.00    +0.000 OA
ATOM     18  N   UNL     1      -1.957  11.925  17.239  0.00  0.00    +0.000 N 
ATOM     19  H   UNL     1      -1.735  11.915  16.250  0.00  0.00    +0.000 HD
BRANCH  16  21
ATOM     20  C   UNL     1      -3.172  10.559  15.329  0.00  0.00    +0.000 C 
ATOM     21  C   UNL     1      -4.073  11.085  16.439  0.00  0.00    +0.000 C 
ENDBRANCH  16  21
ENDBRANCH   9  18
ENDBRANCH   1  12
BRANCH   6  22
ATOM     22  N   UNL     1       6.826  14.804  19.418  0.00  0.00    +0.000 NA
ATOM     23  C   UNL     1       7.456  14.614  18.095  0.00  0.00    +0.000 C 
BRANCH  22  24
ATOM     24  C   UNL     1       7.921  15.087  20.383  0.00  0.00    +0.000 C 
BRANCH  24  25
ATOM     25  C   UNL     1       8.403  13.924  21.265  0.00  0.00    +0.000 C 
BRANCH  25  26
ATOM     26  C   UNL     1       9.535  13.169  20.622  0.00  0.00    +0.000 A 
ATOM     27  C   UNL     1      10.764  13.807  20.391  0.00  0.00    +0.000 A 
ATOM     28  C   UNL     1      11.817  13.106  19.814  0.00  0.00    +0.000 A 
ATOM     29  C   UNL     1      11.654  11.766  19.475  0.00  0.00    +0.000 A 
ATOM     30  C   UNL     1      10.435  11.123  19.704  0.00  0.00    +0.000 A 
ATOM     31  C   UNL     1       9.376  11.825  20.270  0.00  0.00    +0.000 A 
ENDBRANCH  25  26
ENDBRANCH  24  25
ENDBRANCH  22  24
ENDBRANCH   6  22
TORSDOF 7
ENDMDL
MODEL 9
REMARK VINA RESULT:      -7.3      3.201      4.913
REMARK  Name = 
REMARK  9 active torsions:
REMARK  status: ('A' for Active; 'I' for Inactive)
REMARK    1  A    between atoms: C_1  and  C_2
REMARK    2  A    between atoms: C_2  and  C_3
REMARK    3  A    between atoms: N_5  and  C_6
REMARK    4  A    between atoms: C_9  and  C_10
REMARK    5  A    between atoms: C_15  and  N_16
REMARK    6  A    between atoms: N_16  and  C_17
REMARK    7  A    between atoms: N_16  and  C_18
REMARK    8  A    between atoms: C_18  and  C_19
REMARK    9  A    between atoms: C_19  and  C_20
REMARK                            x       y       z     vdW  Elec       q    Type
REMARK                         _______ _______ _______ _____ _____    ______ ____
ROOT
ATOM      1  C   UNL     1      -0.180  10.937  19.623  0.00  0.00    +0.000 C 
ATOM      2  O   UNL     1      -1.361  10.757  19.311  0.00  0.00    +0.000 OA
ATOM      3  N   UNL     1       0.360  12.219  19.740  0.00  0.00    +0.000 N 
ATOM      4  C   UNL     1      -0.586  13.332  19.674  0.00  0.00    +0.000 C 
ATOM      5  C   UNL     1       0.007  14.469  18.850  0.00  0.00    +0.000 C 
ATOM      6  C   UNL     1       1.266  15.020  19.546  0.00  0.00    +0.000 C 
ATOM      7  C   UNL     1       2.258  13.834  19.439  0.00  0.00    +0.000 C 
ATOM      8  C   UNL     1       1.727  12.581  20.140  0.00  0.00    +0.000 C 
ENDROOT
BRANCH   1  12
ATOM      9  C   UNL     1       2.274   7.408  19.628  0.00  0.00    +0.000 A 
ATOM     10  C   UNL     1       2.112   8.208  18.503  0.00  0.00    +0.000 A 
ATOM     11  C   UNL     1       1.328   9.359  18.562  0.00  0.00    +0.000 A 
ATOM     12  C   UNL     1       0.642   9.710  19.735  0.00  0.00    +0.000 A 
ATOM     13  C   UNL     1       0.696   8.831  20.820  0.00  0.00    +0.000 A 
ATOM     14 CL   UNL     1      -0.345   8.928  22.195  0.00  0.00    +0.000 Cl
ATOM     15  C   UNL     1       1.553   7.719  20.784  0.00  0.00    +0.000 A 
BRANCH   9  18
ATOM     16  C   UNL     1       2.779   5.015  19.168  0.00  0.00    +0.000 C 
ATOM     17  O   UNL     1       1.727   4.721  18.610  0.00  0.00    +0.000 OA
ATOM     18  N   UNL     1       3.111   6.268  19.656  0.00  0.00    +0.000 N 
ATOM     19  H   UNL     1       4.060   6.404  19.987  0.00  0.00    +0.000 HD
BRANCH  16  21
ATOM     20  C   UNL     1       3.909   2.990  18.238  0.00  0.00    +0.000 C 
ATOM     21  C   UNL     1       3.882   3.998  19.378  0.00  0.00    +0.000 C 
ENDBRANCH  16  21
ENDBRANCH   9  18
ENDBRANCH   1  12
BRANCH   6  22
ATOM     22  N   UNL     1       1.071  15.499  20.950  0.00  0.00    +0.000 NA
ATOM     23  C   UNL     1       1.537  16.893  21.106  0.00  0.00    +0.000 C 
BRANCH  22  24
ATOM     24  C   UNL     1      -0.332  15.453  21.438  0.00  0.00    +0.000 C 
BRANCH  24  25
ATOM     25  C   UNL     1      -0.548  15.280  22.950  0.00  0.00    +0.000 C 
BRANCH  25  26
ATOM     26  C   UNL     1      -1.552  14.200  23.251  0.00  0.00    +0.000 A 
ATOM     27  C   UNL     1      -2.802  14.534  23.793  0.00  0.00    +0.000 A 
ATOM     28  C   UNL     1      -3.738  13.538  24.055  0.00  0.00    +0.000 A 
ATOM     29  C   UNL     1      -3.437  12.211  23.767  0.00  0.00    +0.000 A 
ATOM     30  C   UNL     1      -2.195  11.871  23.224  0.00  0.00    +0.000 A 
ATOM     31  C   UNL     1      -1.252  12.862  22.973  0.00  0.00    +0.000 A 
ENDBRANCH  25  26
ENDBRANCH  24  25
ENDBRANCH  22  24
ENDBRANCH   6  22
TORSDOF 7
ENDMDL
