MODEL 1
REMARK VINA RESULT:      -6.2      0.000      0.000
REMARK  Name = 
REMARK  8 active torsions:
REMARK  status: ('A' for Active; 'I' for Inactive)
REMARK    1  A    between atoms: C_1  and  C_2
REMARK    2  A    between atoms: C_2  and  N_3
REMARK    3  A    between atoms: N_3  and  C_4
REMARK    4  A    between atoms: N_3  and  C_6
REMARK    5  A    between atoms: C_4  and  C_5
REMARK    6  A    between atoms: C_6  and  N_8
REMARK    7  A    between atoms: N_8  and  N_9
REMARK    8  A    between atoms: C_10  and  C_11
REMARK                            x       y       z     vdW  Elec       q    Type
REMARK                         _______ _______ _______ _____ _____    ______ ____
ROOT
ATOM      1  N   UNL     1       6.392   3.981  18.099  0.00  0.00    +0.000 N 
ATOM      2  H   UNL     1       6.889   3.141  17.845  0.00  0.00    +0.000 HD
ENDROOT
BRANCH   1   3
ATOM      3  C   UNL     1       6.796   5.243  17.644  0.00  0.00    +0.000 C 
ATOM      4  S   UNL     1       7.735   6.267  18.614  0.00  0.00    +0.000 S 
BRANCH   3   5
ATOM      5  N   UNL     1       6.362   5.567  16.325  0.00  0.00    +0.000 N 
BRANCH   5   7
ATOM      6  C   UNL     1       6.241   3.931  14.423  0.00  0.00    +0.000 C 
ATOM      7  C   UNL     1       7.057   4.990  15.153  0.00  0.00    +0.000 C 
ENDBRANCH   5   7
BRANCH   5   8
ATOM      8  C   UNL     1       5.191   6.435  16.096  0.00  0.00    +0.000 C 
ATOM      9  C   UNL     1       4.383   6.913  17.293  0.00  0.00    +0.000 C 
ENDBRANCH   5   8
ENDBRANCH   3   5
ENDBRANCH   1   3
BRANCH   1  10
ATOM     10  N   UNL     1       5.387   3.868  19.019  0.00  0.00    +0.000 NA
ATOM     11  C   UNL     1       4.246   3.412  18.620  0.00  0.00    +0.000 C 
BRANCH  11  12
ATOM     12  C   UNL     1       3.138   3.235  19.583  0.00  0.00    +0.000 A 
ATOM     13  C   UNL     1       1.866   3.713  19.287  0.00  0.00    +0.000 A 
ATOM     14  C   UNL     1       0.864   3.546  20.237  0.00  0.00    +0.000 A 
ATOM     15  C   UNL     1       1.165   2.912  21.436  0.00  0.00    +0.000 A 
ATOM     16  C   UNL     1       2.464   2.467  21.637  0.00  0.00    +0.000 A 
ATOM     17  N   UNL     1       3.465   2.612  20.740  0.00  0.00    +0.000 NA
ENDBRANCH  11  12
ENDBRANCH   1  10
TORSDOF 6
ENDMDL
MODEL 2
REMARK VINA RESULT:      -5.8      1.843      2.607
REMARK  Name = 
REMARK  8 active torsions:
REMARK  status: ('A' for Active; 'I' for Inactive)
REMARK    1  A    between atoms: C_1  and  C_2
REMARK    2  A    between atoms: C_2  and  N_3
REMARK    3  A    between atoms: N_3  and  C_4
REMARK    4  A    between atoms: N_3  and  C_6
REMARK    5  A    between atoms: C_4  and  C_5
REMARK    6  A    between atoms: C_6  and  N_8
REMARK    7  A    between atoms: N_8  and  N_9
REMARK    8  A    between atoms: C_10  and  C_11
REMARK                            x       y       z     vdW  Elec       q    Type
REMARK                         _______ _______ _______ _____ _____    ______ ____
ROOT
ATOM      1  N   UNL     1       5.666   3.280  16.464  0.00  0.00    +0.000 N 
ATOM      2  H   UNL     1       6.101   2.369  16.492  0.00  0.00    +0.000 HD
ENDROOT
BRANCH   1   3
ATOM      3  C   UNL     1       6.333   4.399  15.949  0.00  0.00    +0.000 C 
ATOM      4  S   UNL     1       6.544   4.606  14.281  0.00  0.00    +0.000 S 
BRANCH   3   5
ATOM      5  N   UNL     1       6.793   5.322  16.934  0.00  0.00    +0.000 N 
BRANCH   5   7
ATOM      6  C   UNL     1       4.807   6.859  16.945  0.00  0.00    +0.000 C 
ATOM      7  C   UNL     1       6.324   6.725  16.913  0.00  0.00    +0.000 C 
ENDBRANCH   5   7
BRANCH   5   8
ATOM      8  C   UNL     1       7.701   4.896  18.017  0.00  0.00    +0.000 C 
ATOM      9  C   UNL     1       7.827   5.767  19.258  0.00  0.00    +0.000 C 
ENDBRANCH   5   8
ENDBRANCH   3   5
ENDBRANCH   1   3
BRANCH   1  10
ATOM     10  N   UNL     1       4.450   3.418  17.073  0.00  0.00    +0.000 NA
ATOM     11  C   UNL     1       4.415   3.426  18.365  0.00  0.00    +0.000 C 
BRANCH  11  12
ATOM     12  C   UNL     1       3.130   3.609  19.073  0.00  0.00    +0.000 A 
ATOM     13  C   UNL     1       2.951   4.682  19.939  0.00  0.00    +0.000 A 
ATOM     14  C   UNL     1       1.734   4.796  20.601  0.00  0.00    +0.000 A 
ATOM     15  C   UNL     1       0.746   3.844  20.374  0.00  0.00    +0.000 A 
ATOM     16  C   UNL     1       1.019   2.812  19.488  0.00  0.00    +0.000 A 
ATOM     17  N   UNL     1       2.189   2.666  18.828  0.00  0.00    +0.000 NA
ENDBRANCH  11  12
ENDBRANCH   1  10
TORSDOF 6
ENDMDL
MODEL 3
REMARK VINA RESULT:      -5.8      1.597      2.376
REMARK  Name = 
REMARK  8 active torsions:
REMARK  status: ('A' for Active; 'I' for Inactive)
REMARK    1  A    between atoms: C_1  and  C_2
REMARK    2  A    between atoms: C_2  and  N_3
REMARK    3  A    between atoms: N_3  and  C_4
REMARK    4  A    between atoms: N_3  and  C_6
REMARK    5  A    between atoms: C_4  and  C_5
REMARK    6  A    between atoms: C_6  and  N_8
REMARK    7  A    between atoms: N_8  and  N_9
REMARK    8  A    between atoms: C_10  and  C_11
REMARK                            x       y       z     vdW  Elec       q    Type
REMARK                         _______ _______ _______ _____ _____    ______ ____
ROOT
ATOM      1  N   UNL     1       5.557   3.278  16.554  0.00  0.00    +0.000 N 
ATOM      2  H   UNL     1       5.972   2.360  16.494  0.00  0.00    +0.000 HD
ENDROOT
BRANCH   1   3
ATOM      3  C   UNL     1       6.176   4.404  15.995  0.00  0.00    +0.000 C 
ATOM      4  S   UNL     1       6.322   4.582  14.316  0.00  0.00    +0.000 S 
BRANCH   3   5
ATOM      5  N   UNL     1       6.648   5.357  16.944  0.00  0.00    +0.000 N 
BRANCH   5   7
ATOM      6  C   UNL     1       4.637   6.819  17.293  0.00  0.00    +0.000 C 
ATOM      7  C   UNL     1       6.115   6.737  16.938  0.00  0.00    +0.000 C 
ENDBRANCH   5   7
BRANCH   5   8
ATOM      8  C   UNL     1       7.632   4.984  17.979  0.00  0.00    +0.000 C 
ATOM      9  C   UNL     1       7.593   5.694  19.324  0.00  0.00    +0.000 C 
ENDBRANCH   5   8
ENDBRANCH   3   5
ENDBRANCH   1   3
BRANCH   1  10
ATOM     10  N   UNL     1       4.436   3.416  17.323  0.00  0.00    +0.000 NA
ATOM     11  C   UNL     1       4.462   2.945  18.526  0.00  0.00    +0.000 C 
BRANCH  11  12
ATOM     12  C   UNL     1       3.287   3.100  19.410  0.00  0.00    +0.000 A 
ATOM     13  C   UNL     1       2.143   3.744  18.953  0.00  0.00    +0.000 A 
ATOM     14  C   UNL     1       1.074   3.889  19.831  0.00  0.00    +0.000 A 
ATOM     15  C   UNL     1       1.185   3.388  21.123  0.00  0.00    +0.000 A 
ATOM     16  C   UNL     1       2.368   2.758  21.485  0.00  0.00    +0.000 A 
ATOM     17  N   UNL     1       3.428   2.600  20.661  0.00  0.00    +0.000 NA
ENDBRANCH  11  12
ENDBRANCH   1  10
TORSDOF 6
ENDMDL
MODEL 4
REMARK VINA RESULT:      -5.7      1.076      2.169
REMARK  Name = 
REMARK  8 active torsions:
REMARK  status: ('A' for Active; 'I' for Inactive)
REMARK    1  A    between atoms: C_1  and  C_2
REMARK    2  A    between atoms: C_2  and  N_3
REMARK    3  A    between atoms: N_3  and  C_4
REMARK    4  A    between atoms: N_3  and  C_6
REMARK    5  A    between atoms: C_4  and  C_5
REMARK    6  A    between atoms: C_6  and  N_8
REMARK    7  A    between atoms: N_8  and  N_9
REMARK    8  A    between atoms: C_10  and  C_11
REMARK                            x       y       z     vdW  Elec       q    Type
REMARK                         _______ _______ _______ _____ _____    ______ ____
ROOT
ATOM      1  N   UNL     1       6.808   4.323  18.368  0.00  0.00    +0.000 N 
ATOM      2  H   UNL     1       7.609   3.870  18.782  0.00  0.00    +0.000 HD
ENDROOT
BRANCH   1   3
ATOM      3  C   UNL     1       6.937   5.485  17.596  0.00  0.00    +0.000 C 
ATOM      4  S   UNL     1       7.741   6.852  18.194  0.00  0.00    +0.000 S 
BRANCH   3   5
ATOM      5  N   UNL     1       6.351   5.406  16.299  0.00  0.00    +0.000 N 
BRANCH   5   7
ATOM      6  C   UNL     1       4.309   6.735  16.907  0.00  0.00    +0.000 C 
ATOM      7  C   UNL     1       5.374   6.428  15.862  0.00  0.00    +0.000 C 
ENDBRANCH   5   7
BRANCH   5   8
ATOM      8  C   UNL     1       6.735   4.344  15.349  0.00  0.00    +0.000 C 
ATOM      9  C   UNL     1       5.876   4.114  14.114  0.00  0.00    +0.000 C 
ENDBRANCH   5   8
ENDBRANCH   3   5
ENDBRANCH   1   3
BRANCH   1  10
ATOM     10  N   UNL     1       5.571   3.845  18.698  0.00  0.00    +0.000 NA
ATOM     11  C   UNL     1       4.821   4.573  19.459  0.00  0.00    +0.000 C 
BRANCH  11  12
ATOM     12  C   UNL     1       3.461   4.118  19.816  0.00  0.00    +0.000 A 
ATOM     13  C   UNL     1       3.100   2.785  19.653  0.00  0.00    +0.000 A 
ATOM     14  C   UNL     1       1.800   2.411  19.978  0.00  0.00    +0.000 A 
ATOM     15  C   UNL     1       0.916   3.374  20.452  0.00  0.00    +0.000 A 
ATOM     16  C   UNL     1       1.372   4.678  20.584  0.00  0.00    +0.000 A 
ATOM     17  N   UNL     1       2.626   5.080  20.277  0.00  0.00    +0.000 NA
ENDBRANCH  11  12
ENDBRANCH   1  10
TORSDOF 6
ENDMDL
MODEL 5
REMARK VINA RESULT:      -5.7      1.827      2.330
REMARK  Name = 
REMARK  8 active torsions:
REMARK  status: ('A' for Active; 'I' for Inactive)
REMARK    1  A    between atoms: C_1  and  C_2
REMARK    2  A    between atoms: C_2  and  N_3
REMARK    3  A    between atoms: N_3  and  C_4
REMARK    4  A    between atoms: N_3  and  C_6
REMARK    5  A    between atoms: C_4  and  C_5
REMARK    6  A    between atoms: C_6  and  N_8
REMARK    7  A    between atoms: N_8  and  N_9
REMARK    8  A    between atoms: C_10  and  C_11
REMARK                            x       y       z     vdW  Elec       q    Type
REMARK                         _______ _______ _______ _____ _____    ______ ____
ROOT
ATOM      1  N   UNL     1       5.776   3.497  16.648  0.00  0.00    +0.000 N 
ATOM      2  H   UNL     1       6.475   2.850  16.982  0.00  0.00    +0.000 HD
ENDROOT
BRANCH   1   3
ATOM      3  C   UNL     1       6.098   4.544  15.775  0.00  0.00    +0.000 C 
ATOM      4  S   UNL     1       6.407   4.255  14.134  0.00  0.00    +0.000 S 
BRANCH   3   5
ATOM      5  N   UNL     1       6.132   5.834  16.380  0.00  0.00    +0.000 N 
BRANCH   5   7
ATOM      6  C   UNL     1       7.325   5.882  18.589  0.00  0.00    +0.000 C 
ATOM      7  C   UNL     1       7.336   6.276  17.118  0.00  0.00    +0.000 C 
ENDBRANCH   5   7
BRANCH   5   8
ATOM      8  C   UNL     1       5.001   6.772  16.246  0.00  0.00    +0.000 C 
ATOM      9  C   UNL     1       4.070   6.979  17.433  0.00  0.00    +0.000 C 
ENDBRANCH   5   8
ENDBRANCH   3   5
ENDBRANCH   1   3
BRANCH   1  10
ATOM     10  N   UNL     1       4.523   3.406  17.187  0.00  0.00    +0.000 NA
ATOM     11  C   UNL     1       4.403   3.507  18.470  0.00  0.00    +0.000 C 
BRANCH  11  12
ATOM     12  C   UNL     1       3.066   3.452  19.098  0.00  0.00    +0.000 A 
ATOM     13  C   UNL     1       2.803   4.175  20.256  0.00  0.00    +0.000 A 
ATOM     14  C   UNL     1       1.538   4.069  20.823  0.00  0.00    +0.000 A 
ATOM     15  C   UNL     1       0.589   3.254  20.219  0.00  0.00    +0.000 A 
ATOM     16  C   UNL     1       0.946   2.574  19.062  0.00  0.00    +0.000 A 
ATOM     17  N   UNL     1       2.165   2.649  18.482  0.00  0.00    +0.000 NA
ENDBRANCH  11  12
ENDBRANCH   1  10
TORSDOF 6
ENDMDL
MODEL 6
REMARK VINA RESULT:      -5.7      2.325      6.618
REMARK  Name = 
REMARK  8 active torsions:
REMARK  status: ('A' for Active; 'I' for Inactive)
REMARK    1  A    between atoms: C_1  and  C_2
REMARK    2  A    between atoms: C_2  and  N_3
REMARK    3  A    between atoms: N_3  and  C_4
REMARK    4  A    between atoms: N_3  and  C_6
REMARK    5  A    between atoms: C_4  and  C_5
REMARK    6  A    between atoms: C_6  and  N_8
REMARK    7  A    between atoms: N_8  and  N_9
REMARK    8  A    between atoms: C_10  and  C_11
REMARK                            x       y       z     vdW  Elec       q    Type
REMARK                         _______ _______ _______ _____ _____    ______ ____
ROOT
ATOM      1  N   UNL     1       5.112   3.586  17.864  0.00  0.00    +0.000 N 
ATOM      2  H   UNL     1       5.891   3.532  18.505  0.00  0.00    +0.000 HD
ENDROOT
BRANCH   1   3
ATOM      3  C   UNL     1       3.786   3.516  18.310  0.00  0.00    +0.000 C 
ATOM      4  S   UNL     1       2.726   2.328  17.730  0.00  0.00    +0.000 S 
BRANCH   3   5
ATOM      5  N   UNL     1       3.429   4.505  19.274  0.00  0.00    +0.000 N 
BRANCH   5   7
ATOM      6  C   UNL     1       1.313   4.762  20.601  0.00  0.00    +0.000 C 
ATOM      7  C   UNL     1       2.689   4.117  20.495  0.00  0.00    +0.000 C 
ENDBRANCH   5   7
BRANCH   5   8
ATOM      8  C   UNL     1       3.828   5.916  19.106  0.00  0.00    +0.000 C 
ATOM      9  C   UNL     1       3.270   6.704  17.930  0.00  0.00    +0.000 C 
ENDBRANCH   5   8
ENDBRANCH   3   5
ENDBRANCH   1   3
BRANCH   1  10
ATOM     10  N   UNL     1       5.393   3.589  16.527  0.00  0.00    +0.000 NA
ATOM     11  C   UNL     1       6.227   4.471  16.083  0.00  0.00    +0.000 C 
BRANCH  11  12
ATOM     12  C   UNL     1       6.592   4.494  14.651  0.00  0.00    +0.000 A 
ATOM     13  C   UNL     1       5.939   3.665  13.745  0.00  0.00    +0.000 A 
ATOM     14  C   UNL     1       6.336   3.704  12.413  0.00  0.00    +0.000 A 
ATOM     15  C   UNL     1       7.362   4.562  12.036  0.00  0.00    +0.000 A 
ATOM     16  C   UNL     1       7.951   5.353  13.013  0.00  0.00    +0.000 A 
ATOM     17  N   UNL     1       7.594   5.342  14.317  0.00  0.00    +0.000 NA
ENDBRANCH  11  12
ENDBRANCH   1  10
TORSDOF 6
ENDMDL
MODEL 7
REMARK VINA RESULT:      -5.6      1.558      2.041
REMARK  Name = 
REMARK  8 active torsions:
REMARK  status: ('A' for Active; 'I' for Inactive)
REMARK    1  A    between atoms: C_1  and  C_2
REMARK    2  A    between atoms: C_2  and  N_3
REMARK    3  A    between atoms: N_3  and  C_4
REMARK    4  A    between atoms: N_3  and  C_6
REMARK    5  A    between atoms: C_4  and  C_5
REMARK    6  A    between atoms: C_6  and  N_8
REMARK    7  A    between atoms: N_8  and  N_9
REMARK    8  A    between atoms: C_10  and  C_11
REMARK                            x       y       z     vdW  Elec       q    Type
REMARK                         _______ _______ _______ _____ _____    ______ ____
ROOT
ATOM      1  N   UNL     1       5.654   3.463  16.599  0.00  0.00    +0.000 N 
ATOM      2  H   UNL     1       6.027   2.542  16.426  0.00  0.00    +0.000 HD
ENDROOT
BRANCH   1   3
ATOM      3  C   UNL     1       6.003   4.561  15.801  0.00  0.00    +0.000 C 
ATOM      4  S   UNL     1       6.403   4.366  14.166  0.00  0.00    +0.000 S 
BRANCH   3   5
ATOM      5  N   UNL     1       5.982   5.817  16.475  0.00  0.00    +0.000 N 
BRANCH   5   7
ATOM      6  C   UNL     1       7.285   5.882  18.621  0.00  0.00    +0.000 C 
ATOM      7  C   UNL     1       7.196   6.311  17.162  0.00  0.00    +0.000 C 
ENDBRANCH   5   7
BRANCH   5   8
ATOM      8  C   UNL     1       4.779   6.672  16.464  0.00  0.00    +0.000 C 
ATOM      9  C   UNL     1       3.953   6.797  17.735  0.00  0.00    +0.000 C 
ENDBRANCH   5   8
ENDBRANCH   3   5
ENDBRANCH   1   3
BRANCH   1  10
ATOM     10  N   UNL     1       4.902   3.639  17.726  0.00  0.00    +0.000 NA
ATOM     11  C   UNL     1       3.773   3.015  17.808  0.00  0.00    +0.000 C 
BRANCH  11  12
ATOM     12  C   UNL     1       2.939   3.143  19.021  0.00  0.00    +0.000 A 
ATOM     13  C   UNL     1       1.697   3.765  18.959  0.00  0.00    +0.000 A 
ATOM     14  C   UNL     1       0.962   3.885  20.133  0.00  0.00    +0.000 A 
ATOM     15  C   UNL     1       1.488   3.382  21.317  0.00  0.00    +0.000 A 
ATOM     16  C   UNL     1       2.735   2.775  21.277  0.00  0.00    +0.000 A 
ATOM     17  N   UNL     1       3.480   2.641  20.157  0.00  0.00    +0.000 NA
ENDBRANCH  11  12
ENDBRANCH   1  10
TORSDOF 6
ENDMDL
MODEL 8
REMARK VINA RESULT:      -5.5      1.607      2.152
REMARK  Name = 
REMARK  8 active torsions:
REMARK  status: ('A' for Active; 'I' for Inactive)
REMARK    1  A    between atoms: C_1  and  C_2
REMARK    2  A    between atoms: C_2  and  N_3
REMARK    3  A    between atoms: N_3  and  C_4
REMARK    4  A    between atoms: N_3  and  C_6
REMARK    5  A    between atoms: C_4  and  C_5
REMARK    6  A    between atoms: C_6  and  N_8
REMARK    7  A    between atoms: N_8  and  N_9
REMARK    8  A    between atoms: C_10  and  C_11
REMARK                            x       y       z     vdW  Elec       q    Type
REMARK                         _______ _______ _______ _____ _____    ______ ____
ROOT
ATOM      1  N   UNL     1       6.233   3.966  17.545  0.00  0.00    +0.000 N 
ATOM      2  H   UNL     1       6.976   3.548  18.086  0.00  0.00    +0.000 HD
ENDROOT
BRANCH   1   3
ATOM      3  C   UNL     1       6.486   4.968  16.598  0.00  0.00    +0.000 C 
ATOM      4  S   UNL     1       6.833   4.584  14.985  0.00  0.00    +0.000 S 
BRANCH   3   5
ATOM      5  N   UNL     1       6.415   6.298  17.107  0.00  0.00    +0.000 N 
BRANCH   5   7
ATOM      6  C   UNL     1       7.869   8.272  17.651  0.00  0.00    +0.000 C 
ATOM      7  C   UNL     1       7.505   6.825  17.958  0.00  0.00    +0.000 C 
ENDBRANCH   5   7
BRANCH   5   8
ATOM      8  C   UNL     1       5.292   7.191  16.762  0.00  0.00    +0.000 C 
ATOM      9  C   UNL     1       3.968   7.026  17.495  0.00  0.00    +0.000 C 
ENDBRANCH   5   8
ENDBRANCH   3   5
ENDBRANCH   1   3
BRANCH   1  10
ATOM     10  N   UNL     1       4.950   3.622  17.863  0.00  0.00    +0.000 NA
ATOM     11  C   UNL     1       4.565   3.772  19.087  0.00  0.00    +0.000 C 
BRANCH  11  12
ATOM     12  C   UNL     1       3.176   3.448  19.475  0.00  0.00    +0.000 A 
ATOM     13  C   UNL     1       2.241   3.093  18.509  0.00  0.00    +0.000 A 
ATOM     14  C   UNL     1       0.940   2.824  18.920  0.00  0.00    +0.000 A 
ATOM     15  C   UNL     1       0.623   2.917  20.270  0.00  0.00    +0.000 A 
ATOM     16  C   UNL     1       1.627   3.275  21.159  0.00  0.00    +0.000 A 
ATOM     17  N   UNL     1       2.901   3.546  20.798  0.00  0.00    +0.000 NA
ENDBRANCH  11  12
ENDBRANCH   1  10
TORSDOF 6
ENDMDL
MODEL 9
REMARK VINA RESULT:      -5.5      2.152      6.598
REMARK  Name = 
REMARK  8 active torsions:
REMARK  status: ('A' for Active; 'I' for Inactive)
REMARK    1  A    between atoms: C_1  and  C_2
REMARK    2  A    between atoms: C_2  and  N_3
REMARK    3  A    between atoms: N_3  and  C_4
REMARK    4  A    between atoms: N_3  and  C_6
REMARK    5  A    between atoms: C_4  and  C_5
REMARK    6  A    between atoms: C_6  and  N_8
REMARK    7  A    between atoms: N_8  and  N_9
REMARK    8  A    between atoms: C_10  and  C_11
REMARK                            x       y       z     vdW  Elec       q    Type
REMARK                         _______ _______ _______ _____ _____    ______ ____
ROOT
ATOM      1  N   UNL     1       4.966   5.706  17.875  0.00  0.00    +0.000 N 
ATOM      2  H   UNL     1       5.678   5.524  18.567  0.00  0.00    +0.000 HD
ENDROOT
BRANCH   1   3
ATOM      3  C   UNL     1       3.617   5.849  18.226  0.00  0.00    +0.000 C 
ATOM      4  S   UNL     1       2.843   7.355  18.150  0.00  0.00    +0.000 S 
BRANCH   3   5
ATOM      5  N   UNL     1       2.978   4.641  18.634  0.00  0.00    +0.000 N 
BRANCH   5   7
ATOM      6  C   UNL     1       1.261   4.476  20.460  0.00  0.00    +0.000 C 
ATOM      7  C   UNL     1       2.731   4.381  20.069  0.00  0.00    +0.000 C 
ENDBRANCH   5   7
BRANCH   5   8
ATOM      8  C   UNL     1       2.506   3.653  17.645  0.00  0.00    +0.000 C 
ATOM      9  C   UNL     1       2.801   2.178  17.879  0.00  0.00    +0.000 C 
ENDBRANCH   5   8
ENDBRANCH   3   5
ENDBRANCH   1   3
BRANCH   1  10
ATOM     10  N   UNL     1       5.338   5.672  16.561  0.00  0.00    +0.000 NA
ATOM     11  C   UNL     1       6.067   4.683  16.161  0.00  0.00    +0.000 C 
BRANCH  11  12
ATOM     12  C   UNL     1       6.466   4.580  14.741  0.00  0.00    +0.000 A 
ATOM     13  C   UNL     1       5.811   3.699  13.888  0.00  0.00    +0.000 A 
ATOM     14  C   UNL     1       6.240   3.620  12.568  0.00  0.00    +0.000 A 
ATOM     15  C   UNL     1       7.299   4.418  12.150  0.00  0.00    +0.000 A 
ATOM     16  C   UNL     1       7.887   5.269  13.075  0.00  0.00    +0.000 A 
ATOM     17  N   UNL     1       7.499   5.373  14.366  0.00  0.00    +0.000 NA
ENDBRANCH  11  12
ENDBRANCH   1  10
TORSDOF 6
ENDMDL
