MODEL 1
REMARK VINA RESULT:      -7.7      0.000      0.000
REMARK  Name = 
REMARK  7 active torsions:
REMARK  status: ('A' for Active; 'I' for Inactive)
REMARK    1  A    between atoms: C_2  and  C_3
REMARK    2  A    between atoms: C_3  and  N_4
REMARK    3  A    between atoms: C_6  and  C_7
REMARK    4  A    between atoms: C_9  and  C_10
REMARK    5  A    between atoms: N_18  and  C_19
REMARK    6  A    between atoms: C_19  and  C_20
REMARK    7  A    between atoms: C_20  and  C_21
REMARK                            x       y       z     vdW  Elec       q    Type
REMARK                         _______ _______ _______ _____ _____    ______ ____
ROOT
ATOM      1  N   UNL     1       5.084   4.536  17.319  0.00  0.00    +0.000 NA
ATOM      2  C   UNL     1       6.317   4.192  16.564  0.00  0.00    +0.000 C 
ATOM      3  C   UNL     1       6.408   5.685  16.133  0.00  0.00    +0.000 C 
ATOM      4  C   UNL     1       4.869   5.642  16.347  0.00  0.00    +0.000 C 
ENDROOT
BRANCH   3   5
ATOM      5  C   UNL     1       7.142   6.578  17.130  0.00  0.00    +0.000 A 
ATOM      6  N   UNL     1       7.249   7.882  16.988  0.00  0.00    +0.000 NA
ATOM      7  C   UNL     1       8.062   8.229  18.046  0.00  0.00    +0.000 A 
ATOM      8  N   UNL     1       8.420   7.203  18.829  0.00  0.00    +0.000 NA
ATOM      9  O   UNL     1       7.800   6.109  18.234  0.00  0.00    +0.000 OA
BRANCH   7  10
ATOM     10  C   UNL     1       8.544   9.621  18.267  0.00  0.00    +0.000 A 
ATOM     11  C   UNL     1       9.363  10.035  19.301  0.00  0.00    +0.000 A 
ATOM     12  C   UNL     1       9.530  11.434  19.158  0.00  0.00    +0.000 A 
ATOM     13  C   UNL     1       8.805  11.791  18.047  0.00  0.00    +0.000 A 
ATOM     14  O   UNL     1       8.219  10.701  17.489  0.00  0.00    +0.000 OA
ENDBRANCH   7  10
ENDBRANCH   3   5
BRANCH   1  15
ATOM     15  C   UNL     1       4.054   3.491  17.171  0.00  0.00    +0.000 C 
BRANCH  15  17
ATOM     16  O   UNL     1       1.653   3.794  17.266  0.00  0.00    +0.000 OA
ATOM     17  C   UNL     1       2.737   3.934  17.829  0.00  0.00    +0.000 C 
ATOM     18  N   UNL     1       2.863   4.433  19.111  0.00  0.00    +0.000 N 
ATOM     19  H   UNL     1       3.813   4.621  19.422  0.00  0.00    +0.000 HD
BRANCH  18  20
ATOM     20  C   UNL     1       1.720   4.928  19.859  0.00  0.00    +0.000 C 
BRANCH  20  21
ATOM     21  C   UNL     1       2.033   6.200  20.652  0.00  0.00    +0.000 C 
BRANCH  21  22
ATOM     22  C   UNL     1       1.879   7.457  19.824  0.00  0.00    +0.000 A 
ATOM     23  C   UNL     1       1.181   8.566  20.322  0.00  0.00    +0.000 A 
ATOM     24  C   UNL     1       1.030   9.719  19.544  0.00  0.00    +0.000 A 
ATOM     25  C   UNL     1       1.575   9.773  18.261  0.00  0.00    +0.000 A 
ATOM     26  C   UNL     1       2.270   8.680  17.755  0.00  0.00    +0.000 A 
ATOM     27  C   UNL     1       2.420   7.529  18.537  0.00  0.00    +0.000 A 
ENDBRANCH  21  22
ENDBRANCH  20  21
ENDBRANCH  18  20
ENDBRANCH  15  17
ENDBRANCH   1  15
TORSDOF 7
ENDMDL
MODEL 2
REMARK VINA RESULT:      -7.6      3.648      5.633
REMARK  Name = 
REMARK  7 active torsions:
REMARK  status: ('A' for Active; 'I' for Inactive)
REMARK    1  A    between atoms: C_2  and  C_3
REMARK    2  A    between atoms: C_3  and  N_4
REMARK    3  A    between atoms: C_6  and  C_7
REMARK    4  A    between atoms: C_9  and  C_10
REMARK    5  A    between atoms: N_18  and  C_19
REMARK    6  A    between atoms: C_19  and  C_20
REMARK    7  A    between atoms: C_20  and  C_21
REMARK                            x       y       z     vdW  Elec       q    Type
REMARK                         _______ _______ _______ _____ _____    ______ ____
ROOT
ATOM      1  N   UNL     1       3.513   6.238  18.520  0.00  0.00    +0.000 NA
ATOM      2  C   UNL     1       4.436   5.565  19.471  0.00  0.00    +0.000 C 
ATOM      3  C   UNL     1       4.471   4.350  18.498  0.00  0.00    +0.000 C 
ATOM      4  C   UNL     1       3.071   4.886  18.085  0.00  0.00    +0.000 C 
ENDROOT
BRANCH   3   5
ATOM      5  C   UNL     1       5.522   4.465  17.396  0.00  0.00    +0.000 A 
ATOM      6  N   UNL     1       5.239   4.360  16.115  0.00  0.00    +0.000 NA
ATOM      7  C   UNL     1       6.485   4.424  15.530  0.00  0.00    +0.000 A 
ATOM      8  N   UNL     1       7.494   4.594  16.394  0.00  0.00    +0.000 NA
ATOM      9  O   UNL     1       6.859   4.637  17.631  0.00  0.00    +0.000 OA
BRANCH   7  10
ATOM     10  C   UNL     1       6.694   4.265  14.064  0.00  0.00    +0.000 A 
ATOM     11  C   UNL     1       7.547   5.025  13.285  0.00  0.00    +0.000 A 
ATOM     12  C   UNL     1       7.399   4.572  11.952  0.00  0.00    +0.000 A 
ATOM     13  C   UNL     1       6.467   3.564  11.994  0.00  0.00    +0.000 A 
ATOM     14  O   UNL     1       6.046   3.358  13.268  0.00  0.00    +0.000 OA
ENDBRANCH   7  10
ENDBRANCH   3   5
BRANCH   1  15
ATOM     15  C   UNL     1       2.432   6.946  19.231  0.00  0.00    +0.000 C 
BRANCH  15  17
ATOM     16  O   UNL     1       2.529   8.530  17.401  0.00  0.00    +0.000 OA
ATOM     17  C   UNL     1       2.095   8.268  18.521  0.00  0.00    +0.000 C 
ATOM     18  N   UNL     1       1.223   9.092  19.205  0.00  0.00    +0.000 N 
ATOM     19  H   UNL     1       1.032   8.833  20.170  0.00  0.00    +0.000 HD
BRANCH  18  20
ATOM     20  C   UNL     1       0.830  10.393  18.689  0.00  0.00    +0.000 C 
BRANCH  20  21
ATOM     21  C   UNL     1      -0.484  10.900  19.290  0.00  0.00    +0.000 C 
BRANCH  21  22
ATOM     22  C   UNL     1      -1.639  10.823  18.317  0.00  0.00    +0.000 A 
ATOM     23  C   UNL     1      -2.790  11.601  18.504  0.00  0.00    +0.000 A 
ATOM     24  C   UNL     1      -3.861  11.512  17.607  0.00  0.00    +0.000 A 
ATOM     25  C   UNL     1      -3.790  10.645  16.517  0.00  0.00    +0.000 A 
ATOM     26  C   UNL     1      -2.654   9.868  16.321  0.00  0.00    +0.000 A 
ATOM     27  C   UNL     1      -1.585   9.960  17.218  0.00  0.00    +0.000 A 
ENDBRANCH  21  22
ENDBRANCH  20  21
ENDBRANCH  18  20
ENDBRANCH  15  17
ENDBRANCH   1  15
TORSDOF 7
ENDMDL
MODEL 3
REMARK VINA RESULT:      -7.4      2.072      7.161
REMARK  Name = 
REMARK  7 active torsions:
REMARK  status: ('A' for Active; 'I' for Inactive)
REMARK    1  A    between atoms: C_2  and  C_3
REMARK    2  A    between atoms: C_3  and  N_4
REMARK    3  A    between atoms: C_6  and  C_7
REMARK    4  A    between atoms: C_9  and  C_10
REMARK    5  A    between atoms: N_18  and  C_19
REMARK    6  A    between atoms: C_19  and  C_20
REMARK    7  A    between atoms: C_20  and  C_21
REMARK                            x       y       z     vdW  Elec       q    Type
REMARK                         _______ _______ _______ _____ _____    ______ ____
ROOT
ATOM      1  N   UNL     1       5.625   5.459  18.558  0.00  0.00    +0.000 NA
ATOM      2  C   UNL     1       4.711   5.700  17.410  0.00  0.00    +0.000 C 
ATOM      3  C   UNL     1       3.664   4.793  18.119  0.00  0.00    +0.000 C 
ATOM      4  C   UNL     1       4.931   4.159  18.759  0.00  0.00    +0.000 C 
ENDROOT
BRANCH   3   5
ATOM      5  C   UNL     1       2.774   5.530  19.117  0.00  0.00    +0.000 A 
ATOM      6  N   UNL     1       2.520   6.819  19.042  0.00  0.00    +0.000 NA
ATOM      7  C   UNL     1       1.781   7.042  20.184  0.00  0.00    +0.000 A 
ATOM      8  N   UNL     1       1.555   5.946  20.920  0.00  0.00    +0.000 NA
ATOM      9  O   UNL     1       2.199   4.939  20.208  0.00  0.00    +0.000 OA
BRANCH   7  10
ATOM     10  C   UNL     1       1.318   8.398  20.591  0.00  0.00    +0.000 A 
ATOM     11  C   UNL     1       0.969   8.779  21.873  0.00  0.00    +0.000 A 
ATOM     12  C   UNL     1       0.545  10.128  21.800  0.00  0.00    +0.000 A 
ATOM     13  C   UNL     1       0.661  10.491  20.480  0.00  0.00    +0.000 A 
ATOM     14  O   UNL     1       1.143   9.459  19.742  0.00  0.00    +0.000 OA
ENDBRANCH   7  10
ENDBRANCH   3   5
BRANCH   1  15
ATOM     15  C   UNL     1       7.013   5.255  18.105  0.00  0.00    +0.000 C 
BRANCH  15  17
ATOM     16  O   UNL     1       7.736   6.566  16.201  0.00  0.00    +0.000 OA
ATOM     17  C   UNL     1       7.547   6.521  17.414  0.00  0.00    +0.000 C 
ATOM     18  N   UNL     1       7.729   7.608  18.248  0.00  0.00    +0.000 N 
ATOM     19  H   UNL     1       7.664   7.418  19.245  0.00  0.00    +0.000 HD
BRANCH  18  20
ATOM     20  C   UNL     1       8.262   8.869  17.760  0.00  0.00    +0.000 C 
BRANCH  20  21
ATOM     21  C   UNL     1       8.913   9.707  18.864  0.00  0.00    +0.000 C 
BRANCH  21  22
ATOM     22  C   UNL     1       9.521  10.990  18.341  0.00  0.00    +0.000 A 
ATOM     23  C   UNL     1       8.711  12.078  17.986  0.00  0.00    +0.000 A 
ATOM     24  C   UNL     1       9.281  13.255  17.489  0.00  0.00    +0.000 A 
ATOM     25  C   UNL     1      10.664  13.355  17.342  0.00  0.00    +0.000 A 
ATOM     26  C   UNL     1      11.478  12.284  17.691  0.00  0.00    +0.000 A 
ATOM     27  C   UNL     1      10.906  11.109  18.189  0.00  0.00    +0.000 A 
ENDBRANCH  21  22
ENDBRANCH  20  21
ENDBRANCH  18  20
ENDBRANCH  15  17
ENDBRANCH   1  15
TORSDOF 7
ENDMDL
MODEL 4
REMARK VINA RESULT:      -7.3      2.681      7.656
REMARK  Name = 
REMARK  7 active torsions:
REMARK  status: ('A' for Active; 'I' for Inactive)
REMARK    1  A    between atoms: C_2  and  C_3
REMARK    2  A    between atoms: C_3  and  N_4
REMARK    3  A    between atoms: C_6  and  C_7
REMARK    4  A    between atoms: C_9  and  C_10
REMARK    5  A    between atoms: N_18  and  C_19
REMARK    6  A    between atoms: C_19  and  C_20
REMARK    7  A    between atoms: C_20  and  C_21
REMARK                            x       y       z     vdW  Elec       q    Type
REMARK                         _______ _______ _______ _____ _____    ______ ____
ROOT
ATOM      1  N   UNL     1       4.821   6.348  18.081  0.00  0.00    +0.000 NA
ATOM      2  C   UNL     1       3.591   5.754  17.493  0.00  0.00    +0.000 C 
ATOM      3  C   UNL     1       2.946   5.819  18.909  0.00  0.00    +0.000 C 
ATOM      4  C   UNL     1       4.426   5.734  19.377  0.00  0.00    +0.000 C 
ENDROOT
BRANCH   3   5
ATOM      5  C   UNL     1       2.276   7.153  19.228  0.00  0.00    +0.000 A 
ATOM      6  N   UNL     1       1.809   7.460  20.420  0.00  0.00    +0.000 NA
ATOM      7  C   UNL     1       1.220   8.686  20.201  0.00  0.00    +0.000 A 
ATOM      8  N   UNL     1       1.338   9.141  18.947  0.00  0.00    +0.000 NA
ATOM      9  O   UNL     1       2.051   8.136  18.303  0.00  0.00    +0.000 OA
BRANCH   7  10
ATOM     10  C   UNL     1       0.468   9.418  21.259  0.00  0.00    +0.000 A 
ATOM     11  C   UNL     1       0.023  10.724  21.173  0.00  0.00    +0.000 A 
ATOM     12  C   UNL     1      -0.594  11.029  22.411  0.00  0.00    +0.000 A 
ATOM     13  C   UNL     1      -0.489   9.894  23.178  0.00  0.00    +0.000 A 
ATOM     14  O   UNL     1       0.135   8.908  22.486  0.00  0.00    +0.000 OA
ENDBRANCH   7  10
ENDBRANCH   3   5
BRANCH   1  15
ATOM     15  C   UNL     1       6.036   5.710  17.540  0.00  0.00    +0.000 C 
BRANCH  15  17
ATOM     16  O   UNL     1       8.114   5.704  18.783  0.00  0.00    +0.000 OA
ATOM     17  C   UNL     1       7.296   6.356  18.137  0.00  0.00    +0.000 C 
ATOM     18  N   UNL     1       7.465   7.694  17.836  0.00  0.00    +0.000 N 
ATOM     19  H   UNL     1       6.667   8.156  17.407  0.00  0.00    +0.000 HD
BRANCH  18  20
ATOM     20  C   UNL     1       8.586   8.463  18.352  0.00  0.00    +0.000 C 
BRANCH  20  21
ATOM     21  C   UNL     1       8.428   9.969  18.129  0.00  0.00    +0.000 C 
BRANCH  21  22
ATOM     22  C   UNL     1       9.572  10.769  18.712  0.00  0.00    +0.000 A 
ATOM     23  C   UNL     1       9.615  11.070  20.081  0.00  0.00    +0.000 A 
ATOM     24  C   UNL     1      10.669  11.824  20.609  0.00  0.00    +0.000 A 
ATOM     25  C   UNL     1      11.688  12.282  19.775  0.00  0.00    +0.000 A 
ATOM     26  C   UNL     1      11.657  11.990  18.416  0.00  0.00    +0.000 A 
ATOM     27  C   UNL     1      10.603  11.235  17.890  0.00  0.00    +0.000 A 
ENDBRANCH  21  22
ENDBRANCH  20  21
ENDBRANCH  18  20
ENDBRANCH  15  17
ENDBRANCH   1  15
TORSDOF 7
ENDMDL
MODEL 5
REMARK VINA RESULT:      -7.2      1.058      1.393
REMARK  Name = 
REMARK  7 active torsions:
REMARK  status: ('A' for Active; 'I' for Inactive)
REMARK    1  A    between atoms: C_2  and  C_3
REMARK    2  A    between atoms: C_3  and  N_4
REMARK    3  A    between atoms: C_6  and  C_7
REMARK    4  A    between atoms: C_9  and  C_10
REMARK    5  A    between atoms: N_18  and  C_19
REMARK    6  A    between atoms: C_19  and  C_20
REMARK    7  A    between atoms: C_20  and  C_21
REMARK                            x       y       z     vdW  Elec       q    Type
REMARK                         _______ _______ _______ _____ _____    ______ ____
ROOT
ATOM      1  N   UNL     1       5.712   4.972  18.036  0.00  0.00    +0.000 NA
ATOM      2  C   UNL     1       6.388   5.175  19.345  0.00  0.00    +0.000 C 
ATOM      3  C   UNL     1       7.692   5.507  18.562  0.00  0.00    +0.000 C 
ATOM      4  C   UNL     1       7.040   4.606  17.475  0.00  0.00    +0.000 C 
ENDROOT
BRANCH   3   5
ATOM      5  C   UNL     1       7.817   6.972  18.152  0.00  0.00    +0.000 A 
ATOM      6  N   UNL     1       8.597   7.832  18.773  0.00  0.00    +0.000 NA
ATOM      7  C   UNL     1       8.304   9.015  18.130  0.00  0.00    +0.000 A 
ATOM      8  N   UNL     1       7.412   8.900  17.138  0.00  0.00    +0.000 NA
ATOM      9  O   UNL     1       7.098   7.545  17.138  0.00  0.00    +0.000 OA
BRANCH   7  10
ATOM     10  C   UNL     1       8.891  10.321  18.542  0.00  0.00    +0.000 A 
ATOM     11  C   UNL     1       9.728  10.523  19.624  0.00  0.00    +0.000 A 
ATOM     12  C   UNL     1      10.006  11.911  19.675  0.00  0.00    +0.000 A 
ATOM     13  C   UNL     1       9.324  12.473  18.623  0.00  0.00    +0.000 A 
ATOM     14  O   UNL     1       8.661  11.520  17.921  0.00  0.00    +0.000 OA
ENDBRANCH   7  10
ENDBRANCH   3   5
BRANCH   1  15
ATOM     15  C   UNL     1       4.811   3.805  18.073  0.00  0.00    +0.000 C 
BRANCH  15  17
ATOM     16  O   UNL     1       2.495   4.142  17.452  0.00  0.00    +0.000 OA
ATOM     17  C   UNL     1       3.360   4.251  18.318  0.00  0.00    +0.000 C 
ATOM     18  N   UNL     1       3.099   4.713  19.593  0.00  0.00    +0.000 N 
ATOM     19  H   UNL     1       3.913   4.878  20.180  0.00  0.00    +0.000 HD
BRANCH  18  20
ATOM     20  C   UNL     1       1.787   5.206  19.979  0.00  0.00    +0.000 C 
BRANCH  20  21
ATOM     21  C   UNL     1       1.852   6.507  20.783  0.00  0.00    +0.000 C 
BRANCH  21  22
ATOM     22  C   UNL     1       1.751   7.739  19.910  0.00  0.00    +0.000 A 
ATOM     23  C   UNL     1       1.056   8.875  20.347  0.00  0.00    +0.000 A 
ATOM     24  C   UNL     1       0.954  10.004  19.528  0.00  0.00    +0.000 A 
ATOM     25  C   UNL     1       1.546  10.008  18.265  0.00  0.00    +0.000 A 
ATOM     26  C   UNL     1       2.238   8.887  17.820  0.00  0.00    +0.000 A 
ATOM     27  C   UNL     1       2.340   7.760  18.642  0.00  0.00    +0.000 A 
ENDBRANCH  21  22
ENDBRANCH  20  21
ENDBRANCH  18  20
ENDBRANCH  15  17
ENDBRANCH   1  15
TORSDOF 7
ENDMDL
MODEL 6
REMARK VINA RESULT:      -7.2      2.281      7.595
REMARK  Name = 
REMARK  7 active torsions:
REMARK  status: ('A' for Active; 'I' for Inactive)
REMARK    1  A    between atoms: C_2  and  C_3
REMARK    2  A    between atoms: C_3  and  N_4
REMARK    3  A    between atoms: C_6  and  C_7
REMARK    4  A    between atoms: C_9  and  C_10
REMARK    5  A    between atoms: N_18  and  C_19
REMARK    6  A    between atoms: C_19  and  C_20
REMARK    7  A    between atoms: C_20  and  C_21
REMARK                            x       y       z     vdW  Elec       q    Type
REMARK                         _______ _______ _______ _____ _____    ______ ____
ROOT
ATOM      1  N   UNL     1       5.958   5.804  18.721  0.00  0.00    +0.000 NA
ATOM      2  C   UNL     1       5.034   5.547  17.585  0.00  0.00    +0.000 C 
ATOM      3  C   UNL     1       4.238   4.587  18.518  0.00  0.00    +0.000 C 
ATOM      4  C   UNL     1       5.613   4.450  19.230  0.00  0.00    +0.000 C 
ENDROOT
BRANCH   3   5
ATOM      5  C   UNL     1       3.174   5.280  19.364  0.00  0.00    +0.000 A 
ATOM      6  N   UNL     1       2.930   6.572  19.300  0.00  0.00    +0.000 NA
ATOM      7  C   UNL     1       1.989   6.745  20.293  0.00  0.00    +0.000 A 
ATOM      8  N   UNL     1       1.637   5.618  20.924  0.00  0.00    +0.000 NA
ATOM      9  O   UNL     1       2.408   4.642  20.301  0.00  0.00    +0.000 OA
BRANCH   7  10
ATOM     10  C   UNL     1       1.450   8.083  20.666  0.00  0.00    +0.000 A 
ATOM     11  C   UNL     1       1.100   9.086  19.782  0.00  0.00    +0.000 A 
ATOM     12  C   UNL     1       0.686  10.194  20.560  0.00  0.00    +0.000 A 
ATOM     13  C   UNL     1       0.806   9.803  21.872  0.00  0.00    +0.000 A 
ATOM     14  O   UNL     1       1.251   8.523  21.948  0.00  0.00    +0.000 OA
ENDBRANCH   7  10
ENDBRANCH   3   5
BRANCH   1  15
ATOM     15  C   UNL     1       7.361   5.860  18.269  0.00  0.00    +0.000 C 
BRANCH  15  17
ATOM     16  O   UNL     1       7.372   7.667  16.657  0.00  0.00    +0.000 OA
ATOM     17  C   UNL     1       7.712   7.271  17.770  0.00  0.00    +0.000 C 
ATOM     18  N   UNL     1       8.371   8.067  18.686  0.00  0.00    +0.000 N 
ATOM     19  H   UNL     1       8.710   7.595  19.521  0.00  0.00    +0.000 HD
BRANCH  18  20
ATOM     20  C   UNL     1       8.806   9.416  18.361  0.00  0.00    +0.000 C 
BRANCH  20  21
ATOM     21  C   UNL     1       9.350  10.175  19.574  0.00  0.00    +0.000 C 
BRANCH  21  22
ATOM     22  C   UNL     1      10.356  11.239  19.194  0.00  0.00    +0.000 A 
ATOM     23  C   UNL     1      11.056  11.952  20.178  0.00  0.00    +0.000 A 
ATOM     24  C   UNL     1      11.974  12.944  19.817  0.00  0.00    +0.000 A 
ATOM     25  C   UNL     1      12.200  13.233  18.472  0.00  0.00    +0.000 A 
ATOM     26  C   UNL     1      11.512  12.533  17.487  0.00  0.00    +0.000 A 
ATOM     27  C   UNL     1      10.596  11.540  17.849  0.00  0.00    +0.000 A 
ENDBRANCH  21  22
ENDBRANCH  20  21
ENDBRANCH  18  20
ENDBRANCH  15  17
ENDBRANCH   1  15
TORSDOF 7
ENDMDL
MODEL 7
REMARK VINA RESULT:      -7.2      3.423      5.159
REMARK  Name = 
REMARK  7 active torsions:
REMARK  status: ('A' for Active; 'I' for Inactive)
REMARK    1  A    between atoms: C_2  and  C_3
REMARK    2  A    between atoms: C_3  and  N_4
REMARK    3  A    between atoms: C_6  and  C_7
REMARK    4  A    between atoms: C_9  and  C_10
REMARK    5  A    between atoms: N_18  and  C_19
REMARK    6  A    between atoms: C_19  and  C_20
REMARK    7  A    between atoms: C_20  and  C_21
REMARK                            x       y       z     vdW  Elec       q    Type
REMARK                         _______ _______ _______ _____ _____    ______ ____
ROOT
ATOM      1  N   UNL     1       3.593   5.419  18.755  0.00  0.00    +0.000 NA
ATOM      2  C   UNL     1       4.861   5.591  19.512  0.00  0.00    +0.000 C 
ATOM      3  C   UNL     1       5.437   4.379  18.722  0.00  0.00    +0.000 C 
ATOM      4  C   UNL     1       3.938   3.978  18.622  0.00  0.00    +0.000 C 
ENDROOT
BRANCH   3   5
ATOM      5  C   UNL     1       6.065   4.750  17.381  0.00  0.00    +0.000 A 
ATOM      6  N   UNL     1       5.694   4.214  16.238  0.00  0.00    +0.000 NA
ATOM      7  C   UNL     1       6.589   4.767  15.348  0.00  0.00    +0.000 A 
ATOM      8  N   UNL     1       7.454   5.629  15.896  0.00  0.00    +0.000 NA
ATOM      9  O   UNL     1       7.101   5.633  17.241  0.00  0.00    +0.000 OA
BRANCH   7  10
ATOM     10  C   UNL     1       6.623   4.395  13.906  0.00  0.00    +0.000 A 
ATOM     11  C   UNL     1       5.779   3.493  13.286  0.00  0.00    +0.000 A 
ATOM     12  C   UNL     1       6.191   3.405  11.934  0.00  0.00    +0.000 A 
ATOM     13  C   UNL     1       7.260   4.259  11.807  0.00  0.00    +0.000 A 
ATOM     14  O   UNL     1       7.520   4.876  12.988  0.00  0.00    +0.000 OA
ENDBRANCH   7  10
ENDBRANCH   3   5
BRANCH   1  15
ATOM     15  C   UNL     1       2.418   5.605  19.626  0.00  0.00    +0.000 C 
BRANCH  15  17
ATOM     16  O   UNL     1       2.336   7.926  18.941  0.00  0.00    +0.000 OA
ATOM     17  C   UNL     1       2.128   7.101  19.828  0.00  0.00    +0.000 C 
ATOM     18  N   UNL     1       1.560   7.427  21.045  0.00  0.00    +0.000 N 
ATOM     19  H   UNL     1       1.553   6.687  21.743  0.00  0.00    +0.000 HD
BRANCH  18  20
ATOM     20  C   UNL     1       1.257   8.801  21.409  0.00  0.00    +0.000 C 
BRANCH  20  21
ATOM     21  C   UNL     1      -0.147   9.235  20.979  0.00  0.00    +0.000 C 
BRANCH  21  22
ATOM     22  C   UNL     1      -0.138  10.492  20.137  0.00  0.00    +0.000 A 
ATOM     23  C   UNL     1      -1.323  10.995  19.582  0.00  0.00    +0.000 A 
ATOM     24  C   UNL     1      -1.303  12.149  18.792  0.00  0.00    +0.000 A 
ATOM     25  C   UNL     1      -0.099  12.810  18.550  0.00  0.00    +0.000 A 
ATOM     26  C   UNL     1       1.083  12.322  19.095  0.00  0.00    +0.000 A 
ATOM     27  C   UNL     1       1.060  11.169  19.886  0.00  0.00    +0.000 A 
ENDBRANCH  21  22
ENDBRANCH  20  21
ENDBRANCH  18  20
ENDBRANCH  15  17
ENDBRANCH   1  15
TORSDOF 7
ENDMDL
MODEL 8
REMARK VINA RESULT:      -7.2      3.683      5.431
REMARK  Name = 
REMARK  7 active torsions:
REMARK  status: ('A' for Active; 'I' for Inactive)
REMARK    1  A    between atoms: C_2  and  C_3
REMARK    2  A    between atoms: C_3  and  N_4
REMARK    3  A    between atoms: C_6  and  C_7
REMARK    4  A    between atoms: C_9  and  C_10
REMARK    5  A    between atoms: N_18  and  C_19
REMARK    6  A    between atoms: C_19  and  C_20
REMARK    7  A    between atoms: C_20  and  C_21
REMARK                            x       y       z     vdW  Elec       q    Type
REMARK                         _______ _______ _______ _____ _____    ______ ____
ROOT
ATOM      1  N   UNL     1       3.454   6.305  18.671  0.00  0.00    +0.000 NA
ATOM      2  C   UNL     1       4.182   5.414  19.613  0.00  0.00    +0.000 C 
ATOM      3  C   UNL     1       4.218   4.339  18.487  0.00  0.00    +0.000 C 
ATOM      4  C   UNL     1       2.939   5.080  18.004  0.00  0.00    +0.000 C 
ENDROOT
BRANCH   3   5
ATOM      5  C   UNL     1       5.403   4.474  17.534  0.00  0.00    +0.000 A 
ATOM      6  N   UNL     1       5.270   4.648  16.237  0.00  0.00    +0.000 NA
ATOM      7  C   UNL     1       6.575   4.610  15.797  0.00  0.00    +0.000 A 
ATOM      8  N   UNL     1       7.483   4.454  16.770  0.00  0.00    +0.000 NA
ATOM      9  O   UNL     1       6.711   4.380  17.924  0.00  0.00    +0.000 OA
BRANCH   7  10
ATOM     10  C   UNL     1       6.941   4.683  14.355  0.00  0.00    +0.000 A 
ATOM     11  C   UNL     1       6.410   3.899  13.348  0.00  0.00    +0.000 A 
ATOM     12  C   UNL     1       7.071   4.264  12.150  0.00  0.00    +0.000 A 
ATOM     13  C   UNL     1       7.965   5.249  12.495  0.00  0.00    +0.000 A 
ATOM     14  O   UNL     1       7.883   5.523  13.822  0.00  0.00    +0.000 OA
ENDBRANCH   7  10
ENDBRANCH   3   5
BRANCH   1  15
ATOM     15  C   UNL     1       2.369   7.035  19.353  0.00  0.00    +0.000 C 
BRANCH  15  17
ATOM     16  O   UNL     1       2.504   8.585  17.497  0.00  0.00    +0.000 OA
ATOM     17  C   UNL     1       2.057   8.348  18.617  0.00  0.00    +0.000 C 
ATOM     18  N   UNL     1       1.192   9.197  19.280  0.00  0.00    +0.000 N 
ATOM     19  H   UNL     1       0.990   8.957  20.248  0.00  0.00    +0.000 HD
BRANCH  18  20
ATOM     20  C   UNL     1       0.822  10.495  18.739  0.00  0.00    +0.000 C 
BRANCH  20  21
ATOM     21  C   UNL     1       1.001  11.633  19.747  0.00  0.00    +0.000 C 
BRANCH  21  22
ATOM     22  C   UNL     1       0.037  11.541  20.909  0.00  0.00    +0.000 A 
ATOM     23  C   UNL     1      -1.027  12.445  21.035  0.00  0.00    +0.000 A 
ATOM     24  C   UNL     1      -1.905  12.362  22.121  0.00  0.00    +0.000 A 
ATOM     25  C   UNL     1      -1.726  11.376  23.091  0.00  0.00    +0.000 A 
ATOM     26  C   UNL     1      -0.675  10.473  22.978  0.00  0.00    +0.000 A 
ATOM     27  C   UNL     1       0.200  10.557  21.890  0.00  0.00    +0.000 A 
ENDBRANCH  21  22
ENDBRANCH  20  21
ENDBRANCH  18  20
ENDBRANCH  15  17
ENDBRANCH   1  15
TORSDOF 7
ENDMDL
MODEL 9
REMARK VINA RESULT:      -7.2      3.149      5.486
REMARK  Name = 
REMARK  7 active torsions:
REMARK  status: ('A' for Active; 'I' for Inactive)
REMARK    1  A    between atoms: C_2  and  C_3
REMARK    2  A    between atoms: C_3  and  N_4
REMARK    3  A    between atoms: C_6  and  C_7
REMARK    4  A    between atoms: C_9  and  C_10
REMARK    5  A    between atoms: N_18  and  C_19
REMARK    6  A    between atoms: C_19  and  C_20
REMARK    7  A    between atoms: C_20  and  C_21
REMARK                            x       y       z     vdW  Elec       q    Type
REMARK                         _______ _______ _______ _____ _____    ______ ____
ROOT
ATOM      1  N   UNL     1       5.116   4.330  18.092  0.00  0.00    +0.000 NA
ATOM      2  C   UNL     1       4.752   5.716  17.695  0.00  0.00    +0.000 C 
ATOM      3  C   UNL     1       6.234   5.928  17.268  0.00  0.00    +0.000 C 
ATOM      4  C   UNL     1       6.498   4.827  18.334  0.00  0.00    +0.000 C 
ENDROOT
BRANCH   3   5
ATOM      5  C   UNL     1       6.541   5.487  15.840  0.00  0.00    +0.000 A 
ATOM      6  N   UNL     1       5.712   4.769  15.112  0.00  0.00    +0.000 NA
ATOM      7  C   UNL     1       6.446   4.536  13.969  0.00  0.00    +0.000 A 
ATOM      8  N   UNL     1       7.659   5.104  13.965  0.00  0.00    +0.000 NA
ATOM      9  O   UNL     1       7.720   5.748  15.196  0.00  0.00    +0.000 OA
BRANCH   7  10
ATOM     10  C   UNL     1       5.951   3.680  12.855  0.00  0.00    +0.000 A 
ATOM     11  C   UNL     1       4.679   3.717  12.315  0.00  0.00    +0.000 A 
ATOM     12  C   UNL     1       4.625   2.709  11.321  0.00  0.00    +0.000 A 
ATOM     13  C   UNL     1       5.865   2.118  11.312  0.00  0.00    +0.000 A 
ATOM     14  O   UNL     1       6.681   2.708  12.223  0.00  0.00    +0.000 OA
ENDBRANCH   7  10
ENDBRANCH   3   5
BRANCH   1  15
ATOM     15  C   UNL     1       4.462   3.945  19.356  0.00  0.00    +0.000 C 
BRANCH  15  17
ATOM     16  O   UNL     1       2.110   4.193  18.834  0.00  0.00    +0.000 OA
ATOM     17  C   UNL     1       3.078   4.605  19.470  0.00  0.00    +0.000 C 
ATOM     18  N   UNL     1       2.997   5.639  20.383  0.00  0.00    +0.000 N 
ATOM     19  H   UNL     1       3.883   5.974  20.753  0.00  0.00    +0.000 HD
BRANCH  18  20
ATOM     20  C   UNL     1       1.770   6.391  20.586  0.00  0.00    +0.000 C 
BRANCH  20  21
ATOM     21  C   UNL     1       1.823   7.793  19.973  0.00  0.00    +0.000 C 
BRANCH  21  22
ATOM     22  C   UNL     1       1.028   8.807  20.767  0.00  0.00    +0.000 A 
ATOM     23  C   UNL     1       0.521   8.492  22.035  0.00  0.00    +0.000 A 
ATOM     24  C   UNL     1      -0.225   9.430  22.755  0.00  0.00    +0.000 A 
ATOM     25  C   UNL     1      -0.473  10.691  22.213  0.00  0.00    +0.000 A 
ATOM     26  C   UNL     1       0.024  11.017  20.957  0.00  0.00    +0.000 A 
ATOM     27  C   UNL     1       0.772  10.077  20.239  0.00  0.00    +0.000 A 
ENDBRANCH  21  22
ENDBRANCH  20  21
ENDBRANCH  18  20
ENDBRANCH  15  17
ENDBRANCH   1  15
TORSDOF 7
ENDMDL
