MODEL 1
REMARK VINA RESULT:      -9.8      0.000      0.000
REMARK  Name = 
REMARK  8 active torsions:
REMARK  status: ('A' for Active; 'I' for Inactive)
REMARK    1  A    between atoms: C_1  and  C_2
REMARK    2  A    between atoms: C_4  and  C_5
REMARK    3  A    between atoms: N_7  and  C_8
REMARK    4  A    between atoms: C_11  and  C_12
REMARK    5  A    between atoms: C_17  and  S_18
REMARK    6  A    between atoms: S_18  and  C_19
REMARK    7  A    between atoms: N_25  and  C_26
REMARK    8  A    between atoms: C_30  and  C_31
REMARK                            x       y       z     vdW  Elec       q    Type
REMARK                         _______ _______ _______ _____ _____    ______ ____
ROOT
ATOM      1  C   UNL     1       0.368  11.086  20.494  0.00  0.00    +0.000 C 
ATOM      2  O   UNL     1       1.269  11.752  19.994  0.00  0.00    +0.000 OA
ATOM      3  N   UNL     1       0.278   9.711  20.411  0.00  0.00    +0.000 N 
ATOM      4  H   UNL     1      -0.636   9.296  20.561  0.00  0.00    +0.000 HD
ENDROOT
BRANCH   3   5
ATOM      5  C   UNL     1       1.202   8.924  19.697  0.00  0.00    +0.000 A 
ATOM      6  C   UNL     1       1.529   9.155  18.368  0.00  0.00    +0.000 A 
ATOM      7  C   UNL     1       2.360   8.256  17.685  0.00  0.00    +0.000 A 
ATOM      8  C   UNL     1       2.931   7.119  18.308  0.00  0.00    +0.000 A 
ATOM      9  C   UNL     1       2.664   6.989  19.678  0.00  0.00    +0.000 A 
ATOM     10  C   UNL     1       1.798   7.855  20.348  0.00  0.00    +0.000 A 
ATOM     11  F   UNL     1       1.488   7.607  21.631  0.00  0.00    +0.000 F 
BRANCH   8  12
ATOM     12  C   UNL     1       3.779   6.166  17.516  0.00  0.00    +0.000 A 
ATOM     13  C   UNL     1       4.883   6.720  16.808  0.00  0.00    +0.000 A 
ATOM     14  C   UNL     1       5.701   5.973  15.956  0.00  0.00    +0.000 A 
ATOM     15  C   UNL     1       5.468   4.621  15.785  0.00  0.00    +0.000 A 
ATOM     16  C   UNL     1       4.425   4.018  16.484  0.00  0.00    +0.000 A 
ATOM     17  C   UNL     1       3.585   4.765  17.340  0.00  0.00    +0.000 A 
BRANCH  17  18
ATOM     18  S   UNL     1       2.285   3.855  18.164  0.00  0.00    +0.000 S 
ATOM     19  C   UNL     1       2.424   2.144  17.769  0.00  0.00    +0.000 C 
ATOM     20  O   UNL     1       2.573   3.936  19.583  0.00  0.00    +0.000 OA
ATOM     21  O   UNL     1       1.025   4.310  17.608  0.00  0.00    +0.000 OA
ENDBRANCH  17  18
ENDBRANCH   8  12
ENDBRANCH   3   5
BRANCH   1  25
ATOM     22  C   UNL     1      -2.414  13.742  23.721  0.00  0.00    +0.000 C 
ATOM     23  C   UNL     1      -1.939  12.930  22.572  0.00  0.00    +0.000 A 
ATOM     24  C   UNL     1      -0.767  12.158  22.493  0.00  0.00    +0.000 A 
ATOM     25  C   UNL     1      -0.733  11.691  21.189  0.00  0.00    +0.000 A 
ATOM     26  N   UNL     1      -1.928  12.081  20.609  0.00  0.00    +0.000 N 
ATOM     27  N   UNL     1      -2.621  12.926  21.423  0.00  0.00    +0.000 NA
BRANCH  26  28
ATOM     28  C   UNL     1      -2.444  11.735  19.329  0.00  0.00    +0.000 A 
ATOM     29  C   UNL     1      -1.596  11.318  18.292  0.00  0.00    +0.000 A 
ATOM     30  C   UNL     1      -2.108  11.116  17.009  0.00  0.00    +0.000 A 
ATOM     31  C   UNL     1      -3.461  11.333  16.754  0.00  0.00    +0.000 A 
ATOM     32  C   UNL     1      -4.322  11.698  17.796  0.00  0.00    +0.000 A 
ATOM     33  C   UNL     1      -3.819  11.865  19.094  0.00  0.00    +0.000 A 
BRANCH  32  34
ATOM     34  C   UNL     1      -5.756  11.997  17.521  0.00  0.00    +0.000 C 
ATOM     35  N   UNL     1      -6.721  11.189  17.827  0.00  0.00    +0.000 NA
ATOM     36  N   UNL     1      -6.111  13.156  16.895  0.00  0.00    +0.000 N 
ATOM     37  H   UNL     1      -6.375  10.365  18.325  0.00  0.00    +0.000 HD
ATOM     38  H   UNL     1      -5.466  13.504  16.195  0.00  0.00    +0.000 HD
ATOM     39  H   UNL     1      -7.068  13.111  16.562  0.00  0.00    +0.000 HD
ENDBRANCH  32  34
ENDBRANCH  26  28
ENDBRANCH   1  25
TORSDOF 6
ENDMDL
MODEL 2
REMARK VINA RESULT:      -9.5      2.952      3.868
REMARK  Name = 
REMARK  8 active torsions:
REMARK  status: ('A' for Active; 'I' for Inactive)
REMARK    1  A    between atoms: C_1  and  C_2
REMARK    2  A    between atoms: C_4  and  C_5
REMARK    3  A    between atoms: N_7  and  C_8
REMARK    4  A    between atoms: C_11  and  C_12
REMARK    5  A    between atoms: C_17  and  S_18
REMARK    6  A    between atoms: S_18  and  C_19
REMARK    7  A    between atoms: N_25  and  C_26
REMARK    8  A    between atoms: C_30  and  C_31
REMARK                            x       y       z     vdW  Elec       q    Type
REMARK                         _______ _______ _______ _____ _____    ______ ____
ROOT
ATOM      1  C   UNL     1       0.714  10.482  21.375  0.00  0.00    +0.000 C 
ATOM      2  O   UNL     1       1.785  10.405  21.969  0.00  0.00    +0.000 OA
ATOM      3  N   UNL     1       0.417   9.796  20.214  0.00  0.00    +0.000 N 
ATOM      4  H   UNL     1      -0.335  10.163  19.639  0.00  0.00    +0.000 HD
ENDROOT
BRANCH   3   5
ATOM      5  C   UNL     1       1.342   8.960  19.561  0.00  0.00    +0.000 A 
ATOM      6  C   UNL     1       1.864   9.240  18.306  0.00  0.00    +0.000 A 
ATOM      7  C   UNL     1       2.682   8.299  17.662  0.00  0.00    +0.000 A 
ATOM      8  C   UNL     1       3.045   7.067  18.259  0.00  0.00    +0.000 A 
ATOM      9  C   UNL     1       2.586   6.878  19.569  0.00  0.00    +0.000 A 
ATOM     10  C   UNL     1       1.733   7.790  20.193  0.00  0.00    +0.000 A 
ATOM     11  F   UNL     1       1.232   7.495  21.404  0.00  0.00    +0.000 F 
BRANCH   8  12
ATOM     12  C   UNL     1       3.888   6.079  17.505  0.00  0.00    +0.000 A 
ATOM     13  C   UNL     1       5.037   6.589  16.837  0.00  0.00    +0.000 A 
ATOM     14  C   UNL     1       5.859   5.807  16.020  0.00  0.00    +0.000 A 
ATOM     15  C   UNL     1       5.586   4.463  15.850  0.00  0.00    +0.000 A 
ATOM     16  C   UNL     1       4.497   3.903  16.512  0.00  0.00    +0.000 A 
ATOM     17  C   UNL     1       3.652   4.684  17.331  0.00  0.00    +0.000 A 
BRANCH  17  18
ATOM     18  S   UNL     1       2.290   3.827  18.111  0.00  0.00    +0.000 S 
ATOM     19  C   UNL     1       2.401   2.105  17.757  0.00  0.00    +0.000 C 
ATOM     20  O   UNL     1       2.514   3.930  19.540  0.00  0.00    +0.000 OA
ATOM     21  O   UNL     1       1.070   4.303  17.487  0.00  0.00    +0.000 OA
ENDBRANCH  17  18
ENDBRANCH   8  12
ENDBRANCH   3   5
BRANCH   1  25
ATOM     22  C   UNL     1      -3.294  12.381  23.728  0.00  0.00    +0.000 C 
ATOM     23  C   UNL     1      -2.063  12.199  22.917  0.00  0.00    +0.000 A 
ATOM     24  C   UNL     1      -1.551  11.000  22.392  0.00  0.00    +0.000 A 
ATOM     25  C   UNL     1      -0.342  11.350  21.814  0.00  0.00    +0.000 A 
ATOM     26  N   UNL     1      -0.260  12.729  21.897  0.00  0.00    +0.000 N 
ATOM     27  N   UNL     1      -1.265  13.241  22.663  0.00  0.00    +0.000 NA
BRANCH  26  28
ATOM     28  C   UNL     1       0.717  13.594  21.329  0.00  0.00    +0.000 A 
ATOM     29  C   UNL     1       1.049  14.814  21.938  0.00  0.00    +0.000 A 
ATOM     30  C   UNL     1       1.908  15.706  21.294  0.00  0.00    +0.000 A 
ATOM     31  C   UNL     1       2.433  15.390  20.042  0.00  0.00    +0.000 A 
ATOM     32  C   UNL     1       2.147  14.152  19.453  0.00  0.00    +0.000 A 
ATOM     33  C   UNL     1       1.315  13.238  20.114  0.00  0.00    +0.000 A 
BRANCH  32  34
ATOM     34  C   UNL     1       2.649  13.832  18.086  0.00  0.00    +0.000 C 
ATOM     35  N   UNL     1       2.348  12.741  17.457  0.00  0.00    +0.000 NA
ATOM     36  N   UNL     1       3.490  14.692  17.442  0.00  0.00    +0.000 N 
ATOM     37  H   UNL     1       1.686  12.172  17.990  0.00  0.00    +0.000 HD
ATOM     38  H   UNL     1       4.146  15.199  18.025  0.00  0.00    +0.000 HD
ATOM     39  H   UNL     1       3.933  14.240  16.649  0.00  0.00    +0.000 HD
ENDBRANCH  32  34
ENDBRANCH  26  28
ENDBRANCH   1  25
TORSDOF 6
ENDMDL
MODEL 3
REMARK VINA RESULT:      -9.5      4.106      9.807
REMARK  Name = 
REMARK  8 active torsions:
REMARK  status: ('A' for Active; 'I' for Inactive)
REMARK    1  A    between atoms: C_1  and  C_2
REMARK    2  A    between atoms: C_4  and  C_5
REMARK    3  A    between atoms: N_7  and  C_8
REMARK    4  A    between atoms: C_11  and  C_12
REMARK    5  A    between atoms: C_17  and  S_18
REMARK    6  A    between atoms: S_18  and  C_19
REMARK    7  A    between atoms: N_25  and  C_26
REMARK    8  A    between atoms: C_30  and  C_31
REMARK                            x       y       z     vdW  Elec       q    Type
REMARK                         _______ _______ _______ _____ _____    ______ ____
ROOT
ATOM      1  C   UNL     1       2.486   4.965  19.786  0.00  0.00    +0.000 C 
ATOM      2  O   UNL     1       1.430   4.724  19.209  0.00  0.00    +0.000 OA
ATOM      3  N   UNL     1       2.816   6.192  20.324  0.00  0.00    +0.000 N 
ATOM      4  H   UNL     1       3.802   6.379  20.479  0.00  0.00    +0.000 HD
ENDROOT
BRANCH   3   5
ATOM      5  C   UNL     1       1.981   7.321  20.225  0.00  0.00    +0.000 A 
ATOM      6  C   UNL     1       1.062   7.674  21.203  0.00  0.00    +0.000 A 
ATOM      7  C   UNL     1       0.175   8.737  20.980  0.00  0.00    +0.000 A 
ATOM      8  C   UNL     1       0.199   9.516  19.797  0.00  0.00    +0.000 A 
ATOM      9  C   UNL     1       1.215   9.194  18.888  0.00  0.00    +0.000 A 
ATOM     10  C   UNL     1       2.067   8.107  19.086  0.00  0.00    +0.000 A 
ATOM     11  F   UNL     1       2.943   7.777  18.122  0.00  0.00    +0.000 F 
BRANCH   8  12
ATOM     12  C   UNL     1      -0.804  10.615  19.593  0.00  0.00    +0.000 A 
ATOM     13  C   UNL     1      -1.760  10.431  18.555  0.00  0.00    +0.000 A 
ATOM     14  C   UNL     1      -2.691  11.408  18.188  0.00  0.00    +0.000 A 
ATOM     15  C   UNL     1      -2.727  12.616  18.860  0.00  0.00    +0.000 A 
ATOM     16  C   UNL     1      -1.839  12.834  19.910  0.00  0.00    +0.000 A 
ATOM     17  C   UNL     1      -0.887  11.859  20.284  0.00  0.00    +0.000 A 
BRANCH  17  18
ATOM     18  S   UNL     1       0.190  12.285  21.647  0.00  0.00    +0.000 S 
ATOM     19  C   UNL     1      -0.061  13.972  22.088  0.00  0.00    +0.000 C 
ATOM     20  O   UNL     1      -0.285  11.527  22.788  0.00  0.00    +0.000 OA
ATOM     21  O   UNL     1       1.553  12.178  21.166  0.00  0.00    +0.000 OA
ENDBRANCH  17  18
ENDBRANCH   8  12
ENDBRANCH   3   5
BRANCH   1  25
ATOM     22  C   UNL     1       5.036   0.761  20.802  0.00  0.00    +0.000 C 
ATOM     23  C   UNL     1       4.615   2.094  20.301  0.00  0.00    +0.000 A 
ATOM     24  C   UNL     1       3.573   2.903  20.787  0.00  0.00    +0.000 A 
ATOM     25  C   UNL     1       3.524   3.982  19.919  0.00  0.00    +0.000 A 
ATOM     26  N   UNL     1       4.602   3.837  19.064  0.00  0.00    +0.000 N 
ATOM     27  N   UNL     1       5.210   2.630  19.231  0.00  0.00    +0.000 NA
BRANCH  26  28
ATOM     28  C   UNL     1       5.079   4.748  18.079  0.00  0.00    +0.000 A 
ATOM     29  C   UNL     1       4.708   4.620  16.732  0.00  0.00    +0.000 A 
ATOM     30  C   UNL     1       5.294   5.438  15.764  0.00  0.00    +0.000 A 
ATOM     31  C   UNL     1       6.252   6.381  16.133  0.00  0.00    +0.000 A 
ATOM     32  C   UNL     1       6.588   6.549  17.482  0.00  0.00    +0.000 A 
ATOM     33  C   UNL     1       5.973   5.755  18.461  0.00  0.00    +0.000 A 
BRANCH  32  34
ATOM     34  C   UNL     1       7.658   7.507  17.880  0.00  0.00    +0.000 C 
ATOM     35  N   UNL     1       7.891   8.614  17.249  0.00  0.00    +0.000 NA
ATOM     36  N   UNL     1       8.471   7.230  18.940  0.00  0.00    +0.000 N 
ATOM     37  H   UNL     1       7.216   8.764  16.495  0.00  0.00    +0.000 HD
ATOM     38  H   UNL     1       8.703   6.255  19.085  0.00  0.00    +0.000 HD
ATOM     39  H   UNL     1       9.286   7.834  18.939  0.00  0.00    +0.000 HD
ENDBRANCH  32  34
ENDBRANCH  26  28
ENDBRANCH   1  25
TORSDOF 6
ENDMDL
MODEL 4
REMARK VINA RESULT:      -9.4      2.995      4.166
REMARK  Name = 
REMARK  8 active torsions:
REMARK  status: ('A' for Active; 'I' for Inactive)
REMARK    1  A    between atoms: C_1  and  C_2
REMARK    2  A    between atoms: C_4  and  C_5
REMARK    3  A    between atoms: N_7  and  C_8
REMARK    4  A    between atoms: C_11  and  C_12
REMARK    5  A    between atoms: C_17  and  S_18
REMARK    6  A    between atoms: S_18  and  C_19
REMARK    7  A    between atoms: N_25  and  C_26
REMARK    8  A    between atoms: C_30  and  C_31
REMARK                            x       y       z     vdW  Elec       q    Type
REMARK                         _______ _______ _______ _____ _____    ______ ____
ROOT
ATOM      1  C   UNL     1       0.519  10.640  21.486  0.00  0.00    +0.000 C 
ATOM      2  O   UNL     1       1.557  10.426  22.104  0.00  0.00    +0.000 OA
ATOM      3  N   UNL     1       0.148   9.977  20.333  0.00  0.00    +0.000 N 
ATOM      4  H   UNL     1      -0.533  10.433  19.735  0.00  0.00    +0.000 HD
ENDROOT
BRANCH   3   5
ATOM      5  C   UNL     1       0.957   9.003  19.717  0.00  0.00    +0.000 A 
ATOM      6  C   UNL     1       1.556   7.962  20.412  0.00  0.00    +0.000 A 
ATOM      7  C   UNL     1       2.451   7.105  19.756  0.00  0.00    +0.000 A 
ATOM      8  C   UNL     1       2.750   7.224  18.377  0.00  0.00    +0.000 A 
ATOM      9  C   UNL     1       2.038   8.218  17.692  0.00  0.00    +0.000 A 
ATOM     10  C   UNL     1       1.184   9.103  18.353  0.00  0.00    +0.000 A 
ATOM     11  F   UNL     1       0.623  10.110  17.662  0.00  0.00    +0.000 F 
BRANCH   8  12
ATOM     12  C   UNL     1       3.750   6.304  17.735  0.00  0.00    +0.000 A 
ATOM     13  C   UNL     1       4.945   6.898  17.238  0.00  0.00    +0.000 A 
ATOM     14  C   UNL     1       5.919   6.184  16.534  0.00  0.00    +0.000 A 
ATOM     15  C   UNL     1       5.758   4.829  16.312  0.00  0.00    +0.000 A 
ATOM     16  C   UNL     1       4.626   4.190  16.810  0.00  0.00    +0.000 A 
ATOM     17  C   UNL     1       3.628   4.902  17.513  0.00  0.00    +0.000 A 
BRANCH  17  18
ATOM     18  S   UNL     1       2.229   3.947  18.087  0.00  0.00    +0.000 S 
ATOM     19  C   UNL     1       2.476   2.249  17.690  0.00  0.00    +0.000 C 
ATOM     20  O   UNL     1       2.270   4.002  19.536  0.00  0.00    +0.000 OA
ATOM     21  O   UNL     1       1.072   4.387  17.333  0.00  0.00    +0.000 OA
ENDBRANCH  17  18
ENDBRANCH   8  12
ENDBRANCH   3   5
BRANCH   1  25
ATOM     22  C   UNL     1      -3.226  13.139  23.710  0.00  0.00    +0.000 C 
ATOM     23  C   UNL     1      -2.016  12.767  22.932  0.00  0.00    +0.000 A 
ATOM     24  C   UNL     1      -1.670  11.497  22.440  0.00  0.00    +0.000 A 
ATOM     25  C   UNL     1      -0.411  11.659  21.885  0.00  0.00    +0.000 A 
ATOM     26  N   UNL     1      -0.135  13.014  21.946  0.00  0.00    +0.000 N 
ATOM     27  N   UNL     1      -1.072  13.678  22.679  0.00  0.00    +0.000 NA
BRANCH  26  28
ATOM     28  C   UNL     1       0.968  13.718  21.387  0.00  0.00    +0.000 A 
ATOM     29  C   UNL     1       1.519  14.835  22.034  0.00  0.00    +0.000 A 
ATOM     30  C   UNL     1       2.509  15.590  21.403  0.00  0.00    +0.000 A 
ATOM     31  C   UNL     1       2.947  15.241  20.126  0.00  0.00    +0.000 A 
ATOM     32  C   UNL     1       2.438  14.099  19.498  0.00  0.00    +0.000 A 
ATOM     33  C   UNL     1       1.472  13.315  20.145  0.00  0.00    +0.000 A 
BRANCH  32  34
ATOM     34  C   UNL     1       2.851  13.754  18.107  0.00  0.00    +0.000 C 
ATOM     35  N   UNL     1       3.510  14.565  17.341  0.00  0.00    +0.000 NA
ATOM     36  N   UNL     1       2.517  12.546  17.569  0.00  0.00    +0.000 N 
ATOM     37  H   UNL     1       3.753  15.429  17.831  0.00  0.00    +0.000 HD
ATOM     38  H   UNL     1       1.624  12.161  17.851  0.00  0.00    +0.000 HD
ATOM     39  H   UNL     1       2.645  12.550  16.562  0.00  0.00    +0.000 HD
ENDBRANCH  32  34
ENDBRANCH  26  28
ENDBRANCH   1  25
TORSDOF 6
ENDMDL
MODEL 5
REMARK VINA RESULT:      -9.4      1.257      1.490
REMARK  Name = 
REMARK  8 active torsions:
REMARK  status: ('A' for Active; 'I' for Inactive)
REMARK    1  A    between atoms: C_1  and  C_2
REMARK    2  A    between atoms: C_4  and  C_5
REMARK    3  A    between atoms: N_7  and  C_8
REMARK    4  A    between atoms: C_11  and  C_12
REMARK    5  A    between atoms: C_17  and  S_18
REMARK    6  A    between atoms: S_18  and  C_19
REMARK    7  A    between atoms: N_25  and  C_26
REMARK    8  A    between atoms: C_30  and  C_31
REMARK                            x       y       z     vdW  Elec       q    Type
REMARK                         _______ _______ _______ _____ _____    ______ ____
ROOT
ATOM      1  C   UNL     1      -0.491  10.050  20.720  0.00  0.00    +0.000 C 
ATOM      2  O   UNL     1      -0.868   8.975  21.176  0.00  0.00    +0.000 OA
ATOM      3  N   UNL     1       0.542  10.193  19.816  0.00  0.00    +0.000 N 
ATOM      4  H   UNL     1       0.981  11.106  19.755  0.00  0.00    +0.000 HD
ENDROOT
BRANCH   3   5
ATOM      5  C   UNL     1       1.309   9.107  19.351  0.00  0.00    +0.000 A 
ATOM      6  C   UNL     1       1.758   8.086  20.177  0.00  0.00    +0.000 A 
ATOM      7  C   UNL     1       2.623   7.106  19.671  0.00  0.00    +0.000 A 
ATOM      8  C   UNL     1       3.039   7.079  18.317  0.00  0.00    +0.000 A 
ATOM      9  C   UNL     1       2.472   8.064  17.497  0.00  0.00    +0.000 A 
ATOM     10  C   UNL     1       1.649   9.069  18.008  0.00  0.00    +0.000 A 
ATOM     11  F   UNL     1       1.234  10.052  17.193  0.00  0.00    +0.000 F 
BRANCH   8  12
ATOM     12  C   UNL     1       4.002   6.030  17.840  0.00  0.00    +0.000 A 
ATOM     13  C   UNL     1       5.291   6.476  17.433  0.00  0.00    +0.000 A 
ATOM     14  C   UNL     1       6.255   5.629  16.878  0.00  0.00    +0.000 A 
ATOM     15  C   UNL     1       5.985   4.282  16.724  0.00  0.00    +0.000 A 
ATOM     16  C   UNL     1       4.753   3.784  17.141  0.00  0.00    +0.000 A 
ATOM     17  C   UNL     1       3.766   4.632  17.693  0.00  0.00    +0.000 A 
BRANCH  17  18
ATOM     18  S   UNL     1       2.232   3.851  18.177  0.00  0.00    +0.000 S 
ATOM     19  C   UNL     1       2.319   2.125  17.834  0.00  0.00    +0.000 C 
ATOM     20  O   UNL     1       2.172   3.941  19.623  0.00  0.00    +0.000 OA
ATOM     21  O   UNL     1       1.189   4.392  17.329  0.00  0.00    +0.000 OA
ENDBRANCH  17  18
ENDBRANCH   8  12
ENDBRANCH   3   5
BRANCH   1  25
ATOM     22  C   UNL     1      -1.301  14.501  22.898  0.00  0.00    +0.000 C 
ATOM     23  C   UNL     1      -1.378  13.294  22.036  0.00  0.00    +0.000 A 
ATOM     24  C   UNL     1      -0.799  12.035  22.270  0.00  0.00    +0.000 A 
ATOM     25  C   UNL     1      -1.072  11.298  21.129  0.00  0.00    +0.000 A 
ATOM     26  N   UNL     1      -1.900  12.087  20.350  0.00  0.00    +0.000 N 
ATOM     27  N   UNL     1      -2.005  13.348  20.857  0.00  0.00    +0.000 NA
BRANCH  26  28
ATOM     28  C   UNL     1      -2.575  11.743  19.145  0.00  0.00    +0.000 A 
ATOM     29  C   UNL     1      -1.872  11.575  17.942  0.00  0.00    +0.000 A 
ATOM     30  C   UNL     1      -2.567  11.372  16.749  0.00  0.00    +0.000 A 
ATOM     31  C   UNL     1      -3.961  11.342  16.748  0.00  0.00    +0.000 A 
ATOM     32  C   UNL     1      -4.666  11.456  17.952  0.00  0.00    +0.000 A 
ATOM     33  C   UNL     1      -3.970  11.622  19.158  0.00  0.00    +0.000 A 
BRANCH  32  34
ATOM     34  C   UNL     1      -6.156  11.491  17.954  0.00  0.00    +0.000 C 
ATOM     35  N   UNL     1      -6.884  10.699  18.676  0.00  0.00    +0.000 NA
ATOM     36  N   UNL     1      -6.826  12.369  17.153  0.00  0.00    +0.000 N 
ATOM     37  H   UNL     1      -6.307  10.101  19.273  0.00  0.00    +0.000 HD
ATOM     38  H   UNL     1      -6.401  12.572  16.257  0.00  0.00    +0.000 HD
ATOM     39  H   UNL     1      -7.806  12.116  17.078  0.00  0.00    +0.000 HD
ENDBRANCH  32  34
ENDBRANCH  26  28
ENDBRANCH   1  25
TORSDOF 6
ENDMDL
MODEL 6
REMARK VINA RESULT:      -9.4      2.047      2.850
REMARK  Name = 
REMARK  8 active torsions:
REMARK  status: ('A' for Active; 'I' for Inactive)
REMARK    1  A    between atoms: C_1  and  C_2
REMARK    2  A    between atoms: C_4  and  C_5
REMARK    3  A    between atoms: N_7  and  C_8
REMARK    4  A    between atoms: C_11  and  C_12
REMARK    5  A    between atoms: C_17  and  S_18
REMARK    6  A    between atoms: S_18  and  C_19
REMARK    7  A    between atoms: N_25  and  C_26
REMARK    8  A    between atoms: C_30  and  C_31
REMARK                            x       y       z     vdW  Elec       q    Type
REMARK                         _______ _______ _______ _____ _____    ______ ____
ROOT
ATOM      1  C   UNL     1      -0.204  10.463  20.276  0.00  0.00    +0.000 C 
ATOM      2  O   UNL     1      -1.070   9.594  20.310  0.00  0.00    +0.000 OA
ATOM      3  N   UNL     1       1.090  10.257  19.843  0.00  0.00    +0.000 N 
ATOM      4  H   UNL     1       1.793  10.921  20.151  0.00  0.00    +0.000 HD
ENDROOT
BRANCH   3   5
ATOM      5  C   UNL     1       1.568   8.997  19.433  0.00  0.00    +0.000 A 
ATOM      6  C   UNL     1       1.823   8.676  18.107  0.00  0.00    +0.000 A 
ATOM      7  C   UNL     1       2.176   7.364  17.760  0.00  0.00    +0.000 A 
ATOM      8  C   UNL     1       2.329   6.335  18.720  0.00  0.00    +0.000 A 
ATOM      9  C   UNL     1       2.171   6.731  20.054  0.00  0.00    +0.000 A 
ATOM     10  C   UNL     1       1.773   8.024  20.400  0.00  0.00    +0.000 A 
ATOM     11  F   UNL     1       1.523   8.310  21.688  0.00  0.00    +0.000 F 
BRANCH   8  12
ATOM     12  C   UNL     1       2.666   4.937  18.286  0.00  0.00    +0.000 A 
ATOM     13  C   UNL     1       1.603   3.989  18.284  0.00  0.00    +0.000 A 
ATOM     14  C   UNL     1       1.785   2.633  17.996  0.00  0.00    +0.000 A 
ATOM     15  C   UNL     1       3.043   2.159  17.672  0.00  0.00    +0.000 A 
ATOM     16  C   UNL     1       4.112   3.050  17.620  0.00  0.00    +0.000 A 
ATOM     17  C   UNL     1       3.943   4.420  17.919  0.00  0.00    +0.000 A 
BRANCH  17  18
ATOM     18  S   UNL     1       5.408   5.440  17.818  0.00  0.00    +0.000 S 
ATOM     19  C   UNL     1       6.743   4.486  17.177  0.00  0.00    +0.000 C 
ATOM     20  O   UNL     1       5.137   6.435  16.798  0.00  0.00    +0.000 OA
ATOM     21  O   UNL     1       5.770   5.806  19.173  0.00  0.00    +0.000 OA
ENDBRANCH  17  18
ENDBRANCH   8  12
ENDBRANCH   3   5
BRANCH   1  25
ATOM     22  C   UNL     1       0.358  15.094  22.134  0.00  0.00    +0.000 C 
ATOM     23  C   UNL     1      -0.169  13.866  21.485  0.00  0.00    +0.000 A 
ATOM     24  C   UNL     1       0.310  12.551  21.621  0.00  0.00    +0.000 A 
ATOM     25  C   UNL     1      -0.448  11.801  20.737  0.00  0.00    +0.000 A 
ATOM     26  N   UNL     1      -1.411  12.658  20.232  0.00  0.00    +0.000 N 
ATOM     27  N   UNL     1      -1.177  13.946  20.612  0.00  0.00    +0.000 NA
BRANCH  26  28
ATOM     28  C   UNL     1      -2.517  12.349  19.393  0.00  0.00    +0.000 A 
ATOM     29  C   UNL     1      -3.836  12.449  19.862  0.00  0.00    +0.000 A 
ATOM     30  C   UNL     1      -4.897  12.012  19.068  0.00  0.00    +0.000 A 
ATOM     31  C   UNL     1      -4.649  11.469  17.808  0.00  0.00    +0.000 A 
ATOM     32  C   UNL     1      -3.340  11.415  17.312  0.00  0.00    +0.000 A 
ATOM     33  C   UNL     1      -2.276  11.888  18.092  0.00  0.00    +0.000 A 
BRANCH  32  34
ATOM     34  C   UNL     1      -3.058  10.776  15.995  0.00  0.00    +0.000 C 
ATOM     35  N   UNL     1      -3.543  11.212  14.876  0.00  0.00    +0.000 NA
ATOM     36  N   UNL     1      -2.274   9.662  15.924  0.00  0.00    +0.000 N 
ATOM     37  H   UNL     1      -4.086  12.068  15.012  0.00  0.00    +0.000 HD
ATOM     38  H   UNL     1      -2.342   9.015  16.700  0.00  0.00    +0.000 HD
ATOM     39  H   UNL     1      -2.369   9.208  15.021  0.00  0.00    +0.000 HD
ENDBRANCH  32  34
ENDBRANCH  26  28
ENDBRANCH   1  25
TORSDOF 6
ENDMDL
MODEL 7
REMARK VINA RESULT:      -9.4      0.991      1.378
REMARK  Name = 
REMARK  8 active torsions:
REMARK  status: ('A' for Active; 'I' for Inactive)
REMARK    1  A    between atoms: C_1  and  C_2
REMARK    2  A    between atoms: C_4  and  C_5
REMARK    3  A    between atoms: N_7  and  C_8
REMARK    4  A    between atoms: C_11  and  C_12
REMARK    5  A    between atoms: C_17  and  S_18
REMARK    6  A    between atoms: S_18  and  C_19
REMARK    7  A    between atoms: N_25  and  C_26
REMARK    8  A    between atoms: C_30  and  C_31
REMARK                            x       y       z     vdW  Elec       q    Type
REMARK                         _______ _______ _______ _____ _____    ______ ____
ROOT
ATOM      1  C   UNL     1       0.436  11.316  20.205  0.00  0.00    +0.000 C 
ATOM      2  O   UNL     1       1.384  11.792  19.586  0.00  0.00    +0.000 OA
ATOM      3  N   UNL     1       0.192   9.964  20.336  0.00  0.00    +0.000 N 
ATOM      4  H   UNL     1      -0.755   9.685  20.571  0.00  0.00    +0.000 HD
ENDROOT
BRANCH   3   5
ATOM      5  C   UNL     1       0.993   8.979  19.727  0.00  0.00    +0.000 A 
ATOM      6  C   UNL     1       1.689   8.016  20.443  0.00  0.00    +0.000 A 
ATOM      7  C   UNL     1       2.567   7.147  19.779  0.00  0.00    +0.000 A 
ATOM      8  C   UNL     1       2.752   7.175  18.375  0.00  0.00    +0.000 A 
ATOM      9  C   UNL     1       1.946   8.087  17.682  0.00  0.00    +0.000 A 
ATOM     10  C   UNL     1       1.108   8.985  18.345  0.00  0.00    +0.000 A 
ATOM     11  F   UNL     1       0.450   9.915  17.632  0.00  0.00    +0.000 F 
BRANCH   8  12
ATOM     12  C   UNL     1       3.738   6.249  17.722  0.00  0.00    +0.000 A 
ATOM     13  C   UNL     1       4.931   6.835  17.211  0.00  0.00    +0.000 A 
ATOM     14  C   UNL     1       5.893   6.116  16.496  0.00  0.00    +0.000 A 
ATOM     15  C   UNL     1       5.720   4.762  16.274  0.00  0.00    +0.000 A 
ATOM     16  C   UNL     1       4.590   4.130  16.786  0.00  0.00    +0.000 A 
ATOM     17  C   UNL     1       3.605   4.847  17.501  0.00  0.00    +0.000 A 
BRANCH  17  18
ATOM     18  S   UNL     1       2.207   3.901  18.091  0.00  0.00    +0.000 S 
ATOM     19  C   UNL     1       2.441   2.201  17.697  0.00  0.00    +0.000 C 
ATOM     20  O   UNL     1       2.262   3.961  19.539  0.00  0.00    +0.000 OA
ATOM     21  O   UNL     1       1.044   4.345  17.346  0.00  0.00    +0.000 OA
ENDBRANCH  17  18
ENDBRANCH   8  12
ENDBRANCH   3   5
BRANCH   1  25
ATOM     22  C   UNL     1      -1.886  14.785  22.995  0.00  0.00    +0.000 C 
ATOM     23  C   UNL     1      -1.562  13.727  22.004  0.00  0.00    +0.000 A 
ATOM     24  C   UNL     1      -0.461  12.852  22.013  0.00  0.00    +0.000 A 
ATOM     25  C   UNL     1      -0.560  12.142  20.828  0.00  0.00    +0.000 A 
ATOM     26  N   UNL     1      -1.760  12.519  20.251  0.00  0.00    +0.000 N 
ATOM     27  N   UNL     1      -2.324  13.564  20.919  0.00  0.00    +0.000 NA
BRANCH  26  28
ATOM     28  C   UNL     1      -2.395  11.981  19.097  0.00  0.00    +0.000 A 
ATOM     29  C   UNL     1      -1.676  11.752  17.913  0.00  0.00    +0.000 A 
ATOM     30  C   UNL     1      -2.346  11.354  16.755  0.00  0.00    +0.000 A 
ATOM     31  C   UNL     1      -3.730  11.188  16.769  0.00  0.00    +0.000 A 
ATOM     32  C   UNL     1      -4.445  11.365  17.959  0.00  0.00    +0.000 A 
ATOM     33  C   UNL     1      -3.771  11.728  19.134  0.00  0.00    +0.000 A 
BRANCH  32  34
ATOM     34  C   UNL     1      -5.932  11.256  17.970  0.00  0.00    +0.000 C 
ATOM     35  N   UNL     1      -6.704  12.011  17.256  0.00  0.00    +0.000 NA
ATOM     36  N   UNL     1      -6.550  10.346  18.777  0.00  0.00    +0.000 N 
ATOM     37  H   UNL     1      -6.164  12.637  16.654  0.00  0.00    +0.000 HD
ATOM     38  H   UNL     1      -6.107  10.164  19.670  0.00  0.00    +0.000 HD
ATOM     39  H   UNL     1      -7.540  10.549  18.861  0.00  0.00    +0.000 HD
ENDBRANCH  32  34
ENDBRANCH  26  28
ENDBRANCH   1  25
TORSDOF 6
ENDMDL
MODEL 8
REMARK VINA RESULT:      -9.3      4.271      9.789
REMARK  Name = 
REMARK  8 active torsions:
REMARK  status: ('A' for Active; 'I' for Inactive)
REMARK    1  A    between atoms: C_1  and  C_2
REMARK    2  A    between atoms: C_4  and  C_5
REMARK    3  A    between atoms: N_7  and  C_8
REMARK    4  A    between atoms: C_11  and  C_12
REMARK    5  A    between atoms: C_17  and  S_18
REMARK    6  A    between atoms: S_18  and  C_19
REMARK    7  A    between atoms: N_25  and  C_26
REMARK    8  A    between atoms: C_30  and  C_31
REMARK                            x       y       z     vdW  Elec       q    Type
REMARK                         _______ _______ _______ _____ _____    ______ ____
ROOT
ATOM      1  C   UNL     1       2.565   4.862  19.836  0.00  0.00    +0.000 C 
ATOM      2  O   UNL     1       1.420   4.602  19.479  0.00  0.00    +0.000 OA
ATOM      3  N   UNL     1       3.026   6.135  20.105  0.00  0.00    +0.000 N 
ATOM      4  H   UNL     1       4.030   6.281  20.070  0.00  0.00    +0.000 HD
ENDROOT
BRANCH   3   5
ATOM      5  C   UNL     1       2.229   7.286  19.953  0.00  0.00    +0.000 A 
ATOM      6  C   UNL     1       1.416   7.785  20.960  0.00  0.00    +0.000 A 
ATOM      7  C   UNL     1       0.554   8.860  20.697  0.00  0.00    +0.000 A 
ATOM      8  C   UNL     1       0.500   9.504  19.437  0.00  0.00    +0.000 A 
ATOM      9  C   UNL     1       1.418   9.039  18.486  0.00  0.00    +0.000 A 
ATOM     10  C   UNL     1       2.242   7.939  18.730  0.00  0.00    +0.000 A 
ATOM     11  F   UNL     1       3.014   7.467  17.737  0.00  0.00    +0.000 F 
BRANCH   8  12
ATOM     12  C   UNL     1      -0.474  10.623  19.199  0.00  0.00    +0.000 A 
ATOM     13  C   UNL     1      -1.758  10.263  18.701  0.00  0.00    +0.000 A 
ATOM     14  C   UNL     1      -2.731  11.201  18.342  0.00  0.00    +0.000 A 
ATOM     15  C   UNL     1      -2.475  12.552  18.487  0.00  0.00    +0.000 A 
ATOM     16  C   UNL     1      -1.249  12.959  19.007  0.00  0.00    +0.000 A 
ATOM     17  C   UNL     1      -0.253  12.021  19.362  0.00  0.00    +0.000 A 
BRANCH  17  18
ATOM     18  S   UNL     1       1.272  12.693  20.010  0.00  0.00    +0.000 S 
ATOM     19  C   UNL     1       1.111  14.437  20.201  0.00  0.00    +0.000 C 
ATOM     20  O   UNL     1       1.398  12.180  21.361  0.00  0.00    +0.000 OA
ATOM     21  O   UNL     1       2.296  12.477  19.007  0.00  0.00    +0.000 OA
ENDBRANCH  17  18
ENDBRANCH   8  12
ENDBRANCH   3   5
BRANCH   1  25
ATOM     22  C   UNL     1       4.990   0.583  20.845  0.00  0.00    +0.000 C 
ATOM     23  C   UNL     1       4.608   1.928  20.344  0.00  0.00    +0.000 A 
ATOM     24  C   UNL     1       3.594   2.770  20.834  0.00  0.00    +0.000 A 
ATOM     25  C   UNL     1       3.573   3.848  19.965  0.00  0.00    +0.000 A 
ATOM     26  N   UNL     1       4.642   3.670  19.104  0.00  0.00    +0.000 N 
ATOM     27  N   UNL     1       5.214   2.444  19.270  0.00  0.00    +0.000 NA
BRANCH  26  28
ATOM     28  C   UNL     1       5.141   4.563  18.115  0.00  0.00    +0.000 A 
ATOM     29  C   UNL     1       4.818   4.401  16.759  0.00  0.00    +0.000 A 
ATOM     30  C   UNL     1       5.426   5.204  15.794  0.00  0.00    +0.000 A 
ATOM     31  C   UNL     1       6.361   6.167  16.173  0.00  0.00    +0.000 A 
ATOM     32  C   UNL     1       6.649   6.369  17.528  0.00  0.00    +0.000 A 
ATOM     33  C   UNL     1       6.011   5.590  18.504  0.00  0.00    +0.000 A 
BRANCH  32  34
ATOM     34  C   UNL     1       7.694   7.349  17.940  0.00  0.00    +0.000 C 
ATOM     35  N   UNL     1       8.473   7.169  18.959  0.00  0.00    +0.000 NA
ATOM     36  N   UNL     1       7.854   8.516  17.252  0.00  0.00    +0.000 N 
ATOM     37  H   UNL     1       8.315   6.257  19.395  0.00  0.00    +0.000 HD
ATOM     38  H   UNL     1       7.012   8.932  16.873  0.00  0.00    +0.000 HD
ATOM     39  H   UNL     1       8.417   9.174  17.780  0.00  0.00    +0.000 HD
ENDBRANCH  32  34
ENDBRANCH  26  28
ENDBRANCH   1  25
TORSDOF 6
ENDMDL
MODEL 9
REMARK VINA RESULT:      -9.3      3.063      4.528
REMARK  Name = 
REMARK  8 active torsions:
REMARK  status: ('A' for Active; 'I' for Inactive)
REMARK    1  A    between atoms: C_1  and  C_2
REMARK    2  A    between atoms: C_4  and  C_5
REMARK    3  A    between atoms: N_7  and  C_8
REMARK    4  A    between atoms: C_11  and  C_12
REMARK    5  A    between atoms: C_17  and  S_18
REMARK    6  A    between atoms: S_18  and  C_19
REMARK    7  A    between atoms: N_25  and  C_26
REMARK    8  A    between atoms: C_30  and  C_31
REMARK                            x       y       z     vdW  Elec       q    Type
REMARK                         _______ _______ _______ _____ _____    ______ ____
ROOT
ATOM      1  C   UNL     1       0.595  10.423  21.532  0.00  0.00    +0.000 C 
ATOM      2  O   UNL     1       1.481  10.004  22.272  0.00  0.00    +0.000 OA
ATOM      3  N   UNL     1       0.354   9.947  20.260  0.00  0.00    +0.000 N 
ATOM      4  H   UNL     1      -0.159  10.554  19.627  0.00  0.00    +0.000 HD
ENDROOT
BRANCH   3   5
ATOM      5  C   UNL     1       1.139   8.947  19.654  0.00  0.00    +0.000 A 
ATOM      6  C   UNL     1       1.607   7.833  20.336  0.00  0.00    +0.000 A 
ATOM      7  C   UNL     1       2.489   6.944  19.704  0.00  0.00    +0.000 A 
ATOM      8  C   UNL     1       2.902   7.107  18.359  0.00  0.00    +0.000 A 
ATOM      9  C   UNL     1       2.317   8.182  17.677  0.00  0.00    +0.000 A 
ATOM     10  C   UNL     1       1.478   9.095  18.318  0.00  0.00    +0.000 A 
ATOM     11  F   UNL     1       1.044  10.171  17.642  0.00  0.00    +0.000 F 
BRANCH   8  12
ATOM     12  C   UNL     1       3.883   6.148  17.747  0.00  0.00    +0.000 A 
ATOM     13  C   UNL     1       5.102   6.697  17.257  0.00  0.00    +0.000 A 
ATOM     14  C   UNL     1       6.064   5.944  16.578  0.00  0.00    +0.000 A 
ATOM     15  C   UNL     1       5.865   4.591  16.374  0.00  0.00    +0.000 A 
ATOM     16  C   UNL     1       4.708   3.993  16.867  0.00  0.00    +0.000 A 
ATOM     17  C   UNL     1       3.723   4.746  17.545  0.00  0.00    +0.000 A 
BRANCH  17  18
ATOM     18  S   UNL     1       2.288   3.842  18.114  0.00  0.00    +0.000 S 
ATOM     19  C   UNL     1       2.469   2.138  17.706  0.00  0.00    +0.000 C 
ATOM     20  O   UNL     1       2.333   3.886  19.563  0.00  0.00    +0.000 OA
ATOM     21  O   UNL     1       1.148   4.332  17.365  0.00  0.00    +0.000 OA
ENDBRANCH  17  18
ENDBRANCH   8  12
ENDBRANCH   3   5
BRANCH   1  25
ATOM     22  C   UNL     1      -2.687  13.343  23.964  0.00  0.00    +0.000 C 
ATOM     23  C   UNL     1      -1.654  12.815  23.037  0.00  0.00    +0.000 A 
ATOM     24  C   UNL     1      -1.375  11.469  22.741  0.00  0.00    +0.000 A 
ATOM     25  C   UNL     1      -0.266  11.508  21.912  0.00  0.00    +0.000 A 
ATOM     26  N   UNL     1      -0.030  12.846  21.647  0.00  0.00    +0.000 N 
ATOM     27  N   UNL     1      -0.816  13.650  22.417  0.00  0.00    +0.000 NA
BRANCH  26  28
ATOM     28  C   UNL     1       0.907  13.417  20.741  0.00  0.00    +0.000 A 
ATOM     29  C   UNL     1       0.688  13.388  19.355  0.00  0.00    +0.000 A 
ATOM     30  C   UNL     1       1.681  13.830  18.480  0.00  0.00    +0.000 A 
ATOM     31  C   UNL     1       2.896  14.297  18.980  0.00  0.00    +0.000 A 
ATOM     32  C   UNL     1       3.101  14.378  20.363  0.00  0.00    +0.000 A 
ATOM     33  C   UNL     1       2.090  13.970  21.246  0.00  0.00    +0.000 A 
BRANCH  32  34
ATOM     34  C   UNL     1       4.419  14.812  20.907  0.00  0.00    +0.000 C 
ATOM     35  N   UNL     1       5.039  14.182  21.854  0.00  0.00    +0.000 NA
ATOM     36  N   UNL     1       5.024  15.938  20.430  0.00  0.00    +0.000 N 
ATOM     37  H   UNL     1       4.539  13.333  22.128  0.00  0.00    +0.000 HD
ATOM     38  H   UNL     1       4.410  16.696  20.156  0.00  0.00    +0.000 HD
ATOM     39  H   UNL     1       5.771  16.238  21.047  0.00  0.00    +0.000 HD
ENDBRANCH  32  34
ENDBRANCH  26  28
ENDBRANCH   1  25
TORSDOF 6
ENDMDL
