MODEL 1
REMARK VINA RESULT:      -6.2      0.000      0.000
REMARK  Name = 
REMARK  8 active torsions:
REMARK  status: ('A' for Active; 'I' for Inactive)
REMARK    1  A    between atoms: C_1  and  C_2
REMARK    2  A    between atoms: C_2  and  O_4
REMARK    3  A    between atoms: O_4  and  C_5
REMARK    4  A    between atoms: C_10  and  C_11
REMARK    5  A    between atoms: C_11  and  O_13
REMARK    6  A    between atoms: O_13  and  C_14
REMARK    7  A    between atoms: C_14  and  S_15
REMARK    8  A    between atoms: S_15  and  C_16
REMARK                            x       y       z     vdW  Elec       q    Type
REMARK                         _______ _______ _______ _____ _____    ______ ____
ROOT
ATOM      1  C   UNL     1       2.632   4.523  19.670  0.00  0.00    +0.000 A 
ATOM      2  C   UNL     1       1.308   4.234  20.042  0.00  0.00    +0.000 A 
ATOM      3  C   UNL     1       0.698   3.055  19.624  0.00  0.00    +0.000 A 
ATOM      4  C   UNL     1       1.389   2.176  18.802  0.00  0.00    +0.000 A 
ATOM      5  C   UNL     1       2.698   2.468  18.409  0.00  0.00    +0.000 A 
ATOM      6  C   UNL     1       3.346   3.643  18.842  0.00  0.00    +0.000 A 
ENDROOT
BRANCH   6   7
ATOM      7  C   UNL     1       4.785   3.767  18.463  0.00  0.00    +0.000 C 
ATOM      8  O   UNL     1       5.671   3.971  19.281  0.00  0.00    +0.000 OA
BRANCH   7   9
ATOM      9  O   UNL     1       4.967   3.798  17.126  0.00  0.00    +0.000 OA
BRANCH   9  10
ATOM     10  C   UNL     1       5.164   5.116  16.606  0.00  0.00    +0.000 C 
BRANCH  10  11
ATOM     11  S   UNL     1       6.888   5.554  16.279  0.00  0.00    +0.000 S 
ATOM     12  C   UNL     1       7.041   6.897  17.468  0.00  0.00    +0.000 C 
ATOM     13  O   UNL     1       7.828   4.377  16.717  0.00  0.00    +0.000 OA
ENDBRANCH  10  11
ENDBRANCH   9  10
ENDBRANCH   7   9
ENDBRANCH   6   7
BRANCH   1  14
ATOM     14  O   UNL     1       3.155   5.776  20.041  0.00  0.00    +0.000 OA
BRANCH  14  16
ATOM     15  C   UNL     1       2.531   7.128  18.204  0.00  0.00    +0.000 C 
ATOM     16  C   UNL     1       2.408   6.894  19.684  0.00  0.00    +0.000 C 
ATOM     17  O   UNL     1       1.735   7.591  20.433  0.00  0.00    +0.000 OA
ENDBRANCH  14  16
ENDBRANCH   1  14
TORSDOF 6
ENDMDL
MODEL 2
REMARK VINA RESULT:      -6.2      2.616      5.365
REMARK  Name = 
REMARK  8 active torsions:
REMARK  status: ('A' for Active; 'I' for Inactive)
REMARK    1  A    between atoms: C_1  and  C_2
REMARK    2  A    between atoms: C_2  and  O_4
REMARK    3  A    between atoms: O_4  and  C_5
REMARK    4  A    between atoms: C_10  and  C_11
REMARK    5  A    between atoms: C_11  and  O_13
REMARK    6  A    between atoms: O_13  and  C_14
REMARK    7  A    between atoms: C_14  and  S_15
REMARK    8  A    between atoms: S_15  and  C_16
REMARK                            x       y       z     vdW  Elec       q    Type
REMARK                         _______ _______ _______ _____ _____    ______ ____
ROOT
ATOM      1  C   UNL     1       6.823   4.546  17.147  0.00  0.00    +0.000 A 
ATOM      2  C   UNL     1       7.390   4.723  15.873  0.00  0.00    +0.000 A 
ATOM      3  C   UNL     1       6.591   4.709  14.734  0.00  0.00    +0.000 A 
ATOM      4  C   UNL     1       5.226   4.481  14.854  0.00  0.00    +0.000 A 
ATOM      5  C   UNL     1       4.659   4.281  16.115  0.00  0.00    +0.000 A 
ATOM      6  C   UNL     1       5.444   4.317  17.284  0.00  0.00    +0.000 A 
ENDROOT
BRANCH   6   7
ATOM      7  C   UNL     1       4.695   4.226  18.572  0.00  0.00    +0.000 C 
ATOM      8  O   UNL     1       4.519   5.187  19.308  0.00  0.00    +0.000 OA
BRANCH   7   9
ATOM      9  O   UNL     1       4.391   2.953  18.904  0.00  0.00    +0.000 OA
BRANCH   9  10
ATOM     10  C   UNL     1       3.633   2.843  20.113  0.00  0.00    +0.000 C 
BRANCH  10  11
ATOM     11  S   UNL     1       1.878   2.477  19.879  0.00  0.00    +0.000 S 
ATOM     12  C   UNL     1       1.224   4.112  20.251  0.00  0.00    +0.000 C 
ATOM     13  O   UNL     1       1.600   2.149  18.370  0.00  0.00    +0.000 OA
ENDBRANCH  10  11
ENDBRANCH   9  10
ENDBRANCH   7   9
ENDBRANCH   6   7
BRANCH   1  14
ATOM     14  O   UNL     1       7.698   4.470  18.246  0.00  0.00    +0.000 OA
BRANCH  14  16
ATOM     15  C   UNL     1       7.884   6.827  18.287  0.00  0.00    +0.000 C 
ATOM     16  C   UNL     1       7.727   5.571  19.097  0.00  0.00    +0.000 C 
ATOM     17  O   UNL     1       7.629   5.551  20.317  0.00  0.00    +0.000 OA
ENDBRANCH  14  16
ENDBRANCH   1  14
TORSDOF 6
ENDMDL
MODEL 3
REMARK VINA RESULT:      -6.1      2.793      5.715
REMARK  Name = 
REMARK  8 active torsions:
REMARK  status: ('A' for Active; 'I' for Inactive)
REMARK    1  A    between atoms: C_1  and  C_2
REMARK    2  A    between atoms: C_2  and  O_4
REMARK    3  A    between atoms: O_4  and  C_5
REMARK    4  A    between atoms: C_10  and  C_11
REMARK    5  A    between atoms: C_11  and  O_13
REMARK    6  A    between atoms: O_13  and  C_14
REMARK    7  A    between atoms: C_14  and  S_15
REMARK    8  A    between atoms: S_15  and  C_16
REMARK                            x       y       z     vdW  Elec       q    Type
REMARK                         _______ _______ _______ _____ _____    ______ ____
ROOT
ATOM      1  C   UNL     1       6.145   4.181  17.019  0.00  0.00    +0.000 A 
ATOM      2  C   UNL     1       7.401   4.770  17.245  0.00  0.00    +0.000 A 
ATOM      3  C   UNL     1       7.678   5.403  18.452  0.00  0.00    +0.000 A 
ATOM      4  C   UNL     1       6.693   5.490  19.427  0.00  0.00    +0.000 A 
ATOM      5  C   UNL     1       5.434   4.927  19.200  0.00  0.00    +0.000 A 
ATOM      6  C   UNL     1       5.139   4.256  17.996  0.00  0.00    +0.000 A 
ENDROOT
BRANCH   6   7
ATOM      7  C   UNL     1       3.807   3.585  17.937  0.00  0.00    +0.000 C 
ATOM      8  O   UNL     1       2.852   4.057  17.336  0.00  0.00    +0.000 OA
BRANCH   7   9
ATOM      9  O   UNL     1       3.734   2.508  18.748  0.00  0.00    +0.000 OA
BRANCH   9  10
ATOM     10  C   UNL     1       2.487   2.399  19.441  0.00  0.00    +0.000 C 
BRANCH  10  11
ATOM     11  S   UNL     1       2.416   3.272  21.023  0.00  0.00    +0.000 S 
ATOM     12  C   UNL     1       1.301   4.597  20.533  0.00  0.00    +0.000 C 
ATOM     13  O   UNL     1       1.701   2.376  22.093  0.00  0.00    +0.000 OA
ENDBRANCH  10  11
ENDBRANCH   9  10
ENDBRANCH   7   9
ENDBRANCH   6   7
BRANCH   1  14
ATOM     14  O   UNL     1       5.895   3.645  15.741  0.00  0.00    +0.000 OA
BRANCH  14  16
ATOM     15  C   UNL     1       6.205   3.858  13.406  0.00  0.00    +0.000 C 
ATOM     16  C   UNL     1       5.832   4.551  14.687  0.00  0.00    +0.000 C 
ATOM     17  O   UNL     1       5.512   5.731  14.760  0.00  0.00    +0.000 OA
ENDBRANCH  14  16
ENDBRANCH   1  14
TORSDOF 6
ENDMDL
MODEL 4
REMARK VINA RESULT:      -6.0      2.421      4.943
REMARK  Name = 
REMARK  8 active torsions:
REMARK  status: ('A' for Active; 'I' for Inactive)
REMARK    1  A    between atoms: C_1  and  C_2
REMARK    2  A    between atoms: C_2  and  O_4
REMARK    3  A    between atoms: O_4  and  C_5
REMARK    4  A    between atoms: C_10  and  C_11
REMARK    5  A    between atoms: C_11  and  O_13
REMARK    6  A    between atoms: O_13  and  C_14
REMARK    7  A    between atoms: C_14  and  S_15
REMARK    8  A    between atoms: S_15  and  C_16
REMARK                            x       y       z     vdW  Elec       q    Type
REMARK                         _______ _______ _______ _____ _____    ______ ____
ROOT
ATOM      1  C   UNL     1       4.683   6.043  17.319  0.00  0.00    +0.000 A 
ATOM      2  C   UNL     1       4.176   7.334  17.091  0.00  0.00    +0.000 A 
ATOM      3  C   UNL     1       3.132   7.830  17.866  0.00  0.00    +0.000 A 
ATOM      4  C   UNL     1       2.560   7.029  18.845  0.00  0.00    +0.000 A 
ATOM      5  C   UNL     1       3.044   5.736  19.061  0.00  0.00    +0.000 A 
ATOM      6  C   UNL     1       4.118   5.222  18.308  0.00  0.00    +0.000 A 
ENDROOT
BRANCH   6   7
ATOM      7  C   UNL     1       4.625   3.883  18.731  0.00  0.00    +0.000 C 
ATOM      8  O   UNL     1       5.581   3.742  19.481  0.00  0.00    +0.000 OA
BRANCH   7   9
ATOM      9  O   UNL     1       4.028   2.871  18.066  0.00  0.00    +0.000 OA
BRANCH   9  10
ATOM     10  C   UNL     1       3.281   1.993  18.915  0.00  0.00    +0.000 C 
BRANCH  10  11
ATOM     11  S   UNL     1       1.487   2.213  18.847  0.00  0.00    +0.000 S 
ATOM     12  C   UNL     1       1.246   2.864  20.507  0.00  0.00    +0.000 C 
ATOM     13  O   UNL     1       1.128   3.330  17.805  0.00  0.00    +0.000 OA
ENDBRANCH  10  11
ENDBRANCH   9  10
ENDBRANCH   7   9
ENDBRANCH   6   7
BRANCH   1  14
ATOM     14  O   UNL     1       5.670   5.565  16.436  0.00  0.00    +0.000 OA
BRANCH  14  16
ATOM     15  C   UNL     1       7.356   6.911  17.408  0.00  0.00    +0.000 C 
ATOM     16  C   UNL     1       6.976   5.541  16.916  0.00  0.00    +0.000 C 
ATOM     17  O   UNL     1       7.720   4.569  16.956  0.00  0.00    +0.000 OA
ENDBRANCH  14  16
ENDBRANCH   1  14
TORSDOF 6
ENDMDL
MODEL 5
REMARK VINA RESULT:      -6.0      2.577      5.368
REMARK  Name = 
REMARK  8 active torsions:
REMARK  status: ('A' for Active; 'I' for Inactive)
REMARK    1  A    between atoms: C_1  and  C_2
REMARK    2  A    between atoms: C_2  and  O_4
REMARK    3  A    between atoms: O_4  and  C_5
REMARK    4  A    between atoms: C_10  and  C_11
REMARK    5  A    between atoms: C_11  and  O_13
REMARK    6  A    between atoms: O_13  and  C_14
REMARK    7  A    between atoms: C_14  and  S_15
REMARK    8  A    between atoms: S_15  and  C_16
REMARK                            x       y       z     vdW  Elec       q    Type
REMARK                         _______ _______ _______ _____ _____    ______ ____
ROOT
ATOM      1  C   UNL     1       7.006   4.567  17.163  0.00  0.00    +0.000 A 
ATOM      2  C   UNL     1       7.491   4.732  15.854  0.00  0.00    +0.000 A 
ATOM      3  C   UNL     1       6.631   4.641  14.764  0.00  0.00    +0.000 A 
ATOM      4  C   UNL     1       5.290   4.344  14.968  0.00  0.00    +0.000 A 
ATOM      5  C   UNL     1       4.805   4.155  16.265  0.00  0.00    +0.000 A 
ATOM      6  C   UNL     1       5.651   4.270  17.386  0.00  0.00    +0.000 A 
ENDROOT
BRANCH   6   7
ATOM      7  C   UNL     1       4.981   4.180  18.717  0.00  0.00    +0.000 C 
ATOM      8  O   UNL     1       4.901   3.136  19.350  0.00  0.00    +0.000 OA
BRANCH   7   9
ATOM      9  O   UNL     1       4.340   5.320  19.051  0.00  0.00    +0.000 OA
BRANCH   9  10
ATOM     10  C   UNL     1       2.915   5.216  18.981  0.00  0.00    +0.000 C 
BRANCH  10  11
ATOM     11  S   UNL     1       2.081   5.103  20.581  0.00  0.00    +0.000 S 
ATOM     12  C   UNL     1       1.579   6.824  20.731  0.00  0.00    +0.000 C 
ATOM     13  O   UNL     1       0.798   4.209  20.450  0.00  0.00    +0.000 OA
ENDBRANCH  10  11
ENDBRANCH   9  10
ENDBRANCH   7   9
ENDBRANCH   6   7
BRANCH   1  14
ATOM     14  O   UNL     1       7.944   4.572  18.212  0.00  0.00    +0.000 OA
BRANCH  14  16
ATOM     15  C   UNL     1       7.921   6.929  18.407  0.00  0.00    +0.000 C 
ATOM     16  C   UNL     1       7.846   5.613  19.130  0.00  0.00    +0.000 C 
ATOM     17  O   UNL     1       7.706   5.505  20.342  0.00  0.00    +0.000 OA
ENDBRANCH  14  16
ENDBRANCH   1  14
TORSDOF 6
ENDMDL
MODEL 6
REMARK VINA RESULT:      -6.0      2.596      5.385
REMARK  Name = 
REMARK  8 active torsions:
REMARK  status: ('A' for Active; 'I' for Inactive)
REMARK    1  A    between atoms: C_1  and  C_2
REMARK    2  A    between atoms: C_2  and  O_4
REMARK    3  A    between atoms: O_4  and  C_5
REMARK    4  A    between atoms: C_10  and  C_11
REMARK    5  A    between atoms: C_11  and  O_13
REMARK    6  A    between atoms: O_13  and  C_14
REMARK    7  A    between atoms: C_14  and  S_15
REMARK    8  A    between atoms: S_15  and  C_16
REMARK                            x       y       z     vdW  Elec       q    Type
REMARK                         _______ _______ _______ _____ _____    ______ ____
ROOT
ATOM      1  C   UNL     1       4.830   5.403  17.056  0.00  0.00    +0.000 A 
ATOM      2  C   UNL     1       4.682   6.710  16.562  0.00  0.00    +0.000 A 
ATOM      3  C   UNL     1       3.830   7.612  17.192  0.00  0.00    +0.000 A 
ATOM      4  C   UNL     1       3.089   7.204  18.294  0.00  0.00    +0.000 A 
ATOM      5  C   UNL     1       3.214   5.898  18.776  0.00  0.00    +0.000 A 
ATOM      6  C   UNL     1       4.091   4.976  18.171  0.00  0.00    +0.000 A 
ENDROOT
BRANCH   6   7
ATOM      7  C   UNL     1       4.230   3.662  18.865  0.00  0.00    +0.000 C 
ATOM      8  O   UNL     1       5.222   3.355  19.512  0.00  0.00    +0.000 OA
BRANCH   7   9
ATOM      9  O   UNL     1       3.231   2.807  18.558  0.00  0.00    +0.000 OA
BRANCH   9  10
ATOM     10  C   UNL     1       2.715   2.102  19.691  0.00  0.00    +0.000 C 
BRANCH  10  11
ATOM     11  S   UNL     1       2.164   3.153  21.055  0.00  0.00    +0.000 S 
ATOM     12  C   UNL     1       0.744   3.902  20.244  0.00  0.00    +0.000 C 
ATOM     13  O   UNL     1       1.660   2.261  22.243  0.00  0.00    +0.000 OA
ENDBRANCH  10  11
ENDBRANCH   9  10
ENDBRANCH   7   9
ENDBRANCH   6   7
BRANCH   1  14
ATOM     14  O   UNL     1       5.630   4.512  16.315  0.00  0.00    +0.000 OA
BRANCH  14  16
ATOM     15  C   UNL     1       7.688   4.605  17.476  0.00  0.00    +0.000 C 
ATOM     16  C   UNL     1       6.973   4.848  16.176  0.00  0.00    +0.000 C 
ATOM     17  O   UNL     1       7.518   5.267  15.163  0.00  0.00    +0.000 OA
ENDBRANCH  14  16
ENDBRANCH   1  14
TORSDOF 6
ENDMDL
MODEL 7
REMARK VINA RESULT:      -6.0      1.159      1.514
REMARK  Name = 
REMARK  8 active torsions:
REMARK  status: ('A' for Active; 'I' for Inactive)
REMARK    1  A    between atoms: C_1  and  C_2
REMARK    2  A    between atoms: C_2  and  O_4
REMARK    3  A    between atoms: O_4  and  C_5
REMARK    4  A    between atoms: C_10  and  C_11
REMARK    5  A    between atoms: C_11  and  O_13
REMARK    6  A    between atoms: O_13  and  C_14
REMARK    7  A    between atoms: C_14  and  S_15
REMARK    8  A    between atoms: S_15  and  C_16
REMARK                            x       y       z     vdW  Elec       q    Type
REMARK                         _______ _______ _______ _____ _____    ______ ____
ROOT
ATOM      1  C   UNL     1       2.633   4.967  19.361  0.00  0.00    +0.000 A 
ATOM      2  C   UNL     1       1.514   4.446  20.033  0.00  0.00    +0.000 A 
ATOM      3  C   UNL     1       0.914   3.268  19.598  0.00  0.00    +0.000 A 
ATOM      4  C   UNL     1       1.400   2.623  18.468  0.00  0.00    +0.000 A 
ATOM      5  C   UNL     1       2.499   3.149  17.782  0.00  0.00    +0.000 A 
ATOM      6  C   UNL     1       3.139   4.326  18.219  0.00  0.00    +0.000 A 
ENDROOT
BRANCH   6   7
ATOM      7  C   UNL     1       4.380   4.703  17.479  0.00  0.00    +0.000 C 
ATOM      8  O   UNL     1       4.377   5.472  16.528  0.00  0.00    +0.000 OA
BRANCH   7   9
ATOM      9  O   UNL     1       5.452   3.979  17.865  0.00  0.00    +0.000 OA
BRANCH   9  10
ATOM     10  C   UNL     1       6.690   4.467  17.339  0.00  0.00    +0.000 C 
BRANCH  10  11
ATOM     11  S   UNL     1       7.667   5.461  18.490  0.00  0.00    +0.000 S 
ATOM     12  C   UNL     1       7.412   7.068  17.722  0.00  0.00    +0.000 C 
ATOM     13  O   UNL     1       6.987   5.459  19.904  0.00  0.00    +0.000 OA
ENDBRANCH  10  11
ENDBRANCH   9  10
ENDBRANCH   7   9
ENDBRANCH   6   7
BRANCH   1  14
ATOM     14  O   UNL     1       3.130   6.212  19.791  0.00  0.00    +0.000 OA
BRANCH  14  16
ATOM     15  C   UNL     1       2.318   7.785  18.221  0.00  0.00    +0.000 C 
ATOM     16  C   UNL     1       2.281   7.305  19.646  0.00  0.00    +0.000 C 
ATOM     17  O   UNL     1       1.589   7.811  20.521  0.00  0.00    +0.000 OA
ENDBRANCH  14  16
ENDBRANCH   1  14
TORSDOF 6
ENDMDL
MODEL 8
REMARK VINA RESULT:      -6.0      2.681      5.620
REMARK  Name = 
REMARK  8 active torsions:
REMARK  status: ('A' for Active; 'I' for Inactive)
REMARK    1  A    between atoms: C_1  and  C_2
REMARK    2  A    between atoms: C_2  and  O_4
REMARK    3  A    between atoms: O_4  and  C_5
REMARK    4  A    between atoms: C_10  and  C_11
REMARK    5  A    between atoms: C_11  and  O_13
REMARK    6  A    between atoms: O_13  and  C_14
REMARK    7  A    between atoms: C_14  and  S_15
REMARK    8  A    between atoms: S_15  and  C_16
REMARK                            x       y       z     vdW  Elec       q    Type
REMARK                         _______ _______ _______ _____ _____    ______ ____
ROOT
ATOM      1  C   UNL     1       4.842   4.818  16.603  0.00  0.00    +0.000 A 
ATOM      2  C   UNL     1       5.288   6.140  16.437  0.00  0.00    +0.000 A 
ATOM      3  C   UNL     1       4.613   7.195  17.044  0.00  0.00    +0.000 A 
ATOM      4  C   UNL     1       3.468   6.943  17.787  0.00  0.00    +0.000 A 
ATOM      5  C   UNL     1       3.006   5.633  17.937  0.00  0.00    +0.000 A 
ATOM      6  C   UNL     1       3.688   4.546  17.354  0.00  0.00    +0.000 A 
ENDROOT
BRANCH   6   7
ATOM      7  C   UNL     1       3.168   3.191  17.704  0.00  0.00    +0.000 C 
ATOM      8  O   UNL     1       2.224   2.672  17.123  0.00  0.00    +0.000 OA
BRANCH   7   9
ATOM      9  O   UNL     1       3.737   2.692  18.822  0.00  0.00    +0.000 OA
BRANCH   9  10
ATOM     10  C   UNL     1       2.789   2.205  19.777  0.00  0.00    +0.000 C 
BRANCH  10  11
ATOM     11  S   UNL     1       2.302   3.401  21.043  0.00  0.00    +0.000 S 
ATOM     12  C   UNL     1       0.812   4.023  20.248  0.00  0.00    +0.000 C 
ATOM     13  O   UNL     1       1.900   2.648  22.359  0.00  0.00    +0.000 OA
ENDBRANCH  10  11
ENDBRANCH   9  10
ENDBRANCH   7   9
ENDBRANCH   6   7
BRANCH   1  14
ATOM     14  O   UNL     1       5.509   3.809  15.882  0.00  0.00    +0.000 OA
BRANCH  14  16
ATOM     15  C   UNL     1       6.188   3.963  13.621  0.00  0.00    +0.000 C 
ATOM     16  C   UNL     1       6.552   4.218  15.058  0.00  0.00    +0.000 C 
ATOM     17  O   UNL     1       7.609   4.723  15.417  0.00  0.00    +0.000 OA
ENDBRANCH  14  16
ENDBRANCH   1  14
TORSDOF 6
ENDMDL
MODEL 9
REMARK VINA RESULT:      -6.0      1.170      1.277
REMARK  Name = 
REMARK  8 active torsions:
REMARK  status: ('A' for Active; 'I' for Inactive)
REMARK    1  A    between atoms: C_1  and  C_2
REMARK    2  A    between atoms: C_2  and  O_4
REMARK    3  A    between atoms: O_4  and  C_5
REMARK    4  A    between atoms: C_10  and  C_11
REMARK    5  A    between atoms: C_11  and  O_13
REMARK    6  A    between atoms: O_13  and  C_14
REMARK    7  A    between atoms: C_14  and  S_15
REMARK    8  A    between atoms: S_15  and  C_16
REMARK                            x       y       z     vdW  Elec       q    Type
REMARK                         _______ _______ _______ _____ _____    ______ ____
ROOT
ATOM      1  C   UNL     1       2.441   4.371  19.745  0.00  0.00    +0.000 A 
ATOM      2  C   UNL     1       1.101   4.034  20.000  0.00  0.00    +0.000 A 
ATOM      3  C   UNL     1       0.551   2.871  19.471  0.00  0.00    +0.000 A 
ATOM      4  C   UNL     1       1.321   2.056  18.651  0.00  0.00    +0.000 A 
ATOM      5  C   UNL     1       2.647   2.398  18.374  0.00  0.00    +0.000 A 
ATOM      6  C   UNL     1       3.234   3.556  18.921  0.00  0.00    +0.000 A 
ENDROOT
BRANCH   6   7
ATOM      7  C   UNL     1       4.693   3.731  18.657  0.00  0.00    +0.000 C 
ATOM      8  O   UNL     1       5.551   3.504  19.498  0.00  0.00    +0.000 OA
BRANCH   7   9
ATOM      9  O   UNL     1       4.936   4.318  17.465  0.00  0.00    +0.000 OA
BRANCH   9  10
ATOM     10  C   UNL     1       6.319   4.615  17.247  0.00  0.00    +0.000 C 
BRANCH  10  11
ATOM     11  S   UNL     1       6.801   6.315  17.633  0.00  0.00    +0.000 S 
ATOM     12  C   UNL     1       7.877   5.963  19.032  0.00  0.00    +0.000 C 
ATOM     13  O   UNL     1       7.664   6.901  16.462  0.00  0.00    +0.000 OA
ENDBRANCH  10  11
ENDBRANCH   9  10
ENDBRANCH   7   9
ENDBRANCH   6   7
BRANCH   1  14
ATOM     14  O   UNL     1       2.907   5.609  20.226  0.00  0.00    +0.000 OA
BRANCH  14  16
ATOM     15  C   UNL     1       1.787   7.689  20.348  0.00  0.00    +0.000 C 
ATOM     16  C   UNL     1       2.563   6.735  19.484  0.00  0.00    +0.000 C 
ATOM     17  O   UNL     1       2.847   6.948  18.312  0.00  0.00    +0.000 OA
ENDBRANCH  14  16
ENDBRANCH   1  14
TORSDOF 6
ENDMDL
