MODEL 1
REMARK VINA RESULT:      -8.0      0.000      0.000
REMARK  Name = 
REMARK  4 active torsions:
REMARK  status: ('A' for Active; 'I' for Inactive)
REMARK    1  A    between atoms: C_2  and  O_3
REMARK    2  A    between atoms: C_2  and  C_4
REMARK    3  A    between atoms: C_8  and  N_9
REMARK    4  A    between atoms: C_14  and  C_15
REMARK                            x       y       z     vdW  Elec       q    Type
REMARK                         _______ _______ _______ _____ _____    ______ ____
ROOT
ATOM      1  N   UNL     1       3.995   4.121  19.392  0.00  0.00    +0.000 N 
ATOM      2  C   UNL     1       3.964   2.792  19.835  0.00  0.00    +0.000 C 
ATOM      3  O   UNL     1       4.932   2.045  19.930  0.00  0.00    +0.000 OA
ATOM      4  C   UNL     1       2.573   2.354  20.247  0.00  0.00    +0.000 C 
ATOM      5  S   UNL     1       1.443   3.692  19.845  0.00  0.00    +0.000 S 
ATOM      6  C   UNL     1       2.706   4.604  18.919  0.00  0.00    +0.000 C 
ENDROOT
BRANCH   1  11
ATOM      7  C   UNL     1       6.529   4.827  16.784  0.00  0.00    +0.000 A 
ATOM      8  C   UNL     1       7.478   5.567  17.498  0.00  0.00    +0.000 A 
ATOM      9  C   UNL     1       7.264   5.845  18.850  0.00  0.00    +0.000 A 
ATOM     10  C   UNL     1       6.108   5.381  19.490  0.00  0.00    +0.000 A 
ATOM     11  C   UNL     1       5.165   4.634  18.778  0.00  0.00    +0.000 A 
ATOM     12  C   UNL     1       5.368   4.381  17.419  0.00  0.00    +0.000 A 
BRANCH   7  14
ATOM     13  O   UNL     1       6.101   3.610  14.786  0.00  0.00    +0.000 OA
ATOM     14  C   UNL     1       6.688   4.521  15.343  0.00  0.00    +0.000 C 
BRANCH  14  15
ATOM     15  O   UNL     1       7.591   5.313  14.728  0.00  0.00    +0.000 OA
ATOM     16  H   UNL     1       8.215   4.840  14.148  0.00  0.00    +0.000 HD
ENDBRANCH  14  15
ENDBRANCH   7  14
ENDBRANCH   1  11
BRANCH   6  17
ATOM     17  C   UNL     1       2.460   6.097  18.973  0.00  0.00    +0.000 A 
ATOM     18  C   UNL     1       2.034   6.740  20.147  0.00  0.00    +0.000 A 
ATOM     19  C   UNL     1       1.740   8.105  20.146  0.00  0.00    +0.000 A 
ATOM     20  C   UNL     1       1.857   8.845  18.971  0.00  0.00    +0.000 A 
ATOM     21  C   UNL     1       2.293   8.228  17.802  0.00  0.00    +0.000 A 
ATOM     22  C   UNL     1       2.599   6.866  17.803  0.00  0.00    +0.000 A 
ENDBRANCH   6  17
TORSDOF 4
ENDMDL
MODEL 2
REMARK VINA RESULT:      -8.0      1.536      2.117
REMARK  Name = 
REMARK  4 active torsions:
REMARK  status: ('A' for Active; 'I' for Inactive)
REMARK    1  A    between atoms: C_2  and  O_3
REMARK    2  A    between atoms: C_2  and  C_4
REMARK    3  A    between atoms: C_8  and  N_9
REMARK    4  A    between atoms: C_14  and  C_15
REMARK                            x       y       z     vdW  Elec       q    Type
REMARK                         _______ _______ _______ _____ _____    ______ ____
ROOT
ATOM      1  N   UNL     1       3.883   4.178  19.468  0.00  0.00    +0.000 N 
ATOM      2  C   UNL     1       4.020   2.939  20.107  0.00  0.00    +0.000 C 
ATOM      3  O   UNL     1       4.964   2.166  19.978  0.00  0.00    +0.000 OA
ATOM      4  C   UNL     1       2.869   2.645  21.048  0.00  0.00    +0.000 C 
ATOM      5  S   UNL     1       1.662   3.961  20.853  0.00  0.00    +0.000 S 
ATOM      6  C   UNL     1       2.507   4.648  19.404  0.00  0.00    +0.000 C 
ENDROOT
BRANCH   1  11
ATOM      7  C   UNL     1       6.590   5.896  17.611  0.00  0.00    +0.000 A 
ATOM      8  C   UNL     1       6.486   5.309  16.345  0.00  0.00    +0.000 A 
ATOM      9  C   UNL     1       5.521   4.327  16.115  0.00  0.00    +0.000 A 
ATOM     10  C   UNL     1       4.657   3.934  17.144  0.00  0.00    +0.000 A 
ATOM     11  C   UNL     1       4.755   4.526  18.406  0.00  0.00    +0.000 A 
ATOM     12  C   UNL     1       5.739   5.489  18.642  0.00  0.00    +0.000 A 
BRANCH   7  14
ATOM     13  O   UNL     1       7.841   7.875  17.196  0.00  0.00    +0.000 OA
ATOM     14  C   UNL     1       7.608   6.925  17.923  0.00  0.00    +0.000 C 
BRANCH  14  15
ATOM     15  O   UNL     1       8.290   6.671  19.060  0.00  0.00    +0.000 OA
ATOM     16  H   UNL     1       8.074   7.266  19.801  0.00  0.00    +0.000 HD
ENDBRANCH  14  15
ENDBRANCH   7  14
ENDBRANCH   1  11
BRANCH   6  17
ATOM     17  C   UNL     1       2.286   6.142  19.293  0.00  0.00    +0.000 A 
ATOM     18  C   UNL     1       1.901   6.922  20.396  0.00  0.00    +0.000 A 
ATOM     19  C   UNL     1       1.629   8.284  20.246  0.00  0.00    +0.000 A 
ATOM     20  C   UNL     1       1.727   8.883  18.991  0.00  0.00    +0.000 A 
ATOM     21  C   UNL     1       2.122   8.128  17.890  0.00  0.00    +0.000 A 
ATOM     22  C   UNL     1       2.406   6.769  18.040  0.00  0.00    +0.000 A 
ENDBRANCH   6  17
TORSDOF 4
ENDMDL
MODEL 3
REMARK VINA RESULT:      -7.9      1.523      2.358
REMARK  Name = 
REMARK  4 active torsions:
REMARK  status: ('A' for Active; 'I' for Inactive)
REMARK    1  A    between atoms: C_2  and  O_3
REMARK    2  A    between atoms: C_2  and  C_4
REMARK    3  A    between atoms: C_8  and  N_9
REMARK    4  A    between atoms: C_14  and  C_15
REMARK                            x       y       z     vdW  Elec       q    Type
REMARK                         _______ _______ _______ _____ _____    ______ ____
ROOT
ATOM      1  N   UNL     1       3.885   4.100  19.495  0.00  0.00    +0.000 N 
ATOM      2  C   UNL     1       4.068   2.884  20.166  0.00  0.00    +0.000 C 
ATOM      3  O   UNL     1       5.043   2.147  20.060  0.00  0.00    +0.000 OA
ATOM      4  C   UNL     1       2.927   2.569  21.112  0.00  0.00    +0.000 C 
ATOM      5  S   UNL     1       1.669   3.830  20.880  0.00  0.00    +0.000 S 
ATOM      6  C   UNL     1       2.491   4.512  19.416  0.00  0.00    +0.000 C 
ENDROOT
BRANCH   1  11
ATOM      7  C   UNL     1       6.564   5.838  17.617  0.00  0.00    +0.000 A 
ATOM      8  C   UNL     1       6.455   5.251  16.352  0.00  0.00    +0.000 A 
ATOM      9  C   UNL     1       5.496   4.261  16.129  0.00  0.00    +0.000 A 
ATOM     10  C   UNL     1       4.642   3.862  17.164  0.00  0.00    +0.000 A 
ATOM     11  C   UNL     1       4.746   4.454  18.426  0.00  0.00    +0.000 A 
ATOM     12  C   UNL     1       5.725   5.425  18.655  0.00  0.00    +0.000 A 
BRANCH   7  14
ATOM     13  O   UNL     1       7.811   7.816  17.184  0.00  0.00    +0.000 OA
ATOM     14  C   UNL     1       7.577   6.875  17.922  0.00  0.00    +0.000 C 
BRANCH  14  15
ATOM     15  O   UNL     1       8.253   6.639  19.066  0.00  0.00    +0.000 OA
ATOM     16  H   UNL     1       7.862   5.947  19.630  0.00  0.00    +0.000 HD
ENDBRANCH  14  15
ENDBRANCH   7  14
ENDBRANCH   1  11
BRANCH   6  17
ATOM     17  C   UNL     1       2.211   5.993  19.265  0.00  0.00    +0.000 A 
ATOM     18  C   UNL     1       2.348   6.656  18.034  0.00  0.00    +0.000 A 
ATOM     19  C   UNL     1       2.159   8.036  17.942  0.00  0.00    +0.000 A 
ATOM     20  C   UNL     1       1.840   8.776  19.080  0.00  0.00    +0.000 A 
ATOM     21  C   UNL     1       1.685   8.133  20.305  0.00  0.00    +0.000 A 
ATOM     22  C   UNL     1       1.862   6.752  20.397  0.00  0.00    +0.000 A 
ENDBRANCH   6  17
TORSDOF 4
ENDMDL
MODEL 4
REMARK VINA RESULT:      -7.9      0.175      1.273
REMARK  Name = 
REMARK  4 active torsions:
REMARK  status: ('A' for Active; 'I' for Inactive)
REMARK    1  A    between atoms: C_2  and  O_3
REMARK    2  A    between atoms: C_2  and  C_4
REMARK    3  A    between atoms: C_8  and  N_9
REMARK    4  A    between atoms: C_14  and  C_15
REMARK                            x       y       z     vdW  Elec       q    Type
REMARK                         _______ _______ _______ _____ _____    ______ ____
ROOT
ATOM      1  N   UNL     1       3.976   4.010  19.287  0.00  0.00    +0.000 N 
ATOM      2  C   UNL     1       3.957   2.675  19.713  0.00  0.00    +0.000 C 
ATOM      3  O   UNL     1       4.938   1.951  19.848  0.00  0.00    +0.000 OA
ATOM      4  C   UNL     1       2.559   2.197  20.052  0.00  0.00    +0.000 C 
ATOM      5  S   UNL     1       1.417   3.512  19.610  0.00  0.00    +0.000 S 
ATOM      6  C   UNL     1       2.700   4.466  18.756  0.00  0.00    +0.000 C 
ENDROOT
BRANCH   1  11
ATOM      7  C   UNL     1       6.609   4.821  16.811  0.00  0.00    +0.000 A 
ATOM      8  C   UNL     1       7.509   5.565  17.582  0.00  0.00    +0.000 A 
ATOM      9  C   UNL     1       7.228   5.811  18.927  0.00  0.00    +0.000 A 
ATOM     10  C   UNL     1       6.055   5.310  19.505  0.00  0.00    +0.000 A 
ATOM     11  C   UNL     1       5.161   4.559  18.737  0.00  0.00    +0.000 A 
ATOM     12  C   UNL     1       5.430   4.338  17.384  0.00  0.00    +0.000 A 
BRANCH   7  14
ATOM     13  O   UNL     1       7.485   5.285  14.649  0.00  0.00    +0.000 OA
ATOM     14  C   UNL     1       6.839   4.547  15.373  0.00  0.00    +0.000 C 
BRANCH  14  15
ATOM     15  O   UNL     1       6.214   3.434  14.937  0.00  0.00    +0.000 OA
ATOM     16  H   UNL     1       5.389   3.601  14.445  0.00  0.00    +0.000 HD
ENDBRANCH  14  15
ENDBRANCH   7  14
ENDBRANCH   1  11
BRANCH   6  17
ATOM     17  C   UNL     1       2.413   5.951  18.814  0.00  0.00    +0.000 A 
ATOM     18  C   UNL     1       2.576   6.786  17.695  0.00  0.00    +0.000 A 
ATOM     19  C   UNL     1       2.379   8.165  17.800  0.00  0.00    +0.000 A 
ATOM     20  C   UNL     1       2.027   8.730  19.024  0.00  0.00    +0.000 A 
ATOM     21  C   UNL     1       1.846   7.917  20.139  0.00  0.00    +0.000 A 
ATOM     22  C   UNL     1       2.031   6.537  20.034  0.00  0.00    +0.000 A 
ENDBRANCH   6  17
TORSDOF 4
ENDMDL
MODEL 5
REMARK VINA RESULT:      -7.7      1.729      2.612
REMARK  Name = 
REMARK  4 active torsions:
REMARK  status: ('A' for Active; 'I' for Inactive)
REMARK    1  A    between atoms: C_2  and  O_3
REMARK    2  A    between atoms: C_2  and  C_4
REMARK    3  A    between atoms: C_8  and  N_9
REMARK    4  A    between atoms: C_14  and  C_15
REMARK                            x       y       z     vdW  Elec       q    Type
REMARK                         _______ _______ _______ _____ _____    ______ ____
ROOT
ATOM      1  N   UNL     1       3.465   3.418  18.542  0.00  0.00    +0.000 N 
ATOM      2  C   UNL     1       3.308   2.032  18.678  0.00  0.00    +0.000 C 
ATOM      3  O   UNL     1       4.197   1.195  18.555  0.00  0.00    +0.000 OA
ATOM      4  C   UNL     1       1.892   1.645  19.051  0.00  0.00    +0.000 C 
ATOM      5  S   UNL     1       0.896   3.141  19.015  0.00  0.00    +0.000 S 
ATOM      6  C   UNL     1       2.221   4.115  18.253  0.00  0.00    +0.000 C 
ENDROOT
BRANCH   1  11
ATOM      7  C   UNL     1       6.756   5.111  18.372  0.00  0.00    +0.000 A 
ATOM      8  C   UNL     1       7.037   5.056  17.003  0.00  0.00    +0.000 A 
ATOM      9  C   UNL     1       6.134   4.437  16.136  0.00  0.00    +0.000 A 
ATOM     10  C   UNL     1       4.950   3.880  16.633  0.00  0.00    +0.000 A 
ATOM     11  C   UNL     1       4.664   3.944  18.000  0.00  0.00    +0.000 A 
ATOM     12  C   UNL     1       5.582   4.539  18.869  0.00  0.00    +0.000 A 
BRANCH   7  14
ATOM     13  O   UNL     1       7.852   5.307  20.474  0.00  0.00    +0.000 OA
ATOM     14  C   UNL     1       7.685   5.733  19.344  0.00  0.00    +0.000 C 
BRANCH  14  15
ATOM     15  O   UNL     1       8.280   6.848  18.872  0.00  0.00    +0.000 OA
ATOM     16  H   UNL     1       8.228   6.956  17.905  0.00  0.00    +0.000 HD
ENDBRANCH  14  15
ENDBRANCH   7  14
ENDBRANCH   1  11
BRANCH   6  17
ATOM     17  C   UNL     1       2.132   5.573  18.651  0.00  0.00    +0.000 A 
ATOM     18  C   UNL     1       2.333   6.612  17.726  0.00  0.00    +0.000 A 
ATOM     19  C   UNL     1       2.322   7.946  18.139  0.00  0.00    +0.000 A 
ATOM     20  C   UNL     1       2.120   8.262  19.481  0.00  0.00    +0.000 A 
ATOM     21  C   UNL     1       1.903   7.246  20.408  0.00  0.00    +0.000 A 
ATOM     22  C   UNL     1       1.902   5.913  19.996  0.00  0.00    +0.000 A 
ENDBRANCH   6  17
TORSDOF 4
ENDMDL
MODEL 6
REMARK VINA RESULT:      -7.2      2.200      5.071
REMARK  Name = 
REMARK  4 active torsions:
REMARK  status: ('A' for Active; 'I' for Inactive)
REMARK    1  A    between atoms: C_2  and  O_3
REMARK    2  A    between atoms: C_2  and  C_4
REMARK    3  A    between atoms: C_8  and  N_9
REMARK    4  A    between atoms: C_14  and  C_15
REMARK                            x       y       z     vdW  Elec       q    Type
REMARK                         _______ _______ _______ _____ _____    ______ ____
ROOT
ATOM      1  N   UNL     1       3.646   5.111  17.542  0.00  0.00    +0.000 N 
ATOM      2  C   UNL     1       4.660   4.501  16.792  0.00  0.00    +0.000 C 
ATOM      3  O   UNL     1       4.713   3.313  16.492  0.00  0.00    +0.000 OA
ATOM      4  C   UNL     1       5.708   5.491  16.326  0.00  0.00    +0.000 C 
ATOM      5  S   UNL     1       5.321   7.079  17.071  0.00  0.00    +0.000 S 
ATOM      6  C   UNL     1       4.055   6.366  18.155  0.00  0.00    +0.000 C 
ENDROOT
BRANCH   1  11
ATOM      7  C   UNL     1       2.148   2.988  20.182  0.00  0.00    +0.000 A 
ATOM      8  C   UNL     1       0.898   2.683  19.631  0.00  0.00    +0.000 A 
ATOM      9  C   UNL     1       0.548   3.201  18.382  0.00  0.00    +0.000 A 
ATOM     10  C   UNL     1       1.445   4.016  17.681  0.00  0.00    +0.000 A 
ATOM     11  C   UNL     1       2.697   4.313  18.228  0.00  0.00    +0.000 A 
ATOM     12  C   UNL     1       3.034   3.817  19.490  0.00  0.00    +0.000 A 
BRANCH   7  14
ATOM     13  O   UNL     1       3.685   2.064  21.744  0.00  0.00    +0.000 OA
ATOM     14  C   UNL     1       2.566   2.489  21.512  0.00  0.00    +0.000 C 
BRANCH  14  15
ATOM     15  O   UNL     1       1.569   2.498  22.422  0.00  0.00    +0.000 OA
ATOM     16  H   UNL     1       1.858   2.340  23.339  0.00  0.00    +0.000 HD
ENDBRANCH  14  15
ENDBRANCH   7  14
ENDBRANCH   1  11
BRANCH   6  17
ATOM     17  C   UNL     1       2.969   7.373  18.470  0.00  0.00    +0.000 A 
ATOM     18  C   UNL     1       2.581   8.364  17.553  0.00  0.00    +0.000 A 
ATOM     19  C   UNL     1       1.631   9.326  17.901  0.00  0.00    +0.000 A 
ATOM     20  C   UNL     1       1.062   9.319  19.174  0.00  0.00    +0.000 A 
ATOM     21  C   UNL     1       1.423   8.336  20.091  0.00  0.00    +0.000 A 
ATOM     22  C   UNL     1       2.364   7.366  19.740  0.00  0.00    +0.000 A 
ENDBRANCH   6  17
TORSDOF 4
ENDMDL
MODEL 7
REMARK VINA RESULT:      -7.1      2.940      5.747
REMARK  Name = 
REMARK  4 active torsions:
REMARK  status: ('A' for Active; 'I' for Inactive)
REMARK    1  A    between atoms: C_2  and  O_3
REMARK    2  A    between atoms: C_2  and  C_4
REMARK    3  A    between atoms: C_8  and  N_9
REMARK    4  A    between atoms: C_14  and  C_15
REMARK                            x       y       z     vdW  Elec       q    Type
REMARK                         _______ _______ _______ _____ _____    ______ ____
ROOT
ATOM      1  N   UNL     1       2.703   4.653  19.366  0.00  0.00    +0.000 N 
ATOM      2  C   UNL     1       1.757   3.763  19.889  0.00  0.00    +0.000 C 
ATOM      3  O   UNL     1       0.582   4.024  20.128  0.00  0.00    +0.000 OA
ATOM      4  C   UNL     1       2.325   2.374  20.100  0.00  0.00    +0.000 C 
ATOM      5  S   UNL     1       4.084   2.451  19.740  0.00  0.00    +0.000 S 
ATOM      6  C   UNL     1       4.078   4.260  19.635  0.00  0.00    +0.000 C 
ENDROOT
BRANCH   1  11
ATOM      7  C   UNL     1       1.592   8.029  20.413  0.00  0.00    +0.000 A 
ATOM      8  C   UNL     1       1.751   8.762  19.232  0.00  0.00    +0.000 A 
ATOM      9  C   UNL     1       2.246   8.134  18.088  0.00  0.00    +0.000 A 
ATOM     10  C   UNL     1       2.575   6.773  18.119  0.00  0.00    +0.000 A 
ATOM     11  C   UNL     1       2.408   6.038  19.297  0.00  0.00    +0.000 A 
ATOM     12  C   UNL     1       1.939   6.676  20.448  0.00  0.00    +0.000 A 
BRANCH   7  14
ATOM     13  O   UNL     1      -0.088   8.735  21.941  0.00  0.00    +0.000 OA
ATOM     14  C   UNL     1       1.096   8.646  21.665  0.00  0.00    +0.000 C 
BRANCH  14  15
ATOM     15  O   UNL     1       2.081   9.149  22.437  0.00  0.00    +0.000 OA
ATOM     16  H   UNL     1       2.866   9.452  21.944  0.00  0.00    +0.000 HD
ENDBRANCH  14  15
ENDBRANCH   7  14
ENDBRANCH   1  11
BRANCH   6  17
ATOM     17  C   UNL     1       5.144   4.760  18.682  0.00  0.00    +0.000 A 
ATOM     18  C   UNL     1       5.143   4.422  17.318  0.00  0.00    +0.000 A 
ATOM     19  C   UNL     1       6.182   4.835  16.481  0.00  0.00    +0.000 A 
ATOM     20  C   UNL     1       7.240   5.581  16.995  0.00  0.00    +0.000 A 
ATOM     21  C   UNL     1       7.250   5.939  18.340  0.00  0.00    +0.000 A 
ATOM     22  C   UNL     1       6.207   5.538  19.177  0.00  0.00    +0.000 A 
ENDBRANCH   6  17
TORSDOF 4
ENDMDL
MODEL 8
REMARK VINA RESULT:      -7.1      2.927      5.640
REMARK  Name = 
REMARK  4 active torsions:
REMARK  status: ('A' for Active; 'I' for Inactive)
REMARK    1  A    between atoms: C_2  and  O_3
REMARK    2  A    between atoms: C_2  and  C_4
REMARK    3  A    between atoms: C_8  and  N_9
REMARK    4  A    between atoms: C_14  and  C_15
REMARK                            x       y       z     vdW  Elec       q    Type
REMARK                         _______ _______ _______ _____ _____    ______ ____
ROOT
ATOM      1  N   UNL     1       2.745   4.622  19.325  0.00  0.00    +0.000 N 
ATOM      2  C   UNL     1       1.791   3.728  19.829  0.00  0.00    +0.000 C 
ATOM      3  O   UNL     1       0.611   3.987  20.047  0.00  0.00    +0.000 OA
ATOM      4  C   UNL     1       2.358   2.340  20.047  0.00  0.00    +0.000 C 
ATOM      5  S   UNL     1       4.123   2.421  19.720  0.00  0.00    +0.000 S 
ATOM      6  C   UNL     1       4.116   4.230  19.618  0.00  0.00    +0.000 C 
ENDROOT
BRANCH   1  11
ATOM      7  C   UNL     1       1.610   7.993  20.360  0.00  0.00    +0.000 A 
ATOM      8  C   UNL     1       1.788   8.729  19.183  0.00  0.00    +0.000 A 
ATOM      9  C   UNL     1       2.304   8.104  18.047  0.00  0.00    +0.000 A 
ATOM     10  C   UNL     1       2.636   6.744  18.081  0.00  0.00    +0.000 A 
ATOM     11  C   UNL     1       2.449   6.006  19.254  0.00  0.00    +0.000 A 
ATOM     12  C   UNL     1       1.959   6.641  20.398  0.00  0.00    +0.000 A 
BRANCH   7  14
ATOM     13  O   UNL     1      -0.099   8.697  21.857  0.00  0.00    +0.000 OA
ATOM     14  C   UNL     1       1.090   8.606  21.604  0.00  0.00    +0.000 C 
BRANCH  14  15
ATOM     15  O   UNL     1       2.061   9.104  22.397  0.00  0.00    +0.000 OA
ATOM     16  H   UNL     1       2.960   9.037  22.027  0.00  0.00    +0.000 HD
ENDBRANCH  14  15
ENDBRANCH   7  14
ENDBRANCH   1  11
BRANCH   6  17
ATOM     17  C   UNL     1       5.198   4.735  18.687  0.00  0.00    +0.000 A 
ATOM     18  C   UNL     1       6.212   5.604  19.123  0.00  0.00    +0.000 A 
ATOM     19  C   UNL     1       7.150   6.114  18.223  0.00  0.00    +0.000 A 
ATOM     20  C   UNL     1       7.083   5.772  16.874  0.00  0.00    +0.000 A 
ATOM     21  C   UNL     1       6.095   4.900  16.427  0.00  0.00    +0.000 A 
ATOM     22  C   UNL     1       5.163   4.379  17.326  0.00  0.00    +0.000 A 
ENDBRANCH   6  17
TORSDOF 4
ENDMDL
MODEL 9
REMARK VINA RESULT:      -7.1      3.175      5.358
REMARK  Name = 
REMARK  4 active torsions:
REMARK  status: ('A' for Active; 'I' for Inactive)
REMARK    1  A    between atoms: C_2  and  O_3
REMARK    2  A    between atoms: C_2  and  C_4
REMARK    3  A    between atoms: C_8  and  N_9
REMARK    4  A    between atoms: C_14  and  C_15
REMARK                            x       y       z     vdW  Elec       q    Type
REMARK                         _______ _______ _______ _____ _____    ______ ____
ROOT
ATOM      1  N   UNL     1       3.016   5.012  18.072  0.00  0.00    +0.000 N 
ATOM      2  C   UNL     1       2.127   4.020  17.639  0.00  0.00    +0.000 C 
ATOM      3  O   UNL     1       0.903   4.108  17.628  0.00  0.00    +0.000 OA
ATOM      4  C   UNL     1       2.843   2.791  17.118  0.00  0.00    +0.000 C 
ATOM      5  S   UNL     1       4.600   3.022  17.416  0.00  0.00    +0.000 S 
ATOM      6  C   UNL     1       4.327   4.495  18.436  0.00  0.00    +0.000 C 
ENDROOT
BRANCH   1  11
ATOM      7  C   UNL     1       1.854   8.469  18.725  0.00  0.00    +0.000 A 
ATOM      8  C   UNL     1       1.609   8.434  20.102  0.00  0.00    +0.000 A 
ATOM      9  C   UNL     1       1.815   7.250  20.812  0.00  0.00    +0.000 A 
ATOM     10  C   UNL     1       2.272   6.103  20.151  0.00  0.00    +0.000 A 
ATOM     11  C   UNL     1       2.526   6.141  18.776  0.00  0.00    +0.000 A 
ATOM     12  C   UNL     1       2.292   7.319  18.063  0.00  0.00    +0.000 A 
BRANCH   7  14
ATOM     13  O   UNL     1       2.534  10.410  17.530  0.00  0.00    +0.000 OA
ATOM     14  C   UNL     1       1.630   9.688  17.914  0.00  0.00    +0.000 C 
BRANCH  14  15
ATOM     15  O   UNL     1       0.324   9.948  17.694  0.00  0.00    +0.000 OA
ATOM     16  H   UNL     1      -0.137   9.275  17.161  0.00  0.00    +0.000 HD
ENDBRANCH  14  15
ENDBRANCH   7  14
ENDBRANCH   1  11
BRANCH   6  17
ATOM     17  C   UNL     1       5.499   5.450  18.351  0.00  0.00    +0.000 A 
ATOM     18  C   UNL     1       5.583   6.441  17.359  0.00  0.00    +0.000 A 
ATOM     19  C   UNL     1       6.713   7.256  17.258  0.00  0.00    +0.000 A 
ATOM     20  C   UNL     1       7.778   7.087  18.141  0.00  0.00    +0.000 A 
ATOM     21  C   UNL     1       7.705   6.120  19.140  0.00  0.00    +0.000 A 
ATOM     22  C   UNL     1       6.572   5.313  19.250  0.00  0.00    +0.000 A 
ENDBRANCH   6  17
TORSDOF 4
ENDMDL
