MODEL 1
REMARK VINA RESULT:      -5.9      0.000      0.000
REMARK  Name = 
REMARK  3 active torsions:
REMARK  status: ('A' for Active; 'I' for Inactive)
REMARK    1  A    between atoms: C_2  and  C_3
REMARK    2  A    between atoms: C_6  and  O_7
REMARK    3  A    between atoms: O_7  and  C_8
REMARK                            x       y       z     vdW  Elec       q    Type
REMARK                         _______ _______ _______ _____ _____    ______ ____
ROOT
ATOM      1  C   UNL     1       5.839   4.686  18.024  0.00  0.00    +0.000 A 
ATOM      2  C   UNL     1       5.095   4.071  17.019  0.00  0.00    +0.000 A 
ATOM      3  C   UNL     1       3.726   3.874  17.204  0.00  0.00    +0.000 A 
ATOM      4  C   UNL     1       3.099   4.277  18.387  0.00  0.00    +0.000 A 
ATOM      5  C   UNL     1       3.844   4.936  19.367  0.00  0.00    +0.000 A 
ATOM      6  C   UNL     1       5.220   5.125  19.196  0.00  0.00    +0.000 A 
ENDROOT
BRANCH   1   8
ATOM      7  O   UNL     1       7.924   4.339  16.952  0.00  0.00    +0.000 OA
ATOM      8  C   UNL     1       7.295   4.884  17.851  0.00  0.00    +0.000 C 
ENDBRANCH   1   8
BRANCH   4   9
ATOM      9  O   UNL     1       1.759   4.039  18.431  0.00  0.00    +0.000 OA
BRANCH   9  10
ATOM     10  C   UNL     1       1.258   3.003  19.264  0.00  0.00    +0.000 C 
ATOM     11  F   UNL     1       2.192   2.123  19.682  0.00  0.00    +0.000 F 
ATOM     12  F   UNL     1       0.665   3.553  20.347  0.00  0.00    +0.000 F 
ATOM     13  F   UNL     1       0.320   2.315  18.576  0.00  0.00    +0.000 F 
ENDBRANCH   9  10
ENDBRANCH   4   9
TORSDOF 3
ENDMDL
MODEL 2
REMARK VINA RESULT:      -5.8      0.380      1.387
REMARK  Name = 
REMARK  3 active torsions:
REMARK  status: ('A' for Active; 'I' for Inactive)
REMARK    1  A    between atoms: C_2  and  C_3
REMARK    2  A    between atoms: C_6  and  O_7
REMARK    3  A    between atoms: O_7  and  C_8
REMARK                            x       y       z     vdW  Elec       q    Type
REMARK                         _______ _______ _______ _____ _____    ______ ____
ROOT
ATOM      1  C   UNL     1       5.849   4.551  17.826  0.00  0.00    +0.000 A 
ATOM      2  C   UNL     1       5.392   5.077  19.032  0.00  0.00    +0.000 A 
ATOM      3  C   UNL     1       4.032   5.010  19.336  0.00  0.00    +0.000 A 
ATOM      4  C   UNL     1       3.126   4.433  18.440  0.00  0.00    +0.000 A 
ATOM      5  C   UNL     1       3.602   3.866  17.256  0.00  0.00    +0.000 A 
ATOM      6  C   UNL     1       4.962   3.941  16.938  0.00  0.00    +0.000 A 
ENDROOT
BRANCH   1   8
ATOM      7  O   UNL     1       7.675   4.692  16.322  0.00  0.00    +0.000 OA
ATOM      8  C   UNL     1       7.286   4.632  17.481  0.00  0.00    +0.000 C 
ENDBRANCH   1   8
BRANCH   4   9
ATOM      9  O   UNL     1       1.833   4.420  18.866  0.00  0.00    +0.000 OA
BRANCH   9  10
ATOM     10  C   UNL     1       1.325   3.272  19.530  0.00  0.00    +0.000 C 
ATOM     11  F   UNL     1       2.270   2.392  19.924  0.00  0.00    +0.000 F 
ATOM     12  F   UNL     1       0.618   3.662  20.613  0.00  0.00    +0.000 F 
ATOM     13  F   UNL     1       0.485   2.627  18.690  0.00  0.00    +0.000 F 
ENDBRANCH   9  10
ENDBRANCH   4   9
TORSDOF 3
ENDMDL
MODEL 3
REMARK VINA RESULT:      -5.7      0.598      1.224
REMARK  Name = 
REMARK  3 active torsions:
REMARK  status: ('A' for Active; 'I' for Inactive)
REMARK    1  A    between atoms: C_2  and  C_3
REMARK    2  A    between atoms: C_6  and  O_7
REMARK    3  A    between atoms: O_7  and  C_8
REMARK                            x       y       z     vdW  Elec       q    Type
REMARK                         _______ _______ _______ _____ _____    ______ ____
ROOT
ATOM      1  C   UNL     1       5.575   4.564  17.484  0.00  0.00    +0.000 A 
ATOM      2  C   UNL     1       4.493   4.041  16.779  0.00  0.00    +0.000 A 
ATOM      3  C   UNL     1       3.240   3.984  17.390  0.00  0.00    +0.000 A 
ATOM      4  C   UNL     1       3.064   4.434  18.702  0.00  0.00    +0.000 A 
ATOM      5  C   UNL     1       4.143   5.002  19.382  0.00  0.00    +0.000 A 
ATOM      6  C   UNL     1       5.405   5.050  18.782  0.00  0.00    +0.000 A 
ENDROOT
BRANCH   1   8
ATOM      7  O   UNL     1       7.938   4.389  17.488  0.00  0.00    +0.000 OA
ATOM      8  C   UNL     1       6.913   4.613  16.856  0.00  0.00    +0.000 C 
ENDBRANCH   1   8
BRANCH   4   9
ATOM      9  O   UNL     1       1.789   4.335  19.172  0.00  0.00    +0.000 OA
BRANCH   9  10
ATOM     10  C   UNL     1       1.343   3.110  19.735  0.00  0.00    +0.000 C 
ATOM     11  F   UNL     1       0.406   2.470  19.005  0.00  0.00    +0.000 F 
ATOM     12  F   UNL     1       2.401   2.286  19.899  0.00  0.00    +0.000 F 
ATOM     13  F   UNL     1       0.816   3.365  20.954  0.00  0.00    +0.000 F 
ENDBRANCH   9  10
ENDBRANCH   4   9
TORSDOF 3
ENDMDL
MODEL 4
REMARK VINA RESULT:      -5.7      1.387      1.463
REMARK  Name = 
REMARK  3 active torsions:
REMARK  status: ('A' for Active; 'I' for Inactive)
REMARK    1  A    between atoms: C_2  and  C_3
REMARK    2  A    between atoms: C_6  and  O_7
REMARK    3  A    between atoms: O_7  and  C_8
REMARK                            x       y       z     vdW  Elec       q    Type
REMARK                         _______ _______ _______ _____ _____    ______ ____
ROOT
ATOM      1  C   UNL     1       4.826   5.901  17.466  0.00  0.00    +0.000 A 
ATOM      2  C   UNL     1       4.802   4.573  17.046  0.00  0.00    +0.000 A 
ATOM      3  C   UNL     1       3.621   3.840  17.161  0.00  0.00    +0.000 A 
ATOM      4  C   UNL     1       2.469   4.420  17.703  0.00  0.00    +0.000 A 
ATOM      5  C   UNL     1       2.490   5.765  18.075  0.00  0.00    +0.000 A 
ATOM      6  C   UNL     1       3.674   6.504  17.976  0.00  0.00    +0.000 A 
ENDROOT
BRANCH   1   8
ATOM      7  O   UNL     1       6.753   6.707  16.348  0.00  0.00    +0.000 OA
ATOM      8  C   UNL     1       6.076   6.686  17.368  0.00  0.00    +0.000 C 
ENDBRANCH   1   8
BRANCH   4   9
ATOM      9  O   UNL     1       1.384   3.599  17.744  0.00  0.00    +0.000 OA
BRANCH   9  10
ATOM     10  C   UNL     1       1.062   2.922  18.951  0.00  0.00    +0.000 C 
ATOM     11  F   UNL     1       2.099   2.268  19.516  0.00  0.00    +0.000 F 
ATOM     12  F   UNL     1       0.574   3.812  19.842  0.00  0.00    +0.000 F 
ATOM     13  F   UNL     1       0.094   2.015  18.690  0.00  0.00    +0.000 F 
ENDBRANCH   9  10
ENDBRANCH   4   9
TORSDOF 3
ENDMDL
MODEL 5
REMARK VINA RESULT:      -5.7      1.150      1.521
REMARK  Name = 
REMARK  3 active torsions:
REMARK  status: ('A' for Active; 'I' for Inactive)
REMARK    1  A    between atoms: C_2  and  C_3
REMARK    2  A    between atoms: C_6  and  O_7
REMARK    3  A    between atoms: O_7  and  C_8
REMARK                            x       y       z     vdW  Elec       q    Type
REMARK                         _______ _______ _______ _____ _____    ______ ____
ROOT
ATOM      1  C   UNL     1       5.365   5.435  17.277  0.00  0.00    +0.000 A 
ATOM      2  C   UNL     1       5.111   4.144  16.818  0.00  0.00    +0.000 A 
ATOM      3  C   UNL     1       3.828   3.611  16.952  0.00  0.00    +0.000 A 
ATOM      4  C   UNL     1       2.804   4.351  17.550  0.00  0.00    +0.000 A 
ATOM      5  C   UNL     1       3.057   5.661  17.962  0.00  0.00    +0.000 A 
ATOM      6  C   UNL     1       4.343   6.199  17.844  0.00  0.00    +0.000 A 
ENDROOT
BRANCH   1   8
ATOM      7  O   UNL     1       7.331   6.031  16.096  0.00  0.00    +0.000 OA
ATOM      8  C   UNL     1       6.724   6.007  17.160  0.00  0.00    +0.000 C 
ENDBRANCH   1   8
BRANCH   4   9
ATOM      9  O   UNL     1       1.600   3.718  17.604  0.00  0.00    +0.000 OA
BRANCH   9  10
ATOM     10  C   UNL     1       1.201   3.071  18.805  0.00  0.00    +0.000 C 
ATOM     11  F   UNL     1       0.236   2.143  18.643  0.00  0.00    +0.000 F 
ATOM     12  F   UNL     1       2.278   2.483  19.371  0.00  0.00    +0.000 F 
ATOM     13  F   UNL     1       0.735   4.008  19.661  0.00  0.00    +0.000 F 
ENDBRANCH   9  10
ENDBRANCH   4   9
TORSDOF 3
ENDMDL
MODEL 6
REMARK VINA RESULT:      -5.7      1.133      2.034
REMARK  Name = 
REMARK  3 active torsions:
REMARK  status: ('A' for Active; 'I' for Inactive)
REMARK    1  A    between atoms: C_2  and  C_3
REMARK    2  A    between atoms: C_6  and  O_7
REMARK    3  A    between atoms: O_7  and  C_8
REMARK                            x       y       z     vdW  Elec       q    Type
REMARK                         _______ _______ _______ _____ _____    ______ ____
ROOT
ATOM      1  C   UNL     1       5.802   5.326  17.730  0.00  0.00    +0.000 A 
ATOM      2  C   UNL     1       5.292   5.324  19.027  0.00  0.00    +0.000 A 
ATOM      3  C   UNL     1       4.211   4.498  19.334  0.00  0.00    +0.000 A 
ATOM      4  C   UNL     1       3.629   3.686  18.356  0.00  0.00    +0.000 A 
ATOM      5  C   UNL     1       4.179   3.659  17.073  0.00  0.00    +0.000 A 
ATOM      6  C   UNL     1       5.255   4.494  16.752  0.00  0.00    +0.000 A 
ENDROOT
BRANCH   1   8
ATOM      7  O   UNL     1       7.465   6.190  16.279  0.00  0.00    +0.000 OA
ATOM      8  C   UNL     1       6.937   6.211  17.383  0.00  0.00    +0.000 C 
ENDBRANCH   1   8
BRANCH   4   9
ATOM      9  O   UNL     1       2.591   2.921  18.794  0.00  0.00    +0.000 OA
BRANCH   9  10
ATOM     10  C   UNL     1       1.262   3.406  18.672  0.00  0.00    +0.000 C 
ATOM     11  F   UNL     1       1.070   4.250  17.636  0.00  0.00    +0.000 F 
ATOM     12  F   UNL     1       0.418   2.359  18.540  0.00  0.00    +0.000 F 
ATOM     13  F   UNL     1       0.940   4.066  19.807  0.00  0.00    +0.000 F 
ENDBRANCH   9  10
ENDBRANCH   4   9
TORSDOF 3
ENDMDL
MODEL 7
REMARK VINA RESULT:      -5.6      1.824      2.470
REMARK  Name = 
REMARK  3 active torsions:
REMARK  status: ('A' for Active; 'I' for Inactive)
REMARK    1  A    between atoms: C_2  and  C_3
REMARK    2  A    between atoms: C_6  and  O_7
REMARK    3  A    between atoms: O_7  and  C_8
REMARK                            x       y       z     vdW  Elec       q    Type
REMARK                         _______ _______ _______ _____ _____    ______ ____
ROOT
ATOM      1  C   UNL     1       4.661   5.053  16.966  0.00  0.00    +0.000 A 
ATOM      2  C   UNL     1       4.385   5.891  18.045  0.00  0.00    +0.000 A 
ATOM      3  C   UNL     1       3.742   5.370  19.168  0.00  0.00    +0.000 A 
ATOM      4  C   UNL     1       3.365   4.025  19.218  0.00  0.00    +0.000 A 
ATOM      5  C   UNL     1       3.690   3.183  18.152  0.00  0.00    +0.000 A 
ATOM      6  C   UNL     1       4.322   3.700  17.016  0.00  0.00    +0.000 A 
ENDROOT
BRANCH   1   8
ATOM      7  O   UNL     1       5.287   6.785  15.475  0.00  0.00    +0.000 OA
ATOM      8  C   UNL     1       5.324   5.594  15.760  0.00  0.00    +0.000 C 
ENDBRANCH   1   8
BRANCH   4   9
ATOM      9  O   UNL     1       2.759   3.646  20.377  0.00  0.00    +0.000 OA
BRANCH   9  10
ATOM     10  C   UNL     1       1.349   3.760  20.502  0.00  0.00    +0.000 C 
ATOM     11  F   UNL     1       0.909   5.019  20.709  0.00  0.00    +0.000 F 
ATOM     12  F   UNL     1       0.764   3.275  19.385  0.00  0.00    +0.000 F 
ATOM     13  F   UNL     1       0.948   3.004  21.548  0.00  0.00    +0.000 F 
ENDBRANCH   9  10
ENDBRANCH   4   9
TORSDOF 3
ENDMDL
MODEL 8
REMARK VINA RESULT:      -5.6      1.143      1.858
REMARK  Name = 
REMARK  3 active torsions:
REMARK  status: ('A' for Active; 'I' for Inactive)
REMARK    1  A    between atoms: C_2  and  C_3
REMARK    2  A    between atoms: C_6  and  O_7
REMARK    3  A    between atoms: O_7  and  C_8
REMARK                            x       y       z     vdW  Elec       q    Type
REMARK                         _______ _______ _______ _____ _____    ______ ____
ROOT
ATOM      1  C   UNL     1       5.615   5.423  17.631  0.00  0.00    +0.000 A 
ATOM      2  C   UNL     1       5.196   5.338  18.957  0.00  0.00    +0.000 A 
ATOM      3  C   UNL     1       4.170   4.456  19.296  0.00  0.00    +0.000 A 
ATOM      4  C   UNL     1       3.554   3.667  18.320  0.00  0.00    +0.000 A 
ATOM      5  C   UNL     1       4.014   3.723  17.003  0.00  0.00    +0.000 A 
ATOM      6  C   UNL     1       5.033   4.616  16.652  0.00  0.00    +0.000 A 
ENDROOT
BRANCH   1   8
ATOM      7  O   UNL     1       7.407   6.182  16.279  0.00  0.00    +0.000 OA
ATOM      8  C   UNL     1       6.689   6.368  17.253  0.00  0.00    +0.000 C 
ENDBRANCH   1   8
BRANCH   4   9
ATOM      9  O   UNL     1       2.578   2.841  18.788  0.00  0.00    +0.000 OA
BRANCH   9  10
ATOM     10  C   UNL     1       1.226   3.277  18.779  0.00  0.00    +0.000 C 
ATOM     11  F   UNL     1       0.326   2.295  18.563  0.00  0.00    +0.000 F 
ATOM     12  F   UNL     1       0.944   3.871  19.959  0.00  0.00    +0.000 F 
ATOM     13  F   UNL     1       1.078   4.197  17.800  0.00  0.00    +0.000 F 
ENDBRANCH   9  10
ENDBRANCH   4   9
TORSDOF 3
ENDMDL
MODEL 9
REMARK VINA RESULT:      -5.6      1.101      1.189
REMARK  Name = 
REMARK  3 active torsions:
REMARK  status: ('A' for Active; 'I' for Inactive)
REMARK    1  A    between atoms: C_2  and  C_3
REMARK    2  A    between atoms: C_6  and  O_7
REMARK    3  A    between atoms: O_7  and  C_8
REMARK                            x       y       z     vdW  Elec       q    Type
REMARK                         _______ _______ _______ _____ _____    ______ ____
ROOT
ATOM      1  C   UNL     1       5.511   4.484  17.503  0.00  0.00    +0.000 A 
ATOM      2  C   UNL     1       4.572   3.882  16.668  0.00  0.00    +0.000 A 
ATOM      3  C   UNL     1       3.533   3.140  17.230  0.00  0.00    +0.000 A 
ATOM      4  C   UNL     1       3.433   2.985  18.616  0.00  0.00    +0.000 A 
ATOM      5  C   UNL     1       4.351   3.633  19.446  0.00  0.00    +0.000 A 
ATOM      6  C   UNL     1       5.404   4.367  18.890  0.00  0.00    +0.000 A 
ENDROOT
BRANCH   1   8
ATOM      7  O   UNL     1       7.636   4.717  16.480  0.00  0.00    +0.000 OA
ATOM      8  C   UNL     1       6.630   5.258  16.921  0.00  0.00    +0.000 C 
ENDBRANCH   1   8
BRANCH   4   9
ATOM      9  O   UNL     1       2.365   2.250  19.032  0.00  0.00    +0.000 OA
BRANCH   9  10
ATOM     10  C   UNL     1       1.121   2.893  19.273  0.00  0.00    +0.000 C 
ATOM     11  F   UNL     1       0.766   2.948  20.574  0.00  0.00    +0.000 F 
ATOM     12  F   UNL     1       1.171   4.151  18.784  0.00  0.00    +0.000 F 
ATOM     13  F   UNL     1       0.155   2.221  18.608  0.00  0.00    +0.000 F 
ENDBRANCH   9  10
ENDBRANCH   4   9
TORSDOF 3
ENDMDL
