MODEL 1
REMARK VINA RESULT:      -7.9      0.000      0.000
REMARK  Name = 
REMARK  2 active torsions:
REMARK  status: ('A' for Active; 'I' for Inactive)
REMARK    1  A    between atoms: N_1  and  C_2
REMARK    2  A    between atoms: C_4  and  C_5
REMARK                            x       y       z     vdW  Elec       q    Type
REMARK                         _______ _______ _______ _____ _____    ______ ____
ROOT
ATOM      1  C   UNL     1       4.432   3.589  19.082  0.00  0.00    +0.000 A 
ATOM      2  C   UNL     1       5.154   4.127  18.017  0.00  0.00    +0.000 A 
ATOM      3  C   UNL     1       4.939   5.428  17.515  0.00  0.00    +0.000 A 
ATOM      4  C   UNL     1       3.955   6.242  18.118  0.00  0.00    +0.000 A 
ATOM      5  N   UNL     1       3.618   7.567  17.753  0.00  0.00    +0.000 NA
ATOM      6  C   UNL     1       2.640   8.026  18.499  0.00  0.00    +0.000 A 
ATOM      7  N   UNL     1       1.900   9.204  18.409  0.00  0.00    +0.000 N 
ATOM      8  C   UNL     1       0.631   9.069  19.138  0.00  0.00    +0.000 C 
ATOM      9  C   UNL     1      -0.250  10.238  19.275  0.00  0.00    +0.000 C 
ATOM     10  C   UNL     1       0.556  11.429  19.378  0.00  0.00    +0.000 A 
ATOM     11  C   UNL     1       1.587  11.742  18.537  0.00  0.00    +0.000 A 
ATOM     12  N   UNL     1       1.494  13.171  18.581  0.00  0.00    +0.000 N 
ATOM     13  C   UNL     1       0.687  13.532  19.710  0.00  0.00    +0.000 A 
ATOM     14  C   UNL     1       0.015  14.683  20.235  0.00  0.00    +0.000 A 
ATOM     15  C   UNL     1      -0.766  14.505  21.431  0.00  0.00    +0.000 A 
ATOM     16  C   UNL     1      -0.781  13.299  22.134  0.00  0.00    +0.000 A 
ATOM     17 CL   UNL     1      -1.795  13.020  23.497  0.00  0.00    +0.000 Cl
ATOM     18  C   UNL     1      -0.082  12.218  21.649  0.00  0.00    +0.000 A 
ATOM     19  C   UNL     1       0.500  12.355  20.390  0.00  0.00    +0.000 A 
ATOM     20  C   UNL     1       2.280  10.569  17.787  0.00  0.00    +0.000 C 
ATOM     21  S   UNL     1       2.175   6.820  19.743  0.00  0.00    +0.000 S 
ATOM     22  C   UNL     1       3.264   5.683  19.182  0.00  0.00    +0.000 A 
ATOM     23  C   UNL     1       3.480   4.389  19.694  0.00  0.00    +0.000 A 
ATOM     24  H   UNL     1       1.843  13.826  17.895  0.00  0.00    +0.000 HD
ENDROOT
BRANCH   3  25
ATOM     25  C   UNL     1       5.701   5.950  16.343  0.00  0.00    +0.000 C 
ATOM     26  F   UNL     1       6.500   7.009  16.669  0.00  0.00    +0.000 F 
ATOM     27  F   UNL     1       6.534   5.029  15.796  0.00  0.00    +0.000 F 
ATOM     28  F   UNL     1       4.898   6.400  15.338  0.00  0.00    +0.000 F 
ENDBRANCH   3  25
BRANCH   1  29
ATOM     29  N   UNL     1       4.827   2.387  19.671  0.00  0.00    +0.000 N 
ATOM     30  H   UNL     1       5.223   2.470  20.601  0.00  0.00    +0.000 HD
ATOM     31  H   UNL     1       5.355   1.755  19.076  0.00  0.00    +0.000 HD
ENDBRANCH   1  29
TORSDOF 2
ENDMDL
MODEL 2
REMARK VINA RESULT:      -7.8      1.887      2.380
REMARK  Name = 
REMARK  2 active torsions:
REMARK  status: ('A' for Active; 'I' for Inactive)
REMARK    1  A    between atoms: N_1  and  C_2
REMARK    2  A    between atoms: C_4  and  C_5
REMARK                            x       y       z     vdW  Elec       q    Type
REMARK                         _______ _______ _______ _____ _____    ______ ____
ROOT
ATOM      1  C   UNL     1       2.436   3.235  21.013  0.00  0.00    +0.000 A 
ATOM      2  C   UNL     1       3.004   3.121  19.746  0.00  0.00    +0.000 A 
ATOM      3  C   UNL     1       3.092   4.198  18.837  0.00  0.00    +0.000 A 
ATOM      4  C   UNL     1       2.596   5.462  19.223  0.00  0.00    +0.000 A 
ATOM      5  N   UNL     1       2.614   6.647  18.448  0.00  0.00    +0.000 NA
ATOM      6  C   UNL     1       2.045   7.639  19.093  0.00  0.00    +0.000 A 
ATOM      7  N   UNL     1       1.716   8.928  18.676  0.00  0.00    +0.000 N 
ATOM      8  C   UNL     1       0.691   9.505  19.556  0.00  0.00    +0.000 C 
ATOM      9  C   UNL     1       0.285  10.906  19.368  0.00  0.00    +0.000 C 
ATOM     10  C   UNL     1       1.424  11.674  18.932  0.00  0.00    +0.000 A 
ATOM     11  C   UNL     1       2.260  11.311  17.915  0.00  0.00    +0.000 A 
ATOM     12  N   UNL     1       2.635  12.614  17.450  0.00  0.00    +0.000 N 
ATOM     13  C   UNL     1       2.288  13.567  18.463  0.00  0.00    +0.000 A 
ATOM     14  C   UNL     1       2.163  14.986  18.614  0.00  0.00    +0.000 A 
ATOM     15  C   UNL     1       1.687  15.477  19.881  0.00  0.00    +0.000 A 
ATOM     16  C   UNL     1       1.466  14.629  20.969  0.00  0.00    +0.000 A 
ATOM     17 CL   UNL     1       0.785  15.169  22.455  0.00  0.00    +0.000 Cl
ATOM     18  C   UNL     1       1.647  13.274  20.825  0.00  0.00    +0.000 A 
ATOM     19  C   UNL     1       1.913  12.804  19.540  0.00  0.00    +0.000 A 
ATOM     20  C   UNL     1       2.341   9.799  17.560  0.00  0.00    +0.000 C 
ATOM     21  S   UNL     1       1.546   7.121  20.736  0.00  0.00    +0.000 S 
ATOM     22  C   UNL     1       2.048   5.545  20.493  0.00  0.00    +0.000 A 
ATOM     23  C   UNL     1       1.965   4.478  21.408  0.00  0.00    +0.000 A 
ATOM     24  H   UNL     1       2.992  12.855  16.535  0.00  0.00    +0.000 HD
ENDROOT
BRANCH   3  25
ATOM     25  C   UNL     1       3.666   4.024  17.471  0.00  0.00    +0.000 C 
ATOM     26  F   UNL     1       4.396   2.876  17.353  0.00  0.00    +0.000 F 
ATOM     27  F   UNL     1       2.720   3.947  16.501  0.00  0.00    +0.000 F 
ATOM     28  F   UNL     1       4.514   5.030  17.114  0.00  0.00    +0.000 F 
ENDBRANCH   3  25
BRANCH   1  29
ATOM     29  N   UNL     1       2.563   2.203  21.944  0.00  0.00    +0.000 N 
ATOM     30  H   UNL     1       3.291   2.333  22.638  0.00  0.00    +0.000 HD
ATOM     31  H   UNL     1       2.550   1.260  21.563  0.00  0.00    +0.000 HD
ENDBRANCH   1  29
TORSDOF 2
ENDMDL
MODEL 3
REMARK VINA RESULT:      -7.4      4.904      9.372
REMARK  Name = 
REMARK  2 active torsions:
REMARK  status: ('A' for Active; 'I' for Inactive)
REMARK    1  A    between atoms: N_1  and  C_2
REMARK    2  A    between atoms: C_4  and  C_5
REMARK                            x       y       z     vdW  Elec       q    Type
REMARK                         _______ _______ _______ _____ _____    ______ ____
ROOT
ATOM      1  C   UNL     1       0.093  14.954  20.101  0.00  0.00    +0.000 A 
ATOM      2  C   UNL     1      -0.537  14.428  21.228  0.00  0.00    +0.000 A 
ATOM      3  C   UNL     1      -0.513  13.057  21.560  0.00  0.00    +0.000 A 
ATOM      4  C   UNL     1       0.191  12.162  20.725  0.00  0.00    +0.000 A 
ATOM      5  N   UNL     1       0.329  10.765  20.912  0.00  0.00    +0.000 NA
ATOM      6  C   UNL     1       1.022  10.227  19.936  0.00  0.00    +0.000 A 
ATOM      7  N   UNL     1       1.284   8.892  19.633  0.00  0.00    +0.000 N 
ATOM      8  C   UNL     1       1.680   8.754  18.225  0.00  0.00    +0.000 C 
ATOM      9  C   UNL     1       2.120   7.443  17.724  0.00  0.00    +0.000 C 
ATOM     10  C   UNL     1       2.816   6.744  18.775  0.00  0.00    +0.000 A 
ATOM     11  C   UNL     1       2.351   6.602  20.052  0.00  0.00    +0.000 A 
ATOM     12  N   UNL     1       2.939   5.335  20.371  0.00  0.00    +0.000 N 
ATOM     13  C   UNL     1       3.969   5.065  19.411  0.00  0.00    +0.000 A 
ATOM     14  C   UNL     1       4.787   3.970  18.981  0.00  0.00    +0.000 A 
ATOM     15  C   UNL     1       5.669   4.201  17.866  0.00  0.00    +0.000 A 
ATOM     16  C   UNL     1       5.824   5.465  17.294  0.00  0.00    +0.000 A 
ATOM     17 CL   UNL     1       6.778   5.746  15.889  0.00  0.00    +0.000 Cl
ATOM     18  C   UNL     1       5.075   6.521  17.756  0.00  0.00    +0.000 A 
ATOM     19  C   UNL     1       4.088   6.231  18.696  0.00  0.00    +0.000 A 
ATOM     20  C   UNL     1       1.324   7.653  20.561  0.00  0.00    +0.000 C 
ATOM     21  S   UNL     1       1.593  11.488  18.796  0.00  0.00    +0.000 S 
ATOM     22  C   UNL     1       0.817  12.717  19.619  0.00  0.00    +0.000 A 
ATOM     23  C   UNL     1       0.805  14.085  19.288  0.00  0.00    +0.000 A 
ATOM     24  H   UNL     1       2.636   4.683  21.082  0.00  0.00    +0.000 HD
ENDROOT
BRANCH   3  25
ATOM     25  C   UNL     1      -1.239  12.527  22.750  0.00  0.00    +0.000 C 
ATOM     26  F   UNL     1      -1.315  13.437  23.766  0.00  0.00    +0.000 F 
ATOM     27  F   UNL     1      -2.526  12.185  22.481  0.00  0.00    +0.000 F 
ATOM     28  F   UNL     1      -0.646  11.427  23.295  0.00  0.00    +0.000 F 
ENDBRANCH   3  25
BRANCH   1  29
ATOM     29  N   UNL     1       0.216  16.334  19.935  0.00  0.00    +0.000 N 
ATOM     30  H   UNL     1       0.697  16.628  19.092  0.00  0.00    +0.000 HD
ATOM     31  H   UNL     1       0.513  16.854  20.757  0.00  0.00    +0.000 HD
ENDBRANCH   1  29
TORSDOF 2
ENDMDL
MODEL 4
REMARK VINA RESULT:      -7.2      8.289      9.501
REMARK  Name = 
REMARK  2 active torsions:
REMARK  status: ('A' for Active; 'I' for Inactive)
REMARK    1  A    between atoms: N_1  and  C_2
REMARK    2  A    between atoms: C_4  and  C_5
REMARK                            x       y       z     vdW  Elec       q    Type
REMARK                         _______ _______ _______ _____ _____    ______ ____
ROOT
ATOM      1  C   UNL     1      10.278  15.299  17.776  0.00  0.00    +0.000 A 
ATOM      2  C   UNL     1      10.393  13.929  17.543  0.00  0.00    +0.000 A 
ATOM      3  C   UNL     1      10.051  12.949  18.499  0.00  0.00    +0.000 A 
ATOM      4  C   UNL     1       9.554  13.362  19.755  0.00  0.00    +0.000 A 
ATOM      5  N   UNL     1       9.153  12.521  20.821  0.00  0.00    +0.000 NA
ATOM      6  C   UNL     1       8.768  13.227  21.858  0.00  0.00    +0.000 A 
ATOM      7  N   UNL     1       8.431  12.836  23.152  0.00  0.00    +0.000 N 
ATOM      8  C   UNL     1       8.531  13.976  24.074  0.00  0.00    +0.000 C 
ATOM      9  C   UNL     1       8.101  13.813  25.472  0.00  0.00    +0.000 C 
ATOM     10  C   UNL     1       6.988  12.899  25.521  0.00  0.00    +0.000 A 
ATOM     11  C   UNL     1       6.956  11.683  24.899  0.00  0.00    +0.000 A 
ATOM     12  N   UNL     1       6.111  10.978  25.816  0.00  0.00    +0.000 N 
ATOM     13  C   UNL     1       5.449  11.942  26.647  0.00  0.00    +0.000 A 
ATOM     14  C   UNL     1       4.677  11.982  27.853  0.00  0.00    +0.000 A 
ATOM     15  C   UNL     1       4.281  13.277  28.342  0.00  0.00    +0.000 A 
ATOM     16  C   UNL     1       4.524  14.448  27.621  0.00  0.00    +0.000 A 
ATOM     17 CL   UNL     1       4.169  16.017  28.234  0.00  0.00    +0.000 Cl
ATOM     18  C   UNL     1       5.215  14.387  26.434  0.00  0.00    +0.000 A 
ATOM     19  C   UNL     1       5.761  13.154  26.083  0.00  0.00    +0.000 A 
ATOM     20  C   UNL     1       7.888  11.483  23.670  0.00  0.00    +0.000 C 
ATOM     21  S   UNL     1       8.823  14.980  21.484  0.00  0.00    +0.000 S 
ATOM     22  C   UNL     1       9.441  14.730  19.951  0.00  0.00    +0.000 A 
ATOM     23  C   UNL     1       9.772  15.712  18.998  0.00  0.00    +0.000 A 
ATOM     24  H   UNL     1       6.048   9.977  25.942  0.00  0.00    +0.000 HD
ENDROOT
BRANCH   3  25
ATOM     25  C   UNL     1      10.232  11.494  18.228  0.00  0.00    +0.000 C 
ATOM     26  F   UNL     1      10.940  10.862  19.210  0.00  0.00    +0.000 F 
ATOM     27  F   UNL     1       9.058  10.817  18.143  0.00  0.00    +0.000 F 
ATOM     28  F   UNL     1      10.913  11.244  17.074  0.00  0.00    +0.000 F 
ENDBRANCH   3  25
BRANCH   1  29
ATOM     29  N   UNL     1      10.429  16.212  16.731  0.00  0.00    +0.000 N 
ATOM     30  H   UNL     1      11.122  15.962  16.034  0.00  0.00    +0.000 HD
ATOM     31  H   UNL     1      10.482  17.190  17.002  0.00  0.00    +0.000 HD
ENDBRANCH   1  29
TORSDOF 2
ENDMDL
MODEL 5
REMARK VINA RESULT:      -7.1      5.019      9.464
REMARK  Name = 
REMARK  2 active torsions:
REMARK  status: ('A' for Active; 'I' for Inactive)
REMARK    1  A    between atoms: N_1  and  C_2
REMARK    2  A    between atoms: C_4  and  C_5
REMARK                            x       y       z     vdW  Elec       q    Type
REMARK                         _______ _______ _______ _____ _____    ______ ____
ROOT
ATOM      1  C   UNL     1       1.247  16.346  19.424  0.00  0.00    +0.000 A 
ATOM      2  C   UNL     1       0.580  16.049  20.611  0.00  0.00    +0.000 A 
ATOM      3  C   UNL     1       0.347  14.732  21.061  0.00  0.00    +0.000 A 
ATOM      4  C   UNL     1       0.820  13.650  20.285  0.00  0.00    +0.000 A 
ATOM      5  N   UNL     1       0.687  12.274  20.589  0.00  0.00    +0.000 NA
ATOM      6  C   UNL     1       1.212  11.531  19.642  0.00  0.00    +0.000 A 
ATOM      7  N   UNL     1       1.189  10.151  19.448  0.00  0.00    +0.000 N 
ATOM      8  C   UNL     1       1.482   9.826  18.046  0.00  0.00    +0.000 C 
ATOM      9  C   UNL     1       1.629   8.417  17.648  0.00  0.00    +0.000 C 
ATOM     10  C   UNL     1       2.223   7.678  18.733  0.00  0.00    +0.000 A 
ATOM     11  C   UNL     1       1.800   7.734  20.031  0.00  0.00    +0.000 A 
ATOM     12  N   UNL     1       2.141   6.403  20.441  0.00  0.00    +0.000 N 
ATOM     13  C   UNL     1       3.050   5.857  19.476  0.00  0.00    +0.000 A 
ATOM     14  C   UNL     1       3.612   4.590  19.118  0.00  0.00    +0.000 A 
ATOM     15  C   UNL     1       4.468   4.549  17.960  0.00  0.00    +0.000 A 
ATOM     16  C   UNL     1       4.843   5.706  17.275  0.00  0.00    +0.000 A 
ATOM     17 CL   UNL     1       5.766   5.678  15.822  0.00  0.00    +0.000 Cl
ATOM     18  C   UNL     1       4.342   6.925  17.668  0.00  0.00    +0.000 A 
ATOM     19  C   UNL     1       3.362   6.915  18.659  0.00  0.00    +0.000 A 
ATOM     20  C   UNL     1       1.028   9.007  20.478  0.00  0.00    +0.000 C 
ATOM     21  S   UNL     1       1.966  12.557  18.379  0.00  0.00    +0.000 S 
ATOM     22  C   UNL     1       1.489  13.979  19.116  0.00  0.00    +0.000 A 
ATOM     23  C   UNL     1       1.732  15.291  18.668  0.00  0.00    +0.000 A 
ATOM     24  H   UNL     1       1.749   5.885  21.215  0.00  0.00    +0.000 HD
ENDROOT
BRANCH   3  25
ATOM     25  C   UNL     1      -0.411  14.455  22.315  0.00  0.00    +0.000 C 
ATOM     26  F   UNL     1      -1.761  14.578  22.148  0.00  0.00    +0.000 F 
ATOM     27  F   UNL     1      -0.224  13.194  22.784  0.00  0.00    +0.000 F 
ATOM     28  F   UNL     1      -0.093  15.304  23.333  0.00  0.00    +0.000 F 
ENDBRANCH   3  25
BRANCH   1  29
ATOM     29  N   UNL     1       1.632  17.656  19.135  0.00  0.00    +0.000 N 
ATOM     30  H   UNL     1       2.627  17.793  18.990  0.00  0.00    +0.000 HD
ATOM     31  H   UNL     1       1.220  18.378  19.720  0.00  0.00    +0.000 HD
ENDBRANCH   1  29
TORSDOF 2
ENDMDL
MODEL 6
REMARK VINA RESULT:      -7.1      4.904      9.344
REMARK  Name = 
REMARK  2 active torsions:
REMARK  status: ('A' for Active; 'I' for Inactive)
REMARK    1  A    between atoms: N_1  and  C_2
REMARK    2  A    between atoms: C_4  and  C_5
REMARK                            x       y       z     vdW  Elec       q    Type
REMARK                         _______ _______ _______ _____ _____    ______ ____
ROOT
ATOM      1  C   UNL     1       1.344  15.794  18.925  0.00  0.00    +0.000 A 
ATOM      2  C   UNL     1       0.510  15.532  20.010  0.00  0.00    +0.000 A 
ATOM      3  C   UNL     1       0.234  14.229  20.478  0.00  0.00    +0.000 A 
ATOM      4  C   UNL     1       0.836  13.127  19.832  0.00  0.00    +0.000 A 
ATOM      5  N   UNL     1       0.681  11.762  20.174  0.00  0.00    +0.000 NA
ATOM      6  C   UNL     1       1.356  10.993  19.352  0.00  0.00    +0.000 A 
ATOM      7  N   UNL     1       1.385   9.605  19.219  0.00  0.00    +0.000 N 
ATOM      8  C   UNL     1       1.893   9.228  17.893  0.00  0.00    +0.000 C 
ATOM      9  C   UNL     1       2.121   7.808  17.585  0.00  0.00    +0.000 C 
ATOM     10  C   UNL     1       2.556   7.129  18.780  0.00  0.00    +0.000 A 
ATOM     11  C   UNL     1       1.940   7.229  19.995  0.00  0.00    +0.000 A 
ATOM     12  N   UNL     1       2.236   5.926  20.512  0.00  0.00    +0.000 N 
ATOM     13  C   UNL     1       3.290   5.360  19.720  0.00  0.00    +0.000 A 
ATOM     14  C   UNL     1       3.921   4.092  19.508  0.00  0.00    +0.000 A 
ATOM     15  C   UNL     1       4.943   4.022  18.495  0.00  0.00    +0.000 A 
ATOM     16  C   UNL     1       5.398   5.158  17.823  0.00  0.00    +0.000 A 
ATOM     17 CL   UNL     1       6.530   5.090  16.528  0.00  0.00    +0.000 Cl
ATOM     18  C   UNL     1       4.823   6.380  18.080  0.00  0.00    +0.000 A 
ATOM     19  C   UNL     1       3.705   6.390  18.913  0.00  0.00    +0.000 A 
ATOM     20  C   UNL     1       1.088   8.503  20.263  0.00  0.00    +0.000 C 
ATOM     21  S   UNL     1       2.275  11.982  18.172  0.00  0.00    +0.000 S 
ATOM     22  C   UNL     1       1.669  13.422  18.764  0.00  0.00    +0.000 A 
ATOM     23  C   UNL     1       1.956  14.719  18.298  0.00  0.00    +0.000 A 
ATOM     24  H   UNL     1       1.740   5.431  21.240  0.00  0.00    +0.000 HD
ENDROOT
BRANCH   3  25
ATOM     25  C   UNL     1      -0.701  13.988  21.615  0.00  0.00    +0.000 C 
ATOM     26  F   UNL     1      -0.116  13.295  22.636  0.00  0.00    +0.000 F 
ATOM     27  F   UNL     1      -1.162  15.134  22.179  0.00  0.00    +0.000 F 
ATOM     28  F   UNL     1      -1.796  13.256  21.263  0.00  0.00    +0.000 F 
ENDBRANCH   3  25
BRANCH   1  29
ATOM     29  N   UNL     1       1.748  17.099  18.639  0.00  0.00    +0.000 N 
ATOM     30  H   UNL     1       2.731  17.292  18.793  0.00  0.00    +0.000 HD
ATOM     31  H   UNL     1       1.144  17.836  18.992  0.00  0.00    +0.000 HD
ENDBRANCH   1  29
TORSDOF 2
ENDMDL
MODEL 7
REMARK VINA RESULT:      -6.9      3.369      4.136
REMARK  Name = 
REMARK  2 active torsions:
REMARK  status: ('A' for Active; 'I' for Inactive)
REMARK    1  A    between atoms: N_1  and  C_2
REMARK    2  A    between atoms: C_4  and  C_5
REMARK                            x       y       z     vdW  Elec       q    Type
REMARK                         _______ _______ _______ _____ _____    ______ ____
ROOT
ATOM      1  C   UNL     1       3.610   4.800  17.621  0.00  0.00    +0.000 A 
ATOM      2  C   UNL     1       3.142   4.009  18.670  0.00  0.00    +0.000 A 
ATOM      3  C   UNL     1       2.437   4.529  19.777  0.00  0.00    +0.000 A 
ATOM      4  C   UNL     1       2.175   5.915  19.833  0.00  0.00    +0.000 A 
ATOM      5  N   UNL     1       1.476   6.600  20.856  0.00  0.00    +0.000 NA
ATOM      6  C   UNL     1       1.436   7.890  20.615  0.00  0.00    +0.000 A 
ATOM      7  N   UNL     1       0.985   8.950  21.400  0.00  0.00    +0.000 N 
ATOM      8  C   UNL     1       1.564  10.217  20.931  0.00  0.00    +0.000 C 
ATOM      9  C   UNL     1       1.126  11.480  21.543  0.00  0.00    +0.000 C 
ATOM     10  C   UNL     1      -0.266  11.375  21.903  0.00  0.00    +0.000 A 
ATOM     11  C   UNL     1      -0.810  10.330  22.595  0.00  0.00    +0.000 A 
ATOM     12  N   UNL     1      -1.858  11.028  23.279  0.00  0.00    +0.000 N 
ATOM     13  C   UNL     1      -2.046  12.295  22.633  0.00  0.00    +0.000 A 
ATOM     14  C   UNL     1      -2.714  13.540  22.869  0.00  0.00    +0.000 A 
ATOM     15  C   UNL     1      -2.528  14.585  21.896  0.00  0.00    +0.000 A 
ATOM     16  C   UNL     1      -1.831  14.373  20.705  0.00  0.00    +0.000 A 
ATOM     17 CL   UNL     1      -1.492  15.632  19.581  0.00  0.00    +0.000 Cl
ATOM     18  C   UNL     1      -1.245  13.153  20.465  0.00  0.00    +0.000 A 
ATOM     19  C   UNL     1      -1.267  12.226  21.505  0.00  0.00    +0.000 A 
ATOM     20  C   UNL     1      -0.064   8.967  22.537  0.00  0.00    +0.000 C 
ATOM     21  S   UNL     1       2.209   8.263  19.040  0.00  0.00    +0.000 S 
ATOM     22  C   UNL     1       2.644   6.672  18.770  0.00  0.00    +0.000 A 
ATOM     23  C   UNL     1       3.339   6.159  17.659  0.00  0.00    +0.000 A 
ATOM     24  H   UNL     1      -2.329  10.743  24.126  0.00  0.00    +0.000 HD
ENDROOT
BRANCH   3  25
ATOM     25  C   UNL     1       1.992   3.655  20.901  0.00  0.00    +0.000 C 
ATOM     26  F   UNL     1       2.449   2.374  20.781  0.00  0.00    +0.000 F 
ATOM     27  F   UNL     1       2.435   4.079  22.113  0.00  0.00    +0.000 F 
ATOM     28  F   UNL     1       0.637   3.548  20.994  0.00  0.00    +0.000 F 
ENDBRANCH   3  25
BRANCH   1  29
ATOM     29  N   UNL     1       4.111   4.213  16.459  0.00  0.00    +0.000 N 
ATOM     30  H   UNL     1       4.452   4.862  15.758  0.00  0.00    +0.000 HD
ATOM     31  H   UNL     1       3.545   3.469  16.059  0.00  0.00    +0.000 HD
ENDBRANCH   1  29
TORSDOF 2
ENDMDL
MODEL 8
REMARK VINA RESULT:      -6.9      7.491      8.373
REMARK  Name = 
REMARK  2 active torsions:
REMARK  status: ('A' for Active; 'I' for Inactive)
REMARK    1  A    between atoms: N_1  and  C_2
REMARK    2  A    between atoms: C_4  and  C_5
REMARK                            x       y       z     vdW  Elec       q    Type
REMARK                         _______ _______ _______ _____ _____    ______ ____
ROOT
ATOM      1  C   UNL     1      11.432  13.490  17.128  0.00  0.00    +0.000 A 
ATOM      2  C   UNL     1      11.487  12.758  18.313  0.00  0.00    +0.000 A 
ATOM      3  C   UNL     1      10.489  12.820  19.309  0.00  0.00    +0.000 A 
ATOM      4  C   UNL     1       9.366  13.651  19.102  0.00  0.00    +0.000 A 
ATOM      5  N   UNL     1       8.272  13.824  19.984  0.00  0.00    +0.000 NA
ATOM      6  C   UNL     1       7.412  14.691  19.501  0.00  0.00    +0.000 A 
ATOM      7  N   UNL     1       6.280  15.268  20.075  0.00  0.00    +0.000 N 
ATOM      8  C   UNL     1       5.920  16.503  19.366  0.00  0.00    +0.000 C 
ATOM      9  C   UNL     1       4.682  17.209  19.731  0.00  0.00    +0.000 C 
ATOM     10  C   UNL     1       3.684  16.245  20.120  0.00  0.00    +0.000 A 
ATOM     11  C   UNL     1       3.895  15.226  21.005  0.00  0.00    +0.000 A 
ATOM     12  N   UNL     1       2.575  15.121  21.554  0.00  0.00    +0.000 N 
ATOM     13  C   UNL     1       1.672  15.812  20.681  0.00  0.00    +0.000 A 
ATOM     14  C   UNL     1       0.323  16.294  20.682  0.00  0.00    +0.000 A 
ATOM     15  C   UNL     1      -0.119  17.029  19.526  0.00  0.00    +0.000 A 
ATOM     16  C   UNL     1       0.680  17.172  18.389  0.00  0.00    +0.000 A 
ATOM     17 CL   UNL     1       0.227  18.143  17.042  0.00  0.00    +0.000 Cl
ATOM     18  C   UNL     1       1.952  16.652  18.380  0.00  0.00    +0.000 A 
ATOM     19  C   UNL     1       2.428  16.123  19.578  0.00  0.00    +0.000 A 
ATOM     20  C   UNL     1       5.359  14.738  21.200  0.00  0.00    +0.000 C 
ATOM     21  S   UNL     1       7.924  15.250  17.876  0.00  0.00    +0.000 S 
ATOM     22  C   UNL     1       9.336  14.357  17.909  0.00  0.00    +0.000 A 
ATOM     23  C   UNL     1      10.324  14.292  16.909  0.00  0.00    +0.000 A 
ATOM     24  H   UNL     1       2.316  14.722  22.446  0.00  0.00    +0.000 HD
ENDROOT
BRANCH   3  25
ATOM     25  C   UNL     1      10.607  12.055  20.584  0.00  0.00    +0.000 C 
ATOM     26  F   UNL     1       9.802  10.952  20.610  0.00  0.00    +0.000 F 
ATOM     27  F   UNL     1      11.861  11.587  20.811  0.00  0.00    +0.000 F 
ATOM     28  F   UNL     1      10.255  12.784  21.681  0.00  0.00    +0.000 F 
ENDBRANCH   3  25
BRANCH   1  29
ATOM     29  N   UNL     1      12.332  13.233  16.093  0.00  0.00    +0.000 N 
ATOM     30  H   UNL     1      13.288  13.527  16.267  0.00  0.00    +0.000 HD
ATOM     31  H   UNL     1      12.013  13.474  15.159  0.00  0.00    +0.000 HD
ENDBRANCH   1  29
TORSDOF 2
ENDMDL
MODEL 9
REMARK VINA RESULT:      -6.8      4.265      8.791
REMARK  Name = 
REMARK  2 active torsions:
REMARK  status: ('A' for Active; 'I' for Inactive)
REMARK    1  A    between atoms: N_1  and  C_2
REMARK    2  A    between atoms: C_4  and  C_5
REMARK                            x       y       z     vdW  Elec       q    Type
REMARK                         _______ _______ _______ _____ _____    ______ ____
ROOT
ATOM      1  C   UNL     1      -2.047  13.314  20.377  0.00  0.00    +0.000 A 
ATOM      2  C   UNL     1      -1.004  13.991  19.746  0.00  0.00    +0.000 A 
ATOM      3  C   UNL     1       0.162  13.350  19.274  0.00  0.00    +0.000 A 
ATOM      4  C   UNL     1       0.286  11.952  19.431  0.00  0.00    +0.000 A 
ATOM      5  N   UNL     1       1.374  11.151  19.010  0.00  0.00    +0.000 NA
ATOM      6  C   UNL     1       1.186   9.894  19.336  0.00  0.00    +0.000 A 
ATOM      7  N   UNL     1       2.036   8.792  19.251  0.00  0.00    +0.000 N 
ATOM      8  C   UNL     1       1.583   7.724  20.152  0.00  0.00    +0.000 C 
ATOM      9  C   UNL     1       2.268   6.423  20.130  0.00  0.00    +0.000 C 
ATOM     10  C   UNL     1       2.705   6.140  18.785  0.00  0.00    +0.000 A 
ATOM     11  C   UNL     1       3.387   7.018  17.992  0.00  0.00    +0.000 A 
ATOM     12  N   UNL     1       4.158   6.085  17.225  0.00  0.00    +0.000 N 
ATOM     13  C   UNL     1       3.573   4.785  17.386  0.00  0.00    +0.000 A 
ATOM     14  C   UNL     1       3.896   3.415  17.122  0.00  0.00    +0.000 A 
ATOM     15  C   UNL     1       2.955   2.417  17.560  0.00  0.00    +0.000 A 
ATOM     16  C   UNL     1       1.717   2.757  18.111  0.00  0.00    +0.000 A 
ATOM     17 CL   UNL     1       0.624   1.591  18.751  0.00  0.00    +0.000 Cl
ATOM     18  C   UNL     1       1.396   4.079  18.303  0.00  0.00    +0.000 A 
ATOM     19  C   UNL     1       2.400   5.015  18.059  0.00  0.00    +0.000 A 
ATOM     20  C   UNL     1       3.233   8.534  18.305  0.00  0.00    +0.000 C 
ATOM     21  S   UNL     1      -0.416   9.676  20.113  0.00  0.00    +0.000 S 
ATOM     22  C   UNL     1      -0.772  11.307  20.052  0.00  0.00    +0.000 A 
ATOM     23  C   UNL     1      -1.942  11.939  20.516  0.00  0.00    +0.000 A 
ATOM     24  H   UNL     1       5.020   6.267  16.730  0.00  0.00    +0.000 HD
ENDROOT
BRANCH   3  25
ATOM     25  C   UNL     1       1.276  14.117  18.645  0.00  0.00    +0.000 C 
ATOM     26  F   UNL     1       2.355  14.246  19.473  0.00  0.00    +0.000 F 
ATOM     27  F   UNL     1       1.757  13.531  17.519  0.00  0.00    +0.000 F 
ATOM     28  F   UNL     1       0.926  15.390  18.306  0.00  0.00    +0.000 F 
ENDBRANCH   3  25
BRANCH   1  29
ATOM     29  N   UNL     1      -3.259  13.957  20.631  0.00  0.00    +0.000 N 
ATOM     30  H   UNL     1      -3.399  14.831  20.135  0.00  0.00    +0.000 HD
ATOM     31  H   UNL     1      -3.533  14.015  21.609  0.00  0.00    +0.000 HD
ENDBRANCH   1  29
TORSDOF 2
ENDMDL
