MODEL 1
REMARK VINA RESULT:      -7.7      0.000      0.000
REMARK  Name = 
REMARK  6 active torsions:
REMARK  status: ('A' for Active; 'I' for Inactive)
REMARK    1  A    between atoms: C_1  and  N_2
REMARK    2  A    between atoms: N_5  and  C_6
REMARK    3  A    between atoms: C_15  and  C_16
REMARK    4  A    between atoms: C_16  and  O_18
REMARK    5  A    between atoms: N_20  and  C_21
REMARK    6  A    between atoms: C_21  and  C_22
REMARK                            x       y       z     vdW  Elec       q    Type
REMARK                         _______ _______ _______ _____ _____    ______ ____
ROOT
ATOM      1  C   UNL     1       1.330   8.822  19.806  0.00  0.00    +0.000 A 
ATOM      2  C   UNL     1       1.681   7.522  20.224  0.00  0.00    +0.000 A 
ATOM      3  C   UNL     1       2.542   6.685  19.504  0.00  0.00    +0.000 A 
ATOM      4  C   UNL     1       3.061   7.199  18.302  0.00  0.00    +0.000 A 
ATOM      5  C   UNL     1       2.717   8.474  17.838  0.00  0.00    +0.000 A 
ATOM      6  C   UNL     1       1.852   9.267  18.588  0.00  0.00    +0.000 A 
ATOM      7  F   UNL     1       1.558  10.492  18.123  0.00  0.00    +0.000 F 
ATOM      8  C   UNL     1       4.002   6.373  17.510  0.00  0.00    +0.000 A 
ATOM      9  O   UNL     1       4.464   6.765  16.438  0.00  0.00    +0.000 OA
ATOM     10  C   UNL     1       4.395   5.054  18.045  0.00  0.00    +0.000 A 
ATOM     11  C   UNL     1       3.820   4.664  19.192  0.00  0.00    +0.000 A 
ATOM     12  N   UNL     1       2.898   5.386  19.933  0.00  0.00    +0.000 N 
ENDROOT
BRANCH   1  17
ATOM     13  C   UNL     1      -1.695  12.244  23.023  0.00  0.00    +0.000 C 
ATOM     14  N   UNL     1      -1.433  11.067  22.195  0.00  0.00    +0.000 NA
ATOM     15  C   UNL     1      -0.383  10.218  22.813  0.00  0.00    +0.000 C 
ATOM     16  C   UNL     1       0.034   9.012  21.928  0.00  0.00    +0.000 C 
ATOM     17  N   UNL     1       0.458   9.531  20.620  0.00  0.00    +0.000 N 
ATOM     18  C   UNL     1      -0.612  10.293  19.945  0.00  0.00    +0.000 C 
ATOM     19  C   UNL     1      -1.010  11.487  20.839  0.00  0.00    +0.000 C 
ENDBRANCH   1  17
BRANCH  10  20
ATOM     20  C   UNL     1       5.370   4.161  17.387  0.00  0.00    +0.000 C 
ATOM     21  O   UNL     1       5.146   3.583  16.332  0.00  0.00    +0.000 OA
BRANCH  20  22
ATOM     22  O   UNL     1       6.540   4.024  18.045  0.00  0.00    +0.000 OA
ATOM     23  H   UNL     1       6.446   3.686  18.971  0.00  0.00    +0.000 HD
ENDBRANCH  20  22
ENDBRANCH  10  20
BRANCH  12  24
ATOM     24  C   UNL     1       2.281   4.821  21.154  0.00  0.00    +0.000 C 
BRANCH  24  25
ATOM     25  C   UNL     1       1.437   3.588  20.854  0.00  0.00    +0.000 C 
ATOM     26  F   UNL     1       0.351   3.965  20.125  0.00  0.00    +0.000 F 
ENDBRANCH  24  25
ENDBRANCH  12  24
TORSDOF 5
ENDMDL
MODEL 2
REMARK VINA RESULT:      -7.4      2.649      3.753
REMARK  Name = 
REMARK  6 active torsions:
REMARK  status: ('A' for Active; 'I' for Inactive)
REMARK    1  A    between atoms: C_1  and  N_2
REMARK    2  A    between atoms: N_5  and  C_6
REMARK    3  A    between atoms: C_15  and  C_16
REMARK    4  A    between atoms: C_16  and  O_18
REMARK    5  A    between atoms: N_20  and  C_21
REMARK    6  A    between atoms: C_21  and  C_22
REMARK                            x       y       z     vdW  Elec       q    Type
REMARK                         _______ _______ _______ _____ _____    ______ ____
ROOT
ATOM      1  C   UNL     1       1.551   8.515  19.560  0.00  0.00    +0.000 A 
ATOM      2  C   UNL     1       2.436   7.884  18.663  0.00  0.00    +0.000 A 
ATOM      3  C   UNL     1       2.885   6.567  18.817  0.00  0.00    +0.000 A 
ATOM      4  C   UNL     1       2.410   5.868  19.942  0.00  0.00    +0.000 A 
ATOM      5  C   UNL     1       1.552   6.467  20.872  0.00  0.00    +0.000 A 
ATOM      6  C   UNL     1       1.138   7.781  20.676  0.00  0.00    +0.000 A 
ATOM      7  F   UNL     1       0.299   8.318  21.577  0.00  0.00    +0.000 F 
ATOM      8  C   UNL     1       2.825   4.460  20.145  0.00  0.00    +0.000 A 
ATOM      9  O   UNL     1       2.461   3.813  21.127  0.00  0.00    +0.000 OA
ATOM     10  C   UNL     1       3.686   3.830  19.124  0.00  0.00    +0.000 A 
ATOM     11  C   UNL     1       4.088   4.603  18.104  0.00  0.00    +0.000 A 
ATOM     12  N   UNL     1       3.764   5.937  17.909  0.00  0.00    +0.000 N 
ENDROOT
BRANCH   1  17
ATOM     13  C   UNL     1       0.630  13.994  18.978  0.00  0.00    +0.000 C 
ATOM     14  N   UNL     1       0.589  12.582  18.601  0.00  0.00    +0.000 NA
ATOM     15  C   UNL     1      -0.212  11.804  19.580  0.00  0.00    +0.000 C 
ATOM     16  C   UNL     1      -0.198  10.275  19.311  0.00  0.00    +0.000 C 
ATOM     17  N   UNL     1       1.201   9.829  19.281  0.00  0.00    +0.000 N 
ATOM     18  C   UNL     1       1.989  10.521  18.241  0.00  0.00    +0.000 C 
ATOM     19  C   UNL     1       1.965  12.038  18.528  0.00  0.00    +0.000 C 
ENDBRANCH   1  17
BRANCH  10  20
ATOM     20  C   UNL     1       4.119   2.419  19.175  0.00  0.00    +0.000 C 
ATOM     21  O   UNL     1       3.664   1.551  18.442  0.00  0.00    +0.000 OA
BRANCH  20  22
ATOM     22  O   UNL     1       5.062   2.153  20.103  0.00  0.00    +0.000 OA
ATOM     23  H   UNL     1       5.420   2.956  20.556  0.00  0.00    +0.000 HD
ENDBRANCH  20  22
ENDBRANCH  10  20
BRANCH  12  24
ATOM     24  C   UNL     1       4.324   6.705  16.775  0.00  0.00    +0.000 C 
BRANCH  24  25
ATOM     25  C   UNL     1       5.534   6.015  16.154  0.00  0.00    +0.000 C 
ATOM     26  F   UNL     1       5.246   5.701  14.862  0.00  0.00    +0.000 F 
ENDBRANCH  24  25
ENDBRANCH  12  24
TORSDOF 5
ENDMDL
MODEL 3
REMARK VINA RESULT:      -7.2      0.712      1.184
REMARK  Name = 
REMARK  6 active torsions:
REMARK  status: ('A' for Active; 'I' for Inactive)
REMARK    1  A    between atoms: C_1  and  N_2
REMARK    2  A    between atoms: N_5  and  C_6
REMARK    3  A    between atoms: C_15  and  C_16
REMARK    4  A    between atoms: C_16  and  O_18
REMARK    5  A    between atoms: N_20  and  C_21
REMARK    6  A    between atoms: C_21  and  C_22
REMARK                            x       y       z     vdW  Elec       q    Type
REMARK                         _______ _______ _______ _____ _____    ______ ____
ROOT
ATOM      1  C   UNL     1       1.596   8.740  19.981  0.00  0.00    +0.000 A 
ATOM      2  C   UNL     1       1.800   7.403  20.376  0.00  0.00    +0.000 A 
ATOM      3  C   UNL     1       2.500   6.467  19.605  0.00  0.00    +0.000 A 
ATOM      4  C   UNL     1       3.008   6.919  18.373  0.00  0.00    +0.000 A 
ATOM      5  C   UNL     1       2.804   8.232  17.931  0.00  0.00    +0.000 A 
ATOM      6  C   UNL     1       2.097   9.124  18.733  0.00  0.00    +0.000 A 
ATOM      7  F   UNL     1       1.936  10.380  18.287  0.00  0.00    +0.000 F 
ATOM      8  C   UNL     1       3.784   5.985  17.525  0.00  0.00    +0.000 A 
ATOM      9  O   UNL     1       4.227   6.323  16.428  0.00  0.00    +0.000 OA
ATOM     10  C   UNL     1       4.035   4.622  18.035  0.00  0.00    +0.000 A 
ATOM     11  C   UNL     1       3.485   4.301  19.215  0.00  0.00    +0.000 A 
ATOM     12  N   UNL     1       2.710   5.130  20.011  0.00  0.00    +0.000 N 
ENDROOT
BRANCH   1  17
ATOM     13  C   UNL     1      -1.893  11.545  23.323  0.00  0.00    +0.000 C 
ATOM     14  N   UNL     1      -0.600  11.146  22.769  0.00  0.00    +0.000 NA
ATOM     15  C   UNL     1      -0.515  11.505  21.330  0.00  0.00    +0.000 C 
ATOM     16  C   UNL     1       0.784  11.002  20.645  0.00  0.00    +0.000 C 
ATOM     17  N   UNL     1       0.874   9.549  20.846  0.00  0.00    +0.000 N 
ATOM     18  C   UNL     1       0.894   9.181  22.277  0.00  0.00    +0.000 C 
ATOM     19  C   UNL     1      -0.405   9.687  22.938  0.00  0.00    +0.000 C 
ENDBRANCH   1  17
BRANCH  10  20
ATOM     20  C   UNL     1       4.845   3.616  17.318  0.00  0.00    +0.000 C 
ATOM     21  O   UNL     1       4.426   2.505  17.022  0.00  0.00    +0.000 OA
BRANCH  20  22
ATOM     22  O   UNL     1       6.098   4.015  17.015  0.00  0.00    +0.000 OA
ATOM     23  H   UNL     1       6.456   3.620  16.182  0.00  0.00    +0.000 HD
ENDBRANCH  20  22
ENDBRANCH  10  20
BRANCH  12  24
ATOM     24  C   UNL     1       2.101   4.640  21.267  0.00  0.00    +0.000 C 
BRANCH  24  25
ATOM     25  C   UNL     1       1.355   3.324  21.070  0.00  0.00    +0.000 C 
ATOM     26  F   UNL     1       0.382   3.506  20.137  0.00  0.00    +0.000 F 
ENDBRANCH  24  25
ENDBRANCH  12  24
TORSDOF 5
ENDMDL
MODEL 4
REMARK VINA RESULT:      -7.1      2.594      3.610
REMARK  Name = 
REMARK  6 active torsions:
REMARK  status: ('A' for Active; 'I' for Inactive)
REMARK    1  A    between atoms: C_1  and  N_2
REMARK    2  A    between atoms: N_5  and  C_6
REMARK    3  A    between atoms: C_15  and  C_16
REMARK    4  A    between atoms: C_16  and  O_18
REMARK    5  A    between atoms: N_20  and  C_21
REMARK    6  A    between atoms: C_21  and  C_22
REMARK                            x       y       z     vdW  Elec       q    Type
REMARK                         _______ _______ _______ _____ _____    ______ ____
ROOT
ATOM      1  C   UNL     1       1.126   8.736  20.034  0.00  0.00    +0.000 A 
ATOM      2  C   UNL     1       2.052   8.205  19.114  0.00  0.00    +0.000 A 
ATOM      3  C   UNL     1       2.549   6.898  19.185  0.00  0.00    +0.000 A 
ATOM      4  C   UNL     1       2.082   6.103  20.249  0.00  0.00    +0.000 A 
ATOM      5  C   UNL     1       1.183   6.601  21.199  0.00  0.00    +0.000 A 
ATOM      6  C   UNL     1       0.721   7.910  21.087  0.00  0.00    +0.000 A 
ATOM      7  F   UNL     1      -0.154   8.350  22.005  0.00  0.00    +0.000 F 
ATOM      8  C   UNL     1       2.548   4.701  20.361  0.00  0.00    +0.000 A 
ATOM      9  O   UNL     1       2.191   3.973  21.287  0.00  0.00    +0.000 OA
ATOM     10  C   UNL     1       3.452   4.179  19.317  0.00  0.00    +0.000 A 
ATOM     11  C   UNL     1       3.842   5.036  18.362  0.00  0.00    +0.000 A 
ATOM     12  N   UNL     1       3.470   6.367  18.254  0.00  0.00    +0.000 N 
ENDROOT
BRANCH   1  17
ATOM     13  C   UNL     1      -0.157  13.974  18.574  0.00  0.00    +0.000 C 
ATOM     14  N   UNL     1      -0.225  12.751  19.374  0.00  0.00    +0.000 NA
ATOM     15  C   UNL     1       1.088  12.467  20.007  0.00  0.00    +0.000 C 
ATOM     16  C   UNL     1       1.123  11.118  20.773  0.00  0.00    +0.000 C 
ATOM     17  N   UNL     1       0.731  10.052  19.840  0.00  0.00    +0.000 N 
ATOM     18  C   UNL     1      -0.619  10.267  19.279  0.00  0.00    +0.000 C 
ATOM     19  C   UNL     1      -0.632  11.611  18.520  0.00  0.00    +0.000 C 
ENDBRANCH   1  17
BRANCH  10  20
ATOM     20  C   UNL     1       3.939   2.785  19.278  0.00  0.00    +0.000 C 
ATOM     21  O   UNL     1       3.254   1.845  18.897  0.00  0.00    +0.000 OA
BRANCH  20  22
ATOM     22  O   UNL     1       5.210   2.621  19.702  0.00  0.00    +0.000 OA
ATOM     23  H   UNL     1       5.841   2.347  18.991  0.00  0.00    +0.000 HD
ENDBRANCH  20  22
ENDBRANCH  10  20
BRANCH  12  24
ATOM     24  C   UNL     1       4.020   7.234  17.190  0.00  0.00    +0.000 C 
BRANCH  24  25
ATOM     25  C   UNL     1       5.260   6.631  16.539  0.00  0.00    +0.000 C 
ATOM     26  F   UNL     1       4.962   6.289  15.256  0.00  0.00    +0.000 F 
ENDBRANCH  24  25
ENDBRANCH  12  24
TORSDOF 5
ENDMDL
MODEL 5
REMARK VINA RESULT:      -7.0      0.780      1.005
REMARK  Name = 
REMARK  6 active torsions:
REMARK  status: ('A' for Active; 'I' for Inactive)
REMARK    1  A    between atoms: C_1  and  N_2
REMARK    2  A    between atoms: N_5  and  C_6
REMARK    3  A    between atoms: C_15  and  C_16
REMARK    4  A    between atoms: C_16  and  O_18
REMARK    5  A    between atoms: N_20  and  C_21
REMARK    6  A    between atoms: C_21  and  C_22
REMARK                            x       y       z     vdW  Elec       q    Type
REMARK                         _______ _______ _______ _____ _____    ______ ____
ROOT
ATOM      1  C   UNL     1       1.332   9.051  19.459  0.00  0.00    +0.000 A 
ATOM      2  C   UNL     1       1.634   7.783  19.995  0.00  0.00    +0.000 A 
ATOM      3  C   UNL     1       2.539   6.891  19.407  0.00  0.00    +0.000 A 
ATOM      4  C   UNL     1       3.157   7.314  18.215  0.00  0.00    +0.000 A 
ATOM      5  C   UNL     1       2.863   8.554  17.635  0.00  0.00    +0.000 A 
ATOM      6  C   UNL     1       1.952   9.404  18.256  0.00  0.00    +0.000 A 
ATOM      7  F   UNL     1       1.709  10.593  17.683  0.00  0.00    +0.000 F 
ATOM      8  C   UNL     1       4.147   6.427  17.561  0.00  0.00    +0.000 A 
ATOM      9  O   UNL     1       4.694   6.738  16.503  0.00  0.00    +0.000 OA
ATOM     10  C   UNL     1       4.482   5.148  18.219  0.00  0.00    +0.000 A 
ATOM     11  C   UNL     1       3.816   4.846  19.343  0.00  0.00    +0.000 A 
ATOM     12  N   UNL     1       2.846   5.626  19.955  0.00  0.00    +0.000 N 
ENDROOT
BRANCH   1  17
ATOM     13  C   UNL     1      -1.991  12.748  22.008  0.00  0.00    +0.000 C 
ATOM     14  N   UNL     1      -1.606  11.448  21.460  0.00  0.00    +0.000 NA
ATOM     15  C   UNL     1      -0.423  10.908  22.178  0.00  0.00    +0.000 C 
ATOM     16  C   UNL     1       0.116   9.586  21.569  0.00  0.00    +0.000 C 
ATOM     17  N   UNL     1       0.407   9.822  20.148  0.00  0.00    +0.000 N 
ATOM     18  C   UNL     1      -0.786  10.262  19.397  0.00  0.00    +0.000 C 
ATOM     19  C   UNL     1      -1.305  11.578  20.015  0.00  0.00    +0.000 C 
ENDBRANCH   1  17
BRANCH  10  20
ATOM     20  C   UNL     1       5.496   4.204  17.705  0.00  0.00    +0.000 C 
ATOM     21  O   UNL     1       6.619   4.102  18.179  0.00  0.00    +0.000 OA
BRANCH  20  22
ATOM     22  O   UNL     1       5.088   3.457  16.658  0.00  0.00    +0.000 OA
ATOM     23  H   UNL     1       5.809   3.226  16.021  0.00  0.00    +0.000 HD
ENDBRANCH  20  22
ENDBRANCH  10  20
BRANCH  12  24
ATOM     24  C   UNL     1       2.131   5.154  21.161  0.00  0.00    +0.000 C 
BRANCH  24  25
ATOM     25  C   UNL     1       1.731   3.687  21.057  0.00  0.00    +0.000 C 
ATOM     26  F   UNL     1       2.446   2.970  21.966  0.00  0.00    +0.000 F 
ENDBRANCH  24  25
ENDBRANCH  12  24
TORSDOF 5
ENDMDL
MODEL 6
REMARK VINA RESULT:      -7.0      2.707      4.040
REMARK  Name = 
REMARK  6 active torsions:
REMARK  status: ('A' for Active; 'I' for Inactive)
REMARK    1  A    between atoms: C_1  and  N_2
REMARK    2  A    between atoms: N_5  and  C_6
REMARK    3  A    between atoms: C_15  and  C_16
REMARK    4  A    between atoms: C_16  and  O_18
REMARK    5  A    between atoms: N_20  and  C_21
REMARK    6  A    between atoms: C_21  and  C_22
REMARK                            x       y       z     vdW  Elec       q    Type
REMARK                         _______ _______ _______ _____ _____    ______ ____
ROOT
ATOM      1  C   UNL     1       1.907   7.757  19.582  0.00  0.00    +0.000 A 
ATOM      2  C   UNL     1       2.879   7.130  18.777  0.00  0.00    +0.000 A 
ATOM      3  C   UNL     1       3.298   5.806  18.960  0.00  0.00    +0.000 A 
ATOM      4  C   UNL     1       2.699   5.097  20.018  0.00  0.00    +0.000 A 
ATOM      5  C   UNL     1       1.750   5.691  20.858  0.00  0.00    +0.000 A 
ATOM      6  C   UNL     1       1.370   7.012  20.637  0.00  0.00    +0.000 A 
ATOM      7  F   UNL     1       0.443   7.545  21.449  0.00  0.00    +0.000 F 
ATOM      8  C   UNL     1       3.078   3.683  20.245  0.00  0.00    +0.000 A 
ATOM      9  O   UNL     1       2.605   3.026  21.172  0.00  0.00    +0.000 OA
ATOM     10  C   UNL     1       4.040   3.059  19.314  0.00  0.00    +0.000 A 
ATOM     11  C   UNL     1       4.556   3.841  18.354  0.00  0.00    +0.000 A 
ATOM     12  N   UNL     1       4.266   5.180  18.144  0.00  0.00    +0.000 N 
ENDROOT
BRANCH   1  17
ATOM     13  C   UNL     1       1.360  13.236  18.639  0.00  0.00    +0.000 C 
ATOM     14  N   UNL     1       1.022  11.817  18.529  0.00  0.00    +0.000 NA
ATOM     15  C   UNL     1       0.660  11.263  19.858  0.00  0.00    +0.000 C 
ATOM     16  C   UNL     1       0.406   9.731  19.838  0.00  0.00    +0.000 C 
ATOM     17  N   UNL     1       1.600   9.077  19.286  0.00  0.00    +0.000 N 
ATOM     18  C   UNL     1       1.914   9.544  17.920  0.00  0.00    +0.000 C 
ATOM     19  C   UNL     1       2.166  11.067  17.963  0.00  0.00    +0.000 C 
ENDBRANCH   1  17
BRANCH  10  20
ATOM     20  C   UNL     1       4.454   1.643  19.390  0.00  0.00    +0.000 C 
ATOM     21  O   UNL     1       5.193   1.205  20.262  0.00  0.00    +0.000 OA
BRANCH  20  22
ATOM     22  O   UNL     1       3.953   0.858  18.413  0.00  0.00    +0.000 OA
ATOM     23  H   UNL     1       4.070   1.224  17.502  0.00  0.00    +0.000 HD
ENDBRANCH  20  22
ENDBRANCH  10  20
BRANCH  12  24
ATOM     24  C   UNL     1       4.951   5.958  17.088  0.00  0.00    +0.000 C 
BRANCH  24  25
ATOM     25  C   UNL     1       6.389   6.297  17.465  0.00  0.00    +0.000 C 
ATOM     26  F   UNL     1       6.632   7.598  17.148  0.00  0.00    +0.000 F 
ENDBRANCH  24  25
ENDBRANCH  12  24
TORSDOF 5
ENDMDL
MODEL 7
REMARK VINA RESULT:      -6.9      2.507      3.617
REMARK  Name = 
REMARK  6 active torsions:
REMARK  status: ('A' for Active; 'I' for Inactive)
REMARK    1  A    between atoms: C_1  and  N_2
REMARK    2  A    between atoms: N_5  and  C_6
REMARK    3  A    between atoms: C_15  and  C_16
REMARK    4  A    between atoms: C_16  and  O_18
REMARK    5  A    between atoms: N_20  and  C_21
REMARK    6  A    between atoms: C_21  and  C_22
REMARK                            x       y       z     vdW  Elec       q    Type
REMARK                         _______ _______ _______ _____ _____    ______ ____
ROOT
ATOM      1  C   UNL     1       1.321   8.480  19.990  0.00  0.00    +0.000 A 
ATOM      2  C   UNL     1       2.225   7.977  19.032  0.00  0.00    +0.000 A 
ATOM      3  C   UNL     1       2.707   6.663  19.039  0.00  0.00    +0.000 A 
ATOM      4  C   UNL     1       2.247   5.829  20.075  0.00  0.00    +0.000 A 
ATOM      5  C   UNL     1       1.370   6.296  21.061  0.00  0.00    +0.000 A 
ATOM      6  C   UNL     1       0.923   7.614  21.014  0.00  0.00    +0.000 A 
ATOM      7  F   UNL     1       0.068   8.024  21.964  0.00  0.00    +0.000 F 
ATOM      8  C   UNL     1       2.697   4.418  20.119  0.00  0.00    +0.000 A 
ATOM      9  O   UNL     1       2.346   3.655  21.019  0.00  0.00    +0.000 OA
ATOM     10  C   UNL     1       3.577   3.930  19.038  0.00  0.00    +0.000 A 
ATOM     11  C   UNL     1       3.962   4.823  18.115  0.00  0.00    +0.000 A 
ATOM     12  N   UNL     1       3.605   6.162  18.070  0.00  0.00    +0.000 N 
ENDROOT
BRANCH   1  17
ATOM     13  C   UNL     1      -0.896  13.599  19.691  0.00  0.00    +0.000 C 
ATOM     14  N   UNL     1       0.175  12.603  19.735  0.00  0.00    +0.000 NA
ATOM     15  C   UNL     1       0.097  11.701  18.558  0.00  0.00    +0.000 C 
ATOM     16  C   UNL     1       1.129  10.542  18.601  0.00  0.00    +0.000 C 
ATOM     17  N   UNL     1       0.939   9.808  19.860  0.00  0.00    +0.000 N 
ATOM     18  C   UNL     1       1.115  10.671  21.045  0.00  0.00    +0.000 C 
ATOM     19  C   UNL     1       0.079  11.813  20.985  0.00  0.00    +0.000 C 
ENDBRANCH   1  17
BRANCH  10  20
ATOM     20  C   UNL     1       4.045   2.533  18.931  0.00  0.00    +0.000 C 
ATOM     21  O   UNL     1       3.643   1.754  18.078  0.00  0.00    +0.000 OA
BRANCH  20  22
ATOM     22  O   UNL     1       4.959   2.174  19.857  0.00  0.00    +0.000 OA
ATOM     23  H   UNL     1       4.571   1.942  20.738  0.00  0.00    +0.000 HD
ENDBRANCH  20  22
ENDBRANCH  10  20
BRANCH  12  24
ATOM     24  C   UNL     1       4.148   7.068  17.035  0.00  0.00    +0.000 C 
BRANCH  24  25
ATOM     25  C   UNL     1       5.437   6.532  16.420  0.00  0.00    +0.000 C 
ATOM     26  F   UNL     1       5.177   6.108  15.154  0.00  0.00    +0.000 F 
ENDBRANCH  24  25
ENDBRANCH  12  24
TORSDOF 5
ENDMDL
MODEL 8
REMARK VINA RESULT:      -6.7      0.993      1.341
REMARK  Name = 
REMARK  6 active torsions:
REMARK  status: ('A' for Active; 'I' for Inactive)
REMARK    1  A    between atoms: C_1  and  N_2
REMARK    2  A    between atoms: N_5  and  C_6
REMARK    3  A    between atoms: C_15  and  C_16
REMARK    4  A    between atoms: C_16  and  O_18
REMARK    5  A    between atoms: N_20  and  C_21
REMARK    6  A    between atoms: C_21  and  C_22
REMARK                            x       y       z     vdW  Elec       q    Type
REMARK                         _______ _______ _______ _____ _____    ______ ____
ROOT
ATOM      1  C   UNL     1       1.374   9.373  19.189  0.00  0.00    +0.000 A 
ATOM      2  C   UNL     1       1.493   8.070  19.714  0.00  0.00    +0.000 A 
ATOM      3  C   UNL     1       2.346   7.097  19.179  0.00  0.00    +0.000 A 
ATOM      4  C   UNL     1       3.104   7.472  18.054  0.00  0.00    +0.000 A 
ATOM      5  C   UNL     1       2.995   8.747  17.486  0.00  0.00    +0.000 A 
ATOM      6  C   UNL     1       2.129   9.679  18.052  0.00  0.00    +0.000 A 
ATOM      7  F   UNL     1       2.062  10.897  17.493  0.00  0.00    +0.000 F 
ATOM      8  C   UNL     1       4.047   6.496  17.461  0.00  0.00    +0.000 A 
ATOM      9  O   UNL     1       4.713   6.764  16.461  0.00  0.00    +0.000 OA
ATOM     10  C   UNL     1       4.188   5.176  18.109  0.00  0.00    +0.000 A 
ATOM     11  C   UNL     1       3.400   4.928  19.165  0.00  0.00    +0.000 A 
ATOM     12  N   UNL     1       2.469   5.796  19.716  0.00  0.00    +0.000 N 
ENDROOT
BRANCH   1  17
ATOM     13  C   UNL     1      -2.447  12.208  22.116  0.00  0.00    +0.000 C 
ATOM     14  N   UNL     1      -1.284  12.033  21.248  0.00  0.00    +0.000 NA
ATOM     15  C   UNL     1      -1.676  11.373  19.976  0.00  0.00    +0.000 C 
ATOM     16  C   UNL     1      -0.470  11.046  19.055  0.00  0.00    +0.000 C 
ATOM     17  N   UNL     1       0.480  10.227  19.820  0.00  0.00    +0.000 N 
ATOM     18  C   UNL     1       0.960  10.912  21.037  0.00  0.00    +0.000 C 
ATOM     19  C   UNL     1      -0.253  11.226  21.939  0.00  0.00    +0.000 C 
ENDBRANCH   1  17
BRANCH  10  20
ATOM     20  C   UNL     1       5.136   4.138  17.656  0.00  0.00    +0.000 C 
ATOM     21  O   UNL     1       5.062   3.592  16.564  0.00  0.00    +0.000 OA
BRANCH  20  22
ATOM     22  O   UNL     1       6.099   3.829  18.549  0.00  0.00    +0.000 OA
ATOM     23  H   UNL     1       5.776   3.753  19.482  0.00  0.00    +0.000 HD
ENDBRANCH  20  22
ENDBRANCH  10  20
BRANCH  12  24
ATOM     24  C   UNL     1       1.608   5.382  20.845  0.00  0.00    +0.000 C 
BRANCH  24  25
ATOM     25  C   UNL     1       1.185   3.921  20.742  0.00  0.00    +0.000 C 
ATOM     26  F   UNL     1       1.667   3.247  21.822  0.00  0.00    +0.000 F 
ENDBRANCH  24  25
ENDBRANCH  12  24
TORSDOF 5
ENDMDL
MODEL 9
REMARK VINA RESULT:      -6.7      3.466      7.218
REMARK  Name = 
REMARK  6 active torsions:
REMARK  status: ('A' for Active; 'I' for Inactive)
REMARK    1  A    between atoms: C_1  and  N_2
REMARK    2  A    between atoms: N_5  and  C_6
REMARK    3  A    between atoms: C_15  and  C_16
REMARK    4  A    between atoms: C_16  and  O_18
REMARK    5  A    between atoms: N_20  and  C_21
REMARK    6  A    between atoms: C_21  and  C_22
REMARK                            x       y       z     vdW  Elec       q    Type
REMARK                         _______ _______ _______ _____ _____    ______ ____
ROOT
ATOM      1  C   UNL     1       2.334   7.193  19.040  0.00  0.00    +0.000 A 
ATOM      2  C   UNL     1       1.484   7.771  20.004  0.00  0.00    +0.000 A 
ATOM      3  C   UNL     1       1.064   9.106  19.963  0.00  0.00    +0.000 A 
ATOM      4  C   UNL     1       1.541   9.884  18.891  0.00  0.00    +0.000 A 
ATOM      5  C   UNL     1       2.410   9.356  17.928  0.00  0.00    +0.000 A 
ATOM      6  C   UNL     1       2.802   8.022  18.016  0.00  0.00    +0.000 A 
ATOM      7  F   UNL     1       3.620   7.543  17.065  0.00  0.00    +0.000 F 
ATOM      8  C   UNL     1       1.110  11.296  18.775  0.00  0.00    +0.000 A 
ATOM      9  O   UNL     1       1.519  12.027  17.874  0.00  0.00    +0.000 OA
ATOM     10  C   UNL     1       0.150  11.818  19.770  0.00  0.00    +0.000 A 
ATOM     11  C   UNL     1      -0.220  10.987  20.755  0.00  0.00    +0.000 A 
ATOM     12  N   UNL     1       0.203   9.678  20.926  0.00  0.00    +0.000 N 
ENDROOT
BRANCH   1  17
ATOM     13  C   UNL     1       3.767   1.793  19.009  0.00  0.00    +0.000 C 
ATOM     14  N   UNL     1       3.524   3.112  19.595  0.00  0.00    +0.000 NA
ATOM     15  C   UNL     1       2.096   3.491  19.450  0.00  0.00    +0.000 C 
ATOM     16  C   UNL     1       1.789   4.932  19.940  0.00  0.00    +0.000 C 
ATOM     17  N   UNL     1       2.672   5.859  19.218  0.00  0.00    +0.000 N 
ATOM     18  C   UNL     1       4.101   5.556  19.435  0.00  0.00    +0.000 C 
ATOM     19  C   UNL     1       4.385   4.123  18.938  0.00  0.00    +0.000 C 
ENDBRANCH   1  17
BRANCH  10  20
ATOM     20  C   UNL     1      -0.407  13.186  19.732  0.00  0.00    +0.000 C 
ATOM     21  O   UNL     1      -0.334  13.967  20.671  0.00  0.00    +0.000 OA
BRANCH  20  22
ATOM     22  O   UNL     1      -1.013  13.513  18.571  0.00  0.00    +0.000 OA
ATOM     23  H   UNL     1      -0.510  13.244  17.763  0.00  0.00    +0.000 HD
ENDBRANCH  20  22
ENDBRANCH  10  20
BRANCH  12  24
ATOM     24  C   UNL     1      -0.226   8.878  22.094  0.00  0.00    +0.000 C 
BRANCH  24  25
ATOM     25  C   UNL     1      -0.205   9.688  23.386  0.00  0.00    +0.000 C 
ATOM     26  F   UNL     1      -1.419  10.281  23.552  0.00  0.00    +0.000 F 
ENDBRANCH  24  25
ENDBRANCH  12  24
TORSDOF 5
ENDMDL
