MODEL 1
REMARK VINA RESULT:      -7.8      0.000      0.000
REMARK  Name = 
REMARK  4 active torsions:
REMARK  status: ('A' for Active; 'I' for Inactive)
REMARK    1  A    between atoms: C_2  and  C_12
REMARK    2  A    between atoms: N_3  and  C_4
REMARK    3  A    between atoms: N_14  and  C_15
REMARK    4  A    between atoms: C_15  and  C_16
REMARK                            x       y       z     vdW  Elec       q    Type
REMARK                         _______ _______ _______ _____ _____    ______ ____
ROOT
ATOM      1  C   UNL     1       2.478   7.220  18.934  0.00  0.00    +0.000 A 
ATOM      2  C   UNL     1       2.023   6.607  20.097  0.00  0.00    +0.000 A 
ATOM      3  N   UNL     1       2.662   5.392  20.230  0.00  0.00    +0.000 N 
ATOM      4  C   UNL     1       3.526   5.206  19.183  0.00  0.00    +0.000 A 
ATOM      5  N   UNL     1       4.288   4.109  18.992  0.00  0.00    +0.000 NA
ATOM      6  C   UNL     1       5.038   4.177  17.865  0.00  0.00    +0.000 A 
ATOM      7  C   UNL     1       5.064   5.236  16.969  0.00  0.00    +0.000 A 
ATOM      8  C   UNL     1       4.257   6.341  17.216  0.00  0.00    +0.000 A 
ATOM      9  C   UNL     1       3.450   6.329  18.369  0.00  0.00    +0.000 A 
ENDROOT
BRANCH   1  11
ATOM     10  O   UNL     1       2.465   8.840  17.226  0.00  0.00    +0.000 OA
ATOM     11  C   UNL     1       2.058   8.480  18.326  0.00  0.00    +0.000 C 
ATOM     12  N   UNL     1       1.151   9.232  19.039  0.00  0.00    +0.000 N 
ATOM     13  H   UNL     1       1.043   9.035  20.022  0.00  0.00    +0.000 HD
BRANCH  12  14
ATOM     14  C   UNL     1       0.662  10.499  18.503  0.00  0.00    +0.000 C 
ATOM     15  C   UNL     1       1.565  11.697  18.897  0.00  0.00    +0.000 C 
ATOM     16  N   UNL     1       0.817  12.717  19.680  0.00  0.00    +0.000 NA
ATOM     17  C   UNL     1      -0.272  13.255  18.837  0.00  0.00    +0.000 C 
ATOM     18  C   UNL     1      -1.199  12.138  18.324  0.00  0.00    +0.000 C 
ATOM     19  C   UNL     1      -0.783  10.795  18.956  0.00  0.00    +0.000 C 
ATOM     20  C   UNL     1      -0.807  10.991  20.479  0.00  0.00    +0.000 C 
ATOM     21  C   UNL     1       0.225  12.064  20.868  0.00  0.00    +0.000 C 
ENDBRANCH  12  14
ENDBRANCH   1  11
BRANCH   3  22
ATOM     22  C   UNL     1       2.384   4.391  21.241  0.00  0.00    +0.000 C 
BRANCH  22  23
ATOM     23  C   UNL     1       1.452   3.287  20.784  0.00  0.00    +0.000 C 
ATOM     24  F   UNL     1       0.945   2.633  21.863  0.00  0.00    +0.000 F 
ATOM     25  F   UNL     1       0.381   3.854  20.159  0.00  0.00    +0.000 F 
ENDBRANCH  22  23
ENDBRANCH   3  22
TORSDOF 4
ENDMDL
MODEL 2
REMARK VINA RESULT:      -7.6      2.761      7.324
REMARK  Name = 
REMARK  4 active torsions:
REMARK  status: ('A' for Active; 'I' for Inactive)
REMARK    1  A    between atoms: C_2  and  C_12
REMARK    2  A    between atoms: N_3  and  C_4
REMARK    3  A    between atoms: N_14  and  C_15
REMARK    4  A    between atoms: C_15  and  C_16
REMARK                            x       y       z     vdW  Elec       q    Type
REMARK                         _______ _______ _______ _____ _____    ______ ____
ROOT
ATOM      1  C   UNL     1       1.469   8.783  18.772  0.00  0.00    +0.000 A 
ATOM      2  C   UNL     1       0.774   9.649  17.935  0.00  0.00    +0.000 A 
ATOM      3  N   UNL     1      -0.041  10.447  18.711  0.00  0.00    +0.000 N 
ATOM      4  C   UNL     1       0.114  10.121  20.032  0.00  0.00    +0.000 A 
ATOM      5  N   UNL     1      -0.557  10.690  21.055  0.00  0.00    +0.000 NA
ATOM      6  C   UNL     1      -0.225  10.166  22.260  0.00  0.00    +0.000 A 
ATOM      7  C   UNL     1       0.700   9.156  22.480  0.00  0.00    +0.000 A 
ATOM      8  C   UNL     1       1.362   8.605  21.388  0.00  0.00    +0.000 A 
ATOM      9  C   UNL     1       1.057   9.104  20.108  0.00  0.00    +0.000 A 
ENDROOT
BRANCH   1  11
ATOM     10  O   UNL     1       3.480   7.928  17.894  0.00  0.00    +0.000 OA
ATOM     11  C   UNL     1       2.397   7.708  18.428  0.00  0.00    +0.000 C 
ATOM     12  N   UNL     1       2.009   6.431  18.765  0.00  0.00    +0.000 N 
ATOM     13  H   UNL     1       1.032   6.271  18.961  0.00  0.00    +0.000 HD
BRANCH  12  14
ATOM     14  C   UNL     1       2.879   5.295  18.475  0.00  0.00    +0.000 C 
ATOM     15  C   UNL     1       2.136   4.156  17.727  0.00  0.00    +0.000 C 
ATOM     16  N   UNL     1       2.157   2.885  18.499  0.00  0.00    +0.000 NA
ATOM     17  C   UNL     1       3.562   2.453  18.660  0.00  0.00    +0.000 C 
ATOM     18  C   UNL     1       4.418   3.541  19.331  0.00  0.00    +0.000 C 
ATOM     19  C   UNL     1       3.516   4.717  19.755  0.00  0.00    +0.000 C 
ATOM     20  C   UNL     1       2.413   4.133  20.651  0.00  0.00    +0.000 C 
ATOM     21  C   UNL     1       1.576   3.132  19.837  0.00  0.00    +0.000 C 
ENDBRANCH  12  14
ENDBRANCH   1  11
BRANCH   3  22
ATOM     22  C   UNL     1      -1.017  11.399  18.218  0.00  0.00    +0.000 C 
BRANCH  22  23
ATOM     23  C   UNL     1      -2.241  10.766  17.588  0.00  0.00    +0.000 C 
ATOM     24  F   UNL     1      -1.969  10.412  16.303  0.00  0.00    +0.000 F 
ATOM     25  F   UNL     1      -2.513   9.602  18.242  0.00  0.00    +0.000 F 
ENDBRANCH  22  23
ENDBRANCH   3  22
TORSDOF 4
ENDMDL
MODEL 3
REMARK VINA RESULT:      -7.5      0.848      1.045
REMARK  Name = 
REMARK  4 active torsions:
REMARK  status: ('A' for Active; 'I' for Inactive)
REMARK    1  A    between atoms: C_2  and  C_12
REMARK    2  A    between atoms: N_3  and  C_4
REMARK    3  A    between atoms: N_14  and  C_15
REMARK    4  A    between atoms: C_15  and  C_16
REMARK                            x       y       z     vdW  Elec       q    Type
REMARK                         _______ _______ _______ _____ _____    ______ ____
ROOT
ATOM      1  C   UNL     1       2.853   7.039  18.511  0.00  0.00    +0.000 A 
ATOM      2  C   UNL     1       2.409   6.135  19.470  0.00  0.00    +0.000 A 
ATOM      3  N   UNL     1       3.240   5.034  19.451  0.00  0.00    +0.000 N 
ATOM      4  C   UNL     1       4.217   5.207  18.507  0.00  0.00    +0.000 A 
ATOM      5  N   UNL     1       5.177   4.307  18.210  0.00  0.00    +0.000 NA
ATOM      6  C   UNL     1       6.004   4.725  17.220  0.00  0.00    +0.000 A 
ATOM      7  C   UNL     1       5.923   5.937  16.550  0.00  0.00    +0.000 A 
ATOM      8  C   UNL     1       4.912   6.826  16.897  0.00  0.00    +0.000 A 
ATOM      9  C   UNL     1       4.017   6.448  17.915  0.00  0.00    +0.000 A 
ENDROOT
BRANCH   1  11
ATOM     10  O   UNL     1       2.514   8.823  17.012  0.00  0.00    +0.000 OA
ATOM     11  C   UNL     1       2.272   8.316  18.103  0.00  0.00    +0.000 C 
ATOM     12  N   UNL     1       1.406   8.909  18.995  0.00  0.00    +0.000 N 
ATOM     13  H   UNL     1       1.434   8.600  19.954  0.00  0.00    +0.000 HD
BRANCH  12  14
ATOM     14  C   UNL     1       0.765  10.179  18.666  0.00  0.00    +0.000 C 
ATOM     15  C   UNL     1       1.603  11.401  19.125  0.00  0.00    +0.000 C 
ATOM     16  N   UNL     1       0.857  12.250  20.092  0.00  0.00    +0.000 NA
ATOM     17  C   UNL     1      -0.351  12.778  19.423  0.00  0.00    +0.000 C 
ATOM     18  C   UNL     1      -1.231  11.648  18.860  0.00  0.00    +0.000 C 
ATOM     19  C   UNL     1      -0.647  10.285  19.279  0.00  0.00    +0.000 C 
ATOM     20  C   UNL     1      -0.535  10.299  20.811  0.00  0.00    +0.000 C 
ATOM     21  C   UNL     1       0.440  11.410  21.237  0.00  0.00    +0.000 C 
ENDBRANCH  12  14
ENDBRANCH   1  11
BRANCH   3  22
ATOM     22  C   UNL     1       3.053   3.814  20.212  0.00  0.00    +0.000 C 
BRANCH  22  23
ATOM     23  C   UNL     1       1.985   3.906  21.283  0.00  0.00    +0.000 C 
ATOM     24  F   UNL     1       0.787   3.510  20.776  0.00  0.00    +0.000 F 
ATOM     25  F   UNL     1       2.282   3.015  22.270  0.00  0.00    +0.000 F 
ENDBRANCH  22  23
ENDBRANCH   3  22
TORSDOF 4
ENDMDL
MODEL 4
REMARK VINA RESULT:      -7.4      2.490      3.488
REMARK  Name = 
REMARK  4 active torsions:
REMARK  status: ('A' for Active; 'I' for Inactive)
REMARK    1  A    between atoms: C_2  and  C_12
REMARK    2  A    between atoms: N_3  and  C_4
REMARK    3  A    between atoms: N_14  and  C_15
REMARK    4  A    between atoms: C_15  and  C_16
REMARK                            x       y       z     vdW  Elec       q    Type
REMARK                         _______ _______ _______ _____ _____    ______ ____
ROOT
ATOM      1  C   UNL     1       3.021   7.036  18.323  0.00  0.00    +0.000 A 
ATOM      2  C   UNL     1       4.148   6.666  17.596  0.00  0.00    +0.000 A 
ATOM      3  N   UNL     1       4.540   5.409  18.007  0.00  0.00    +0.000 N 
ATOM      4  C   UNL     1       3.691   4.954  18.981  0.00  0.00    +0.000 A 
ATOM      5  N   UNL     1       3.806   3.771  19.620  0.00  0.00    +0.000 NA
ATOM      6  C   UNL     1       2.841   3.579  20.553  0.00  0.00    +0.000 A 
ATOM      7  C   UNL     1       1.818   4.465  20.858  0.00  0.00    +0.000 A 
ATOM      8  C   UNL     1       1.749   5.671  20.168  0.00  0.00    +0.000 A 
ATOM      9  C   UNL     1       2.726   5.931  19.189  0.00  0.00    +0.000 A 
ENDROOT
BRANCH   1  11
ATOM     10  O   UNL     1       2.122   8.941  17.272  0.00  0.00    +0.000 OA
ATOM     11  C   UNL     1       2.278   8.294  18.302  0.00  0.00    +0.000 C 
ATOM     12  N   UNL     1       1.727   8.701  19.497  0.00  0.00    +0.000 N 
ATOM     13  H   UNL     1       2.084   8.289  20.346  0.00  0.00    +0.000 HD
BRANCH  12  14
ATOM     14  C   UNL     1       0.954   9.937  19.569  0.00  0.00    +0.000 C 
ATOM     15  C   UNL     1       1.560  10.958  20.568  0.00  0.00    +0.000 C 
ATOM     16  N   UNL     1       0.605  11.298  21.656  0.00  0.00    +0.000 NA
ATOM     17  C   UNL     1      -0.588  11.934  21.056  0.00  0.00    +0.000 C 
ATOM     18  C   UNL     1      -1.237  11.035  19.989  0.00  0.00    +0.000 C 
ATOM     19  C   UNL     1      -0.516   9.673  19.958  0.00  0.00    +0.000 C 
ATOM     20  C   UNL     1      -0.569   9.106  21.384  0.00  0.00    +0.000 C 
ATOM     21  C   UNL     1       0.190  10.049  22.333  0.00  0.00    +0.000 C 
ENDBRANCH  12  14
ENDBRANCH   1  11
BRANCH   3  22
ATOM     22  C   UNL     1       5.739   4.712  17.584  0.00  0.00    +0.000 C 
BRANCH  22  23
ATOM     23  C   UNL     1       7.025   5.297  18.132  0.00  0.00    +0.000 C 
ATOM     24  F   UNL     1       6.927   5.448  19.480  0.00  0.00    +0.000 F 
ATOM     25  F   UNL     1       8.030   4.398  17.933  0.00  0.00    +0.000 F 
ENDBRANCH  22  23
ENDBRANCH   3  22
TORSDOF 4
ENDMDL
MODEL 5
REMARK VINA RESULT:      -7.3      2.773      7.294
REMARK  Name = 
REMARK  4 active torsions:
REMARK  status: ('A' for Active; 'I' for Inactive)
REMARK    1  A    between atoms: C_2  and  C_12
REMARK    2  A    between atoms: N_3  and  C_4
REMARK    3  A    between atoms: N_14  and  C_15
REMARK    4  A    between atoms: C_15  and  C_16
REMARK                            x       y       z     vdW  Elec       q    Type
REMARK                         _______ _______ _______ _____ _____    ______ ____
ROOT
ATOM      1  C   UNL     1       0.758   9.664  19.302  0.00  0.00    +0.000 A 
ATOM      2  C   UNL     1       0.866  10.290  20.540  0.00  0.00    +0.000 A 
ATOM      3  N   UNL     1      -0.214  11.132  20.701  0.00  0.00    +0.000 N 
ATOM      4  C   UNL     1      -1.024  11.062  19.598  0.00  0.00    +0.000 A 
ATOM      5  N   UNL     1      -2.152  11.780  19.418  0.00  0.00    +0.000 NA
ATOM      6  C   UNL     1      -2.752  11.531  18.228  0.00  0.00    +0.000 A 
ATOM      7  C   UNL     1      -2.302  10.643  17.262  0.00  0.00    +0.000 A 
ATOM      8  C   UNL     1      -1.132   9.930  17.501  0.00  0.00    +0.000 A 
ATOM      9  C   UNL     1      -0.460  10.148  18.718  0.00  0.00    +0.000 A 
ENDROOT
BRANCH   1  11
ATOM     10  O   UNL     1       2.230   9.014  17.584  0.00  0.00    +0.000 OA
ATOM     11  C   UNL     1       1.681   8.741  18.647  0.00  0.00    +0.000 C 
ATOM     12  N   UNL     1       1.932   7.556  19.303  0.00  0.00    +0.000 N 
ATOM     13  H   UNL     1       1.285   7.268  20.021  0.00  0.00    +0.000 HD
BRANCH  12  14
ATOM     14  C   UNL     1       2.854   6.579  18.732  0.00  0.00    +0.000 C 
ATOM     15  C   UNL     1       2.153   5.613  17.740  0.00  0.00    +0.000 C 
ATOM     16  N   UNL     1       2.265   4.197  18.178  0.00  0.00    +0.000 NA
ATOM     17  C   UNL     1       3.696   3.823  18.209  0.00  0.00    +0.000 C 
ATOM     18  C   UNL     1       4.510   4.765  19.113  0.00  0.00    +0.000 C 
ATOM     19  C   UNL     1       3.558   5.746  19.824  0.00  0.00    +0.000 C 
ATOM     20  C   UNL     1       2.515   4.899  20.566  0.00  0.00    +0.000 C 
ATOM     21  C   UNL     1       1.710   4.076  19.545  0.00  0.00    +0.000 C 
ENDBRANCH  12  14
ENDBRANCH   1  11
BRANCH   3  22
ATOM     22  C   UNL     1      -0.416  12.057  21.800  0.00  0.00    +0.000 C 
BRANCH  22  23
ATOM     23  C   UNL     1      -1.204  11.483  22.959  0.00  0.00    +0.000 C 
ATOM     24  F   UNL     1      -2.524  11.778  22.811  0.00  0.00    +0.000 F 
ATOM     25  F   UNL     1      -1.121  10.124  22.909  0.00  0.00    +0.000 F 
ENDBRANCH  22  23
ENDBRANCH   3  22
TORSDOF 4
ENDMDL
MODEL 6
REMARK VINA RESULT:      -7.3      3.327      7.601
REMARK  Name = 
REMARK  4 active torsions:
REMARK  status: ('A' for Active; 'I' for Inactive)
REMARK    1  A    between atoms: C_2  and  C_12
REMARK    2  A    between atoms: N_3  and  C_4
REMARK    3  A    between atoms: N_14  and  C_15
REMARK    4  A    between atoms: C_15  and  C_16
REMARK                            x       y       z     vdW  Elec       q    Type
REMARK                         _______ _______ _______ _____ _____    ______ ____
ROOT
ATOM      1  C   UNL     1       1.378   8.882  19.009  0.00  0.00    +0.000 A 
ATOM      2  C   UNL     1       0.724   9.762  18.152  0.00  0.00    +0.000 A 
ATOM      3  N   UNL     1      -0.084  10.588  18.906  0.00  0.00    +0.000 N 
ATOM      4  C   UNL     1       0.036  10.268  20.232  0.00  0.00    +0.000 A 
ATOM      5  N   UNL     1      -0.639  10.863  21.238  0.00  0.00    +0.000 NA
ATOM      6  C   UNL     1      -0.346  10.339  22.453  0.00  0.00    +0.000 A 
ATOM      7  C   UNL     1       0.545   9.304  22.699  0.00  0.00    +0.000 A 
ATOM      8  C   UNL     1       1.212   8.727  21.624  0.00  0.00    +0.000 A 
ATOM      9  C   UNL     1       0.948   9.225  20.334  0.00  0.00    +0.000 A 
ENDROOT
BRANCH   1  11
ATOM     10  O   UNL     1       3.265   7.930  17.973  0.00  0.00    +0.000 OA
ATOM     11  C   UNL     1       2.282   7.780  18.691  0.00  0.00    +0.000 C 
ATOM     12  N   UNL     1       1.992   6.563  19.269  0.00  0.00    +0.000 N 
ATOM     13  H   UNL     1       1.062   6.423  19.631  0.00  0.00    +0.000 HD
BRANCH  12  14
ATOM     14  C   UNL     1       2.849   5.407  19.021  0.00  0.00    +0.000 C 
ATOM     15  C   UNL     1       2.420   4.612  17.759  0.00  0.00    +0.000 C 
ATOM     16  N   UNL     1       2.064   3.207  18.089  0.00  0.00    +0.000 NA
ATOM     17  C   UNL     1       3.259   2.533  18.641  0.00  0.00    +0.000 C 
ATOM     18  C   UNL     1       3.820   3.280  19.864  0.00  0.00    +0.000 C 
ATOM     19  C   UNL     1       2.881   4.447  20.228  0.00  0.00    +0.000 C 
ATOM     20  C   UNL     1       1.483   3.848  20.436  0.00  0.00    +0.000 C 
ATOM     21  C   UNL     1       1.001   3.215  19.119  0.00  0.00    +0.000 C 
ENDBRANCH  12  14
ENDBRANCH   1  11
BRANCH   3  22
ATOM     22  C   UNL     1      -1.022  11.564  18.387  0.00  0.00    +0.000 C 
BRANCH  22  23
ATOM     23  C   UNL     1      -0.494  12.983  18.362  0.00  0.00    +0.000 C 
ATOM     24  F   UNL     1      -0.885  13.643  19.485  0.00  0.00    +0.000 F 
ATOM     25  F   UNL     1       0.867  12.940  18.414  0.00  0.00    +0.000 F 
ENDBRANCH  22  23
ENDBRANCH   3  22
TORSDOF 4
ENDMDL
MODEL 7
REMARK VINA RESULT:      -7.2      2.361      3.488
REMARK  Name = 
REMARK  4 active torsions:
REMARK  status: ('A' for Active; 'I' for Inactive)
REMARK    1  A    between atoms: C_2  and  C_12
REMARK    2  A    between atoms: N_3  and  C_4
REMARK    3  A    between atoms: N_14  and  C_15
REMARK    4  A    between atoms: C_15  and  C_16
REMARK                            x       y       z     vdW  Elec       q    Type
REMARK                         _______ _______ _______ _____ _____    ______ ____
ROOT
ATOM      1  C   UNL     1       2.976   7.028  18.377  0.00  0.00    +0.000 A 
ATOM      2  C   UNL     1       4.126   6.729  17.654  0.00  0.00    +0.000 A 
ATOM      3  N   UNL     1       4.569   5.479  18.034  0.00  0.00    +0.000 N 
ATOM      4  C   UNL     1       3.729   4.958  18.982  0.00  0.00    +0.000 A 
ATOM      5  N   UNL     1       3.889   3.764  19.589  0.00  0.00    +0.000 NA
ATOM      6  C   UNL     1       2.924   3.502  20.503  0.00  0.00    +0.000 A 
ATOM      7  C   UNL     1       1.859   4.333  20.821  0.00  0.00    +0.000 A 
ATOM      8  C   UNL     1       1.744   5.554  20.166  0.00  0.00    +0.000 A 
ATOM      9  C   UNL     1       2.720   5.886  19.207  0.00  0.00    +0.000 A 
ENDROOT
BRANCH   1  11
ATOM     10  O   UNL     1       1.832   8.808  17.346  0.00  0.00    +0.000 OA
ATOM     11  C   UNL     1       2.177   8.251  18.383  0.00  0.00    +0.000 C 
ATOM     12  N   UNL     1       1.800   8.732  19.617  0.00  0.00    +0.000 N 
ATOM     13  H   UNL     1       2.305   8.402  20.426  0.00  0.00    +0.000 HD
BRANCH  12  14
ATOM     14  C   UNL     1       0.988   9.940  19.721  0.00  0.00    +0.000 C 
ATOM     15  C   UNL     1       1.529  10.928  20.789  0.00  0.00    +0.000 C 
ATOM     16  N   UNL     1       0.527  11.187  21.857  0.00  0.00    +0.000 NA
ATOM     17  C   UNL     1      -0.663  11.818  21.246  0.00  0.00    +0.000 C 
ATOM     18  C   UNL     1      -1.247  10.954  20.114  0.00  0.00    +0.000 C 
ATOM     19  C   UNL     1      -0.486   9.616  20.043  0.00  0.00    +0.000 C 
ATOM     20  C   UNL     1      -0.570   8.979  21.438  0.00  0.00    +0.000 C 
ATOM     21  C   UNL     1       0.127   9.895  22.457  0.00  0.00    +0.000 C 
ENDBRANCH  12  14
ENDBRANCH   1  11
BRANCH   3  22
ATOM     22  C   UNL     1       5.802   4.847  17.606  0.00  0.00    +0.000 C 
BRANCH  22  23
ATOM     23  C   UNL     1       5.765   4.303  16.193  0.00  0.00    +0.000 C 
ATOM     24  F   UNL     1       4.491   3.967  15.860  0.00  0.00    +0.000 F 
ATOM     25  F   UNL     1       6.121   5.301  15.335  0.00  0.00    +0.000 F 
ENDBRANCH  22  23
ENDBRANCH   3  22
TORSDOF 4
ENDMDL
MODEL 8
REMARK VINA RESULT:      -7.1      3.376      7.549
REMARK  Name = 
REMARK  4 active torsions:
REMARK  status: ('A' for Active; 'I' for Inactive)
REMARK    1  A    between atoms: C_2  and  C_12
REMARK    2  A    between atoms: N_3  and  C_4
REMARK    3  A    between atoms: N_14  and  C_15
REMARK    4  A    between atoms: C_15  and  C_16
REMARK                            x       y       z     vdW  Elec       q    Type
REMARK                         _______ _______ _______ _____ _____    ______ ____
ROOT
ATOM      1  C   UNL     1       1.906   8.834  18.814  0.00  0.00    +0.000 A 
ATOM      2  C   UNL     1       1.733  10.024  18.114  0.00  0.00    +0.000 A 
ATOM      3  N   UNL     1       0.990  10.887  18.894  0.00  0.00    +0.000 N 
ATOM      4  C   UNL     1       0.683  10.285  20.085  0.00  0.00    +0.000 A 
ATOM      5  N   UNL     1      -0.058  10.842  21.066  0.00  0.00    +0.000 NA
ATOM      6  C   UNL     1      -0.225  10.021  22.132  0.00  0.00    +0.000 A 
ATOM      7  C   UNL     1       0.288   8.738  22.258  0.00  0.00    +0.000 A 
ATOM      8  C   UNL     1       1.043   8.214  21.214  0.00  0.00    +0.000 A 
ATOM      9  C   UNL     1       1.249   9.017  20.077  0.00  0.00    +0.000 A 
ENDROOT
BRANCH   1  11
ATOM     10  O   UNL     1       3.582   7.599  17.716  0.00  0.00    +0.000 OA
ATOM     11  C   UNL     1       2.558   7.597  18.392  0.00  0.00    +0.000 C 
ATOM     12  N   UNL     1       1.981   6.422  18.820  0.00  0.00    +0.000 N 
ATOM     13  H   UNL     1       1.027   6.457  19.145  0.00  0.00    +0.000 HD
BRANCH  12  14
ATOM     14  C   UNL     1       2.572   5.137  18.460  0.00  0.00    +0.000 C 
ATOM     15  C   UNL     1       1.552   4.185  17.783  0.00  0.00    +0.000 C 
ATOM     16  N   UNL     1       1.377   2.925  18.554  0.00  0.00    +0.000 NA
ATOM     17  C   UNL     1       2.672   2.213  18.596  0.00  0.00    +0.000 C 
ATOM     18  C   UNL     1       3.787   3.094  19.188  0.00  0.00    +0.000 C 
ATOM     19  C   UNL     1       3.183   4.423  19.684  0.00  0.00    +0.000 C 
ATOM     20  C   UNL     1       2.064   4.064  20.672  0.00  0.00    +0.000 C 
ATOM     21  C   UNL     1       0.974   3.267  19.936  0.00  0.00    +0.000 C 
ENDBRANCH  12  14
ENDBRANCH   1  11
BRANCH   3  22
ATOM     22  C   UNL     1       0.488  12.184  18.485  0.00  0.00    +0.000 C 
BRANCH  22  23
ATOM     23  C   UNL     1       1.480  13.316  18.655  0.00  0.00    +0.000 C 
ATOM     24  F   UNL     1       2.324  13.041  19.684  0.00  0.00    +0.000 F 
ATOM     25  F   UNL     1       2.263  13.378  17.541  0.00  0.00    +0.000 F 
ENDBRANCH  22  23
ENDBRANCH   3  22
TORSDOF 4
ENDMDL
MODEL 9
REMARK VINA RESULT:      -7.1      1.627      1.853
REMARK  Name = 
REMARK  4 active torsions:
REMARK  status: ('A' for Active; 'I' for Inactive)
REMARK    1  A    between atoms: C_2  and  C_12
REMARK    2  A    between atoms: N_3  and  C_4
REMARK    3  A    between atoms: N_14  and  C_15
REMARK    4  A    between atoms: C_15  and  C_16
REMARK                            x       y       z     vdW  Elec       q    Type
REMARK                         _______ _______ _______ _____ _____    ______ ____
ROOT
ATOM      1  C   UNL     1       2.827   6.782  18.437  0.00  0.00    +0.000 A 
ATOM      2  C   UNL     1       2.307   5.639  19.035  0.00  0.00    +0.000 A 
ATOM      3  N   UNL     1       3.195   4.601  18.843  0.00  0.00    +0.000 N 
ATOM      4  C   UNL     1       4.282   5.048  18.139  0.00  0.00    +0.000 A 
ATOM      5  N   UNL     1       5.326   4.283  17.757  0.00  0.00    +0.000 NA
ATOM      6  C   UNL     1       6.258   4.973  17.055  0.00  0.00    +0.000 A 
ATOM      7  C   UNL     1       6.200   6.322  16.737  0.00  0.00    +0.000 A 
ATOM      8  C   UNL     1       5.100   7.062  17.156  0.00  0.00    +0.000 A 
ATOM      9  C   UNL     1       4.095   6.400  17.886  0.00  0.00    +0.000 A 
ENDROOT
BRANCH   1  11
ATOM     10  O   UNL     1       2.273   8.743  17.259  0.00  0.00    +0.000 OA
ATOM     11  C   UNL     1       2.235   8.112  18.310  0.00  0.00    +0.000 C 
ATOM     12  N   UNL     1       1.599   8.609  19.426  0.00  0.00    +0.000 N 
ATOM     13  H   UNL     1       1.808   8.185  20.316  0.00  0.00    +0.000 HD
BRANCH  12  14
ATOM     14  C   UNL     1       0.965   9.924  19.388  0.00  0.00    +0.000 C 
ATOM     15  C   UNL     1       1.677  10.952  20.305  0.00  0.00    +0.000 C 
ATOM     16  N   UNL     1       0.763  11.483  21.352  0.00  0.00    +0.000 NA
ATOM     17  C   UNL     1      -0.352  12.193  20.688  0.00  0.00    +0.000 C 
ATOM     18  C   UNL     1      -1.093  11.284  19.692  0.00  0.00    +0.000 C 
ATOM     19  C   UNL     1      -0.525   9.854  19.781  0.00  0.00    +0.000 C 
ATOM     20  C   UNL     1      -0.642   9.417  21.248  0.00  0.00    +0.000 C 
ATOM     21  C   UNL     1       0.214  10.347  22.124  0.00  0.00    +0.000 C 
ENDBRANCH  12  14
ENDBRANCH   1  11
BRANCH   3  22
ATOM     22  C   UNL     1       2.975   3.215  19.205  0.00  0.00    +0.000 C 
BRANCH  22  23
ATOM     23  C   UNL     1       2.079   2.456  18.246  0.00  0.00    +0.000 C 
ATOM     24  F   UNL     1       0.779   2.782  18.472  0.00  0.00    +0.000 F 
ATOM     25  F   UNL     1       2.350   2.874  16.978  0.00  0.00    +0.000 F 
ENDBRANCH  22  23
ENDBRANCH   3  22
TORSDOF 4
ENDMDL
