MODEL 1
REMARK VINA RESULT:      -7.5      0.000      0.000
REMARK  Name = 
REMARK  5 active torsions:
REMARK  status: ('A' for Active; 'I' for Inactive)
REMARK    1  A    between atoms: C_1  and  C_2
REMARK    2  A    between atoms: N_6  and  C_7
REMARK    3  A    between atoms: C_7  and  C_8
REMARK    4  A    between atoms: C_8  and  C_9
REMARK    5  A    between atoms: N_15  and  N_16
REMARK                            x       y       z     vdW  Elec       q    Type
REMARK                         _______ _______ _______ _____ _____    ______ ____
ROOT
ATOM      1  C   UNL     1       5.054   4.891  16.105  0.00  0.00    +0.000 C 
ATOM      2  C   UNL     1       6.006   5.757  16.876  0.00  0.00    +0.000 A 
ATOM      3  N   UNL     1       6.218   6.978  16.503  0.00  0.00    +0.000 NA
ATOM      4  N   UNL     1       7.092   7.770  17.238  0.00  0.00    +0.000 NA
ATOM      5  C   UNL     1       7.760   7.297  18.251  0.00  0.00    +0.000 A 
ATOM      6  N   UNL     1       8.645   8.101  18.948  0.00  0.00    +0.000 N 
ATOM      7  N   UNL     1       7.609   5.984  18.673  0.00  0.00    +0.000 N 
ATOM      8  C   UNL     1       6.675   5.156  18.079  0.00  0.00    +0.000 A 
ATOM      9  O   UNL     1       6.366   4.035  18.468  0.00  0.00    +0.000 OA
ATOM     10  H   UNL     1       9.378   7.581  19.424  0.00  0.00    +0.000 HD
ENDROOT
BRANCH   7  11
ATOM     11  N   UNL     1       8.313   5.515  19.832  0.00  0.00    +0.000 N 
ATOM     12  H   UNL     1       8.344   4.497  19.751  0.00  0.00    +0.000 HD
ATOM     13  H   UNL     1       9.293   5.806  19.699  0.00  0.00    +0.000 HD
ENDBRANCH   7  11
BRANCH   6  14
ATOM     14  C   UNL     1       8.978   9.422  18.415  0.00  0.00    +0.000 C 
BRANCH  14  15
ATOM     15  C   UNL     1       9.246  10.461  19.503  0.00  0.00    +0.000 C 
BRANCH  15  16
ATOM     16  C   UNL     1      10.300  11.453  19.053  0.00  0.00    +0.000 A 
ATOM     17  C   UNL     1      10.321  11.907  17.725  0.00  0.00    +0.000 A 
ATOM     18  C   UNL     1      11.327  12.773  17.286  0.00  0.00    +0.000 A 
ATOM     19  C   UNL     1      12.319  13.191  18.167  0.00  0.00    +0.000 A 
ATOM     20  C   UNL     1      12.313  12.745  19.487  0.00  0.00    +0.000 A 
ATOM     21  C   UNL     1      11.308  11.878  19.928  0.00  0.00    +0.000 A 
ENDBRANCH  15  16
ENDBRANCH  14  15
ENDBRANCH   6  14
TORSDOF 4
ENDMDL
MODEL 2
REMARK VINA RESULT:      -7.4      5.828      8.322
REMARK  Name = 
REMARK  5 active torsions:
REMARK  status: ('A' for Active; 'I' for Inactive)
REMARK    1  A    between atoms: C_1  and  C_2
REMARK    2  A    between atoms: N_6  and  C_7
REMARK    3  A    between atoms: C_7  and  C_8
REMARK    4  A    between atoms: C_8  and  C_9
REMARK    5  A    between atoms: N_15  and  N_16
REMARK                            x       y       z     vdW  Elec       q    Type
REMARK                         _______ _______ _______ _____ _____    ______ ____
ROOT
ATOM      1  C   UNL     1       6.120   3.551  13.347  0.00  0.00    +0.000 C 
ATOM      2  C   UNL     1       6.127   4.103  14.742  0.00  0.00    +0.000 A 
ATOM      3  N   UNL     1       5.343   3.600  15.641  0.00  0.00    +0.000 NA
ATOM      4  N   UNL     1       5.373   4.113  16.931  0.00  0.00    +0.000 NA
ATOM      5  C   UNL     1       6.117   5.135  17.246  0.00  0.00    +0.000 A 
ATOM      6  N   UNL     1       6.107   5.644  18.534  0.00  0.00    +0.000 N 
ATOM      7  N   UNL     1       6.947   5.745  16.317  0.00  0.00    +0.000 N 
ATOM      8  C   UNL     1       7.073   5.230  15.039  0.00  0.00    +0.000 A 
ATOM      9  O   UNL     1       7.879   5.605  14.196  0.00  0.00    +0.000 OA
ATOM     10  H   UNL     1       6.378   6.622  18.586  0.00  0.00    +0.000 HD
ENDROOT
BRANCH   7  11
ATOM     11  N   UNL     1       7.801   6.828  16.715  0.00  0.00    +0.000 N 
ATOM     12  H   UNL     1       7.508   7.635  16.161  0.00  0.00    +0.000 HD
ATOM     13  H   UNL     1       7.515   7.068  17.676  0.00  0.00    +0.000 HD
ENDBRANCH   7  11
BRANCH   6  14
ATOM     14  C   UNL     1       5.106   5.158  19.483  0.00  0.00    +0.000 C 
BRANCH  14  15
ATOM     15  C   UNL     1       3.705   5.707  19.216  0.00  0.00    +0.000 C 
BRANCH  15  16
ATOM     16  C   UNL     1       2.656   4.635  19.436  0.00  0.00    +0.000 A 
ATOM     17  C   UNL     1       2.018   4.035  18.340  0.00  0.00    +0.000 A 
ATOM     18  C   UNL     1       1.006   3.091  18.537  0.00  0.00    +0.000 A 
ATOM     19  C   UNL     1       0.622   2.739  19.827  0.00  0.00    +0.000 A 
ATOM     20  C   UNL     1       1.245   3.330  20.924  0.00  0.00    +0.000 A 
ATOM     21  C   UNL     1       2.257   4.275  20.731  0.00  0.00    +0.000 A 
ENDBRANCH  15  16
ENDBRANCH  14  15
ENDBRANCH   6  14
TORSDOF 4
ENDMDL
MODEL 3
REMARK VINA RESULT:      -7.3      0.853      1.127
REMARK  Name = 
REMARK  5 active torsions:
REMARK  status: ('A' for Active; 'I' for Inactive)
REMARK    1  A    between atoms: C_1  and  C_2
REMARK    2  A    between atoms: N_6  and  C_7
REMARK    3  A    between atoms: C_7  and  C_8
REMARK    4  A    between atoms: C_8  and  C_9
REMARK    5  A    between atoms: N_15  and  N_16
REMARK                            x       y       z     vdW  Elec       q    Type
REMARK                         _______ _______ _______ _____ _____    ______ ____
ROOT
ATOM      1  C   UNL     1       5.273   4.614  15.949  0.00  0.00    +0.000 C 
ATOM      2  C   UNL     1       6.119   5.572  16.733  0.00  0.00    +0.000 A 
ATOM      3  N   UNL     1       6.304   6.778  16.301  0.00  0.00    +0.000 NA
ATOM      4  N   UNL     1       7.079   7.657  17.047  0.00  0.00    +0.000 NA
ATOM      5  C   UNL     1       7.685   7.281  18.137  0.00  0.00    +0.000 A 
ATOM      6  N   UNL     1       8.473   8.169  18.847  0.00  0.00    +0.000 N 
ATOM      7  N   UNL     1       7.561   5.990  18.630  0.00  0.00    +0.000 N 
ATOM      8  C   UNL     1       6.717   5.080  18.020  0.00  0.00    +0.000 A 
ATOM      9  O   UNL     1       6.430   3.971  18.456  0.00  0.00    +0.000 OA
ATOM     10  H   UNL     1       9.189   7.718  19.410  0.00  0.00    +0.000 HD
ENDROOT
BRANCH   7  11
ATOM     11  N   UNL     1       8.192   5.629  19.868  0.00  0.00    +0.000 N 
ATOM     12  H   UNL     1       7.554   5.930  20.607  0.00  0.00    +0.000 HD
ATOM     13  H   UNL     1       8.153   4.600  19.909  0.00  0.00    +0.000 HD
ENDBRANCH   7  11
BRANCH   6  14
ATOM     14  C   UNL     1       8.786   9.471  18.257  0.00  0.00    +0.000 C 
BRANCH  14  15
ATOM     15  C   UNL     1       9.387  10.458  19.258  0.00  0.00    +0.000 C 
BRANCH  15  16
ATOM     16  C   UNL     1       9.872  11.710  18.554  0.00  0.00    +0.000 A 
ATOM     17  C   UNL     1      11.044  11.677  17.783  0.00  0.00    +0.000 A 
ATOM     18  C   UNL     1      11.532  12.841  17.182  0.00  0.00    +0.000 A 
ATOM     19  C   UNL     1      10.857  14.046  17.346  0.00  0.00    +0.000 A 
ATOM     20  C   UNL     1       9.694  14.093  18.112  0.00  0.00    +0.000 A 
ATOM     21  C   UNL     1       9.204  12.931  18.716  0.00  0.00    +0.000 A 
ENDBRANCH  15  16
ENDBRANCH  14  15
ENDBRANCH   6  14
TORSDOF 4
ENDMDL
MODEL 4
REMARK VINA RESULT:      -7.3      5.791      8.333
REMARK  Name = 
REMARK  5 active torsions:
REMARK  status: ('A' for Active; 'I' for Inactive)
REMARK    1  A    between atoms: C_1  and  C_2
REMARK    2  A    between atoms: N_6  and  C_7
REMARK    3  A    between atoms: C_7  and  C_8
REMARK    4  A    between atoms: C_8  and  C_9
REMARK    5  A    between atoms: N_15  and  N_16
REMARK                            x       y       z     vdW  Elec       q    Type
REMARK                         _______ _______ _______ _____ _____    ______ ____
ROOT
ATOM      1  C   UNL     1       7.324   5.006  14.223  0.00  0.00    +0.000 C 
ATOM      2  C   UNL     1       6.517   5.244  15.465  0.00  0.00    +0.000 A 
ATOM      3  N   UNL     1       5.360   5.819  15.387  0.00  0.00    +0.000 NA
ATOM      4  N   UNL     1       4.621   6.018  16.546  0.00  0.00    +0.000 NA
ATOM      5  C   UNL     1       5.089   5.708  17.721  0.00  0.00    +0.000 A 
ATOM      6  N   UNL     1       4.342   5.942  18.862  0.00  0.00    +0.000 N 
ATOM      7  N   UNL     1       6.340   5.128  17.875  0.00  0.00    +0.000 N 
ATOM      8  C   UNL     1       7.099   4.783  16.771  0.00  0.00    +0.000 A 
ATOM      9  O   UNL     1       8.143   4.143  16.796  0.00  0.00    +0.000 OA
ATOM     10  H   UNL     1       4.905   6.048  19.701  0.00  0.00    +0.000 HD
ENDROOT
BRANCH   7  11
ATOM     11  N   UNL     1       6.798   4.740  19.179  0.00  0.00    +0.000 N 
ATOM     12  H   UNL     1       6.066   4.142  19.568  0.00  0.00    +0.000 HD
ATOM     13  H   UNL     1       7.586   4.096  19.016  0.00  0.00    +0.000 HD
ENDBRANCH   7  11
BRANCH   6  14
ATOM     14  C   UNL     1       3.112   6.727  18.758  0.00  0.00    +0.000 C 
BRANCH  14  15
ATOM     15  C   UNL     1       2.172   6.535  19.947  0.00  0.00    +0.000 C 
BRANCH  15  16
ATOM     16  C   UNL     1       1.867   5.066  20.160  0.00  0.00    +0.000 A 
ATOM     17  C   UNL     1       2.176   4.450  21.383  0.00  0.00    +0.000 A 
ATOM     18  C   UNL     1       1.955   3.082  21.565  0.00  0.00    +0.000 A 
ATOM     19  C   UNL     1       1.425   2.317  20.531  0.00  0.00    +0.000 A 
ATOM     20  C   UNL     1       1.117   2.915  19.311  0.00  0.00    +0.000 A 
ATOM     21  C   UNL     1       1.338   4.284  19.125  0.00  0.00    +0.000 A 
ENDBRANCH  15  16
ENDBRANCH  14  15
ENDBRANCH   6  14
TORSDOF 4
ENDMDL
MODEL 5
REMARK VINA RESULT:      -7.3      5.780      8.417
REMARK  Name = 
REMARK  5 active torsions:
REMARK  status: ('A' for Active; 'I' for Inactive)
REMARK    1  A    between atoms: C_1  and  C_2
REMARK    2  A    between atoms: N_6  and  C_7
REMARK    3  A    between atoms: C_7  and  C_8
REMARK    4  A    between atoms: C_8  and  C_9
REMARK    5  A    between atoms: N_15  and  N_16
REMARK                            x       y       z     vdW  Elec       q    Type
REMARK                         _______ _______ _______ _____ _____    ______ ____
ROOT
ATOM      1  C   UNL     1       6.877   4.122  14.782  0.00  0.00    +0.000 C 
ATOM      2  C   UNL     1       6.188   4.648  16.006  0.00  0.00    +0.000 A 
ATOM      3  N   UNL     1       4.956   5.038  15.940  0.00  0.00    +0.000 NA
ATOM      4  N   UNL     1       4.329   5.508  17.087  0.00  0.00    +0.000 NA
ATOM      5  C   UNL     1       4.969   5.635  18.215  0.00  0.00    +0.000 A 
ATOM      6  N   UNL     1       4.327   6.132  19.336  0.00  0.00    +0.000 N 
ATOM      7  N   UNL     1       6.302   5.274  18.340  0.00  0.00    +0.000 N 
ATOM      8  C   UNL     1       6.976   4.686  17.285  0.00  0.00    +0.000 A 
ATOM      9  O   UNL     1       8.101   4.205  17.337  0.00  0.00    +0.000 OA
ATOM     10  H   UNL     1       4.958   6.557  20.010  0.00  0.00    +0.000 HD
ENDROOT
BRANCH   7  11
ATOM     11  N   UNL     1       6.956   5.367  19.614  0.00  0.00    +0.000 N 
ATOM     12  H   UNL     1       7.656   4.623  19.626  0.00  0.00    +0.000 HD
ATOM     13  H   UNL     1       7.514   6.233  19.577  0.00  0.00    +0.000 HD
ENDBRANCH   7  11
BRANCH   6  14
ATOM     14  C   UNL     1       2.988   6.704  19.194  0.00  0.00    +0.000 C 
BRANCH  14  15
ATOM     15  C   UNL     1       1.997   6.183  20.234  0.00  0.00    +0.000 C 
BRANCH  15  16
ATOM     16  C   UNL     1       1.800   4.687  20.088  0.00  0.00    +0.000 A 
ATOM     17  C   UNL     1       1.395   4.145  18.859  0.00  0.00    +0.000 A 
ATOM     18  C   UNL     1       1.152   2.774  18.732  0.00  0.00    +0.000 A 
ATOM     19  C   UNL     1       1.309   1.935  19.830  0.00  0.00    +0.000 A 
ATOM     20  C   UNL     1       1.707   2.460  21.057  0.00  0.00    +0.000 A 
ATOM     21  C   UNL     1       1.950   3.832  21.187  0.00  0.00    +0.000 A 
ENDBRANCH  15  16
ENDBRANCH  14  15
ENDBRANCH   6  14
TORSDOF 4
ENDMDL
MODEL 6
REMARK VINA RESULT:      -7.3      0.861      1.193
REMARK  Name = 
REMARK  5 active torsions:
REMARK  status: ('A' for Active; 'I' for Inactive)
REMARK    1  A    between atoms: C_1  and  C_2
REMARK    2  A    between atoms: N_6  and  C_7
REMARK    3  A    between atoms: C_7  and  C_8
REMARK    4  A    between atoms: C_8  and  C_9
REMARK    5  A    between atoms: N_15  and  N_16
REMARK                            x       y       z     vdW  Elec       q    Type
REMARK                         _______ _______ _______ _____ _____    ______ ____
ROOT
ATOM      1  C   UNL     1       5.286   4.726  15.917  0.00  0.00    +0.000 C 
ATOM      2  C   UNL     1       6.149   5.654  16.719  0.00  0.00    +0.000 A 
ATOM      3  N   UNL     1       6.357   6.864  16.308  0.00  0.00    +0.000 NA
ATOM      4  N   UNL     1       7.146   7.714  17.072  0.00  0.00    +0.000 NA
ATOM      5  C   UNL     1       7.744   7.307  18.156  0.00  0.00    +0.000 A 
ATOM      6  N   UNL     1       8.547   8.169  18.883  0.00  0.00    +0.000 N 
ATOM      7  N   UNL     1       7.594   6.011  18.626  0.00  0.00    +0.000 N 
ATOM      8  C   UNL     1       6.735   5.128  17.998  0.00  0.00    +0.000 A 
ATOM      9  O   UNL     1       6.426   4.017  18.414  0.00  0.00    +0.000 OA
ATOM     10  H   UNL     1       9.253   7.694  19.439  0.00  0.00    +0.000 HD
ENDROOT
BRANCH   7  11
ATOM     11  N   UNL     1       8.216   5.616  19.858  0.00  0.00    +0.000 N 
ATOM     12  H   UNL     1       7.510   5.750  20.585  0.00  0.00    +0.000 HD
ATOM     13  H   UNL     1       8.323   4.593  19.799  0.00  0.00    +0.000 HD
ENDBRANCH   7  11
BRANCH   6  14
ATOM     14  C   UNL     1       8.885   9.475  18.317  0.00  0.00    +0.000 C 
BRANCH  14  15
ATOM     15  C   UNL     1       9.361  10.481  19.364  0.00  0.00    +0.000 C 
BRANCH  15  16
ATOM     16  C   UNL     1       9.890  11.737  18.701  0.00  0.00    +0.000 A 
ATOM     17  C   UNL     1       9.332  12.987  19.010  0.00  0.00    +0.000 A 
ATOM     18  C   UNL     1       9.772  14.143  18.358  0.00  0.00    +0.000 A 
ATOM     19  C   UNL     1      10.771  14.061  17.393  0.00  0.00    +0.000 A 
ATOM     20  C   UNL     1      11.331  12.826  17.074  0.00  0.00    +0.000 A 
ATOM     21  C   UNL     1      10.892  11.668  17.724  0.00  0.00    +0.000 A 
ENDBRANCH  15  16
ENDBRANCH  14  15
ENDBRANCH   6  14
TORSDOF 4
ENDMDL
MODEL 7
REMARK VINA RESULT:      -7.3      1.454      2.696
REMARK  Name = 
REMARK  5 active torsions:
REMARK  status: ('A' for Active; 'I' for Inactive)
REMARK    1  A    between atoms: C_1  and  C_2
REMARK    2  A    between atoms: N_6  and  C_7
REMARK    3  A    between atoms: C_7  and  C_8
REMARK    4  A    between atoms: C_8  and  C_9
REMARK    5  A    between atoms: N_15  and  N_16
REMARK                            x       y       z     vdW  Elec       q    Type
REMARK                         _______ _______ _______ _____ _____    ______ ____
ROOT
ATOM      1  C   UNL     1       4.550   3.303  19.311  0.00  0.00    +0.000 C 
ATOM      2  C   UNL     1       5.334   4.443  18.732  0.00  0.00    +0.000 A 
ATOM      3  N   UNL     1       6.211   5.061  19.456  0.00  0.00    +0.000 NA
ATOM      4  N   UNL     1       6.938   6.105  18.899  0.00  0.00    +0.000 NA
ATOM      5  C   UNL     1       6.713   6.528  17.688  0.00  0.00    +0.000 A 
ATOM      6  N   UNL     1       7.434   7.588  17.166  0.00  0.00    +0.000 N 
ATOM      7  N   UNL     1       5.757   5.935  16.876  0.00  0.00    +0.000 N 
ATOM      8  C   UNL     1       5.067   4.815  17.302  0.00  0.00    +0.000 A 
ATOM      9  O   UNL     1       4.313   4.138  16.613  0.00  0.00    +0.000 OA
ATOM     10  H   UNL     1       6.947   8.086  16.425  0.00  0.00    +0.000 HD
ENDROOT
BRANCH   7  11
ATOM     11  N   UNL     1       5.580   6.386  15.525  0.00  0.00    +0.000 N 
ATOM     12  H   UNL     1       4.613   6.709  15.460  0.00  0.00    +0.000 HD
ATOM     13  H   UNL     1       6.138   7.250  15.445  0.00  0.00    +0.000 HD
ENDBRANCH   7  11
BRANCH   6  14
ATOM     14  C   UNL     1       8.305   8.361  18.053  0.00  0.00    +0.000 C 
BRANCH  14  15
ATOM     15  C   UNL     1       8.262   9.864  17.780  0.00  0.00    +0.000 C 
BRANCH  15  16
ATOM     16  C   UNL     1       9.366  10.579  18.532  0.00  0.00    +0.000 A 
ATOM     17  C   UNL     1       9.310  10.693  19.929  0.00  0.00    +0.000 A 
ATOM     18  C   UNL     1      10.293  11.404  20.625  0.00  0.00    +0.000 A 
ATOM     19  C   UNL     1      11.337  12.008  19.932  0.00  0.00    +0.000 A 
ATOM     20  C   UNL     1      11.403  11.907  18.544  0.00  0.00    +0.000 A 
ATOM     21  C   UNL     1      10.421  11.197  17.846  0.00  0.00    +0.000 A 
ENDBRANCH  15  16
ENDBRANCH  14  15
ENDBRANCH   6  14
TORSDOF 4
ENDMDL
MODEL 8
REMARK VINA RESULT:      -7.3      6.114      8.506
REMARK  Name = 
REMARK  5 active torsions:
REMARK  status: ('A' for Active; 'I' for Inactive)
REMARK    1  A    between atoms: C_1  and  C_2
REMARK    2  A    between atoms: N_6  and  C_7
REMARK    3  A    between atoms: C_7  and  C_8
REMARK    4  A    between atoms: C_8  and  C_9
REMARK    5  A    between atoms: N_15  and  N_16
REMARK                            x       y       z     vdW  Elec       q    Type
REMARK                         _______ _______ _______ _____ _____    ______ ____
ROOT
ATOM      1  C   UNL     1       6.311   3.614  12.604  0.00  0.00    +0.000 C 
ATOM      2  C   UNL     1       6.297   3.994  14.055  0.00  0.00    +0.000 A 
ATOM      3  N   UNL     1       5.559   3.336  14.890  0.00  0.00    +0.000 NA
ATOM      4  N   UNL     1       5.570   3.691  16.233  0.00  0.00    +0.000 NA
ATOM      5  C   UNL     1       6.248   4.716  16.666  0.00  0.00    +0.000 A 
ATOM      6  N   UNL     1       6.219   5.065  18.005  0.00  0.00    +0.000 N 
ATOM      7  N   UNL     1       7.025   5.487  15.813  0.00  0.00    +0.000 N 
ATOM      8  C   UNL     1       7.170   5.138  14.483  0.00  0.00    +0.000 A 
ATOM      9  O   UNL     1       7.939   5.665  13.688  0.00  0.00    +0.000 OA
ATOM     10  H   UNL     1       6.425   6.046  18.173  0.00  0.00    +0.000 HD
ENDROOT
BRANCH   7  11
ATOM     11  N   UNL     1       7.809   6.569  16.336  0.00  0.00    +0.000 N 
ATOM     12  H   UNL     1       7.563   6.644  17.325  0.00  0.00    +0.000 HD
ATOM     13  H   UNL     1       8.782   6.228  16.346  0.00  0.00    +0.000 HD
ENDBRANCH   7  11
BRANCH   6  14
ATOM     14  C   UNL     1       5.263   4.403  18.893  0.00  0.00    +0.000 C 
BRANCH  14  15
ATOM     15  C   UNL     1       4.097   5.301  19.300  0.00  0.00    +0.000 C 
BRANCH  15  16
ATOM     16  C   UNL     1       2.849   4.479  19.556  0.00  0.00    +0.000 A 
ATOM     17  C   UNL     1       2.401   4.266  20.869  0.00  0.00    +0.000 A 
ATOM     18  C   UNL     1       1.287   3.459  21.117  0.00  0.00    +0.000 A 
ATOM     19  C   UNL     1       0.613   2.857  20.060  0.00  0.00    +0.000 A 
ATOM     20  C   UNL     1       1.049   3.057  18.752  0.00  0.00    +0.000 A 
ATOM     21  C   UNL     1       2.164   3.864  18.500  0.00  0.00    +0.000 A 
ENDBRANCH  15  16
ENDBRANCH  14  15
ENDBRANCH   6  14
TORSDOF 4
ENDMDL
MODEL 9
REMARK VINA RESULT:      -7.3      1.431      2.483
REMARK  Name = 
REMARK  5 active torsions:
REMARK  status: ('A' for Active; 'I' for Inactive)
REMARK    1  A    between atoms: C_1  and  C_2
REMARK    2  A    between atoms: N_6  and  C_7
REMARK    3  A    between atoms: C_7  and  C_8
REMARK    4  A    between atoms: C_8  and  C_9
REMARK    5  A    between atoms: N_15  and  N_16
REMARK                            x       y       z     vdW  Elec       q    Type
REMARK                         _______ _______ _______ _____ _____    ______ ____
ROOT
ATOM      1  C   UNL     1       4.583   3.281  19.237  0.00  0.00    +0.000 C 
ATOM      2  C   UNL     1       5.383   4.425  18.689  0.00  0.00    +0.000 A 
ATOM      3  N   UNL     1       6.208   5.066  19.454  0.00  0.00    +0.000 NA
ATOM      4  N   UNL     1       6.952   6.113  18.925  0.00  0.00    +0.000 NA
ATOM      5  C   UNL     1       6.791   6.517  17.697  0.00  0.00    +0.000 A 
ATOM      6  N   UNL     1       7.526   7.581  17.204  0.00  0.00    +0.000 N 
ATOM      7  N   UNL     1       5.892   5.900  16.840  0.00  0.00    +0.000 N 
ATOM      8  C   UNL     1       5.194   4.775  17.240  0.00  0.00    +0.000 A 
ATOM      9  O   UNL     1       4.491   4.078  16.518  0.00  0.00    +0.000 OA
ATOM     10  H   UNL     1       7.075   8.062  16.430  0.00  0.00    +0.000 HD
ENDROOT
BRANCH   7  11
ATOM     11  N   UNL     1       5.787   6.331  15.475  0.00  0.00    +0.000 N 
ATOM     12  H   UNL     1       4.789   6.459  15.295  0.00  0.00    +0.000 HD
ATOM     13  H   UNL     1       6.169   7.288  15.456  0.00  0.00    +0.000 HD
ENDBRANCH   7  11
BRANCH   6  14
ATOM     14  C   UNL     1       8.333   8.378  18.128  0.00  0.00    +0.000 C 
BRANCH  14  15
ATOM     15  C   UNL     1       8.135   9.883  17.957  0.00  0.00    +0.000 C 
BRANCH  15  16
ATOM     16  C   UNL     1       9.282  10.651  18.584  0.00  0.00    +0.000 A 
ATOM     17  C   UNL     1      10.312  11.164  17.781  0.00  0.00    +0.000 A 
ATOM     18  C   UNL     1      11.404  11.819  18.357  0.00  0.00    +0.000 A 
ATOM     19  C   UNL     1      11.478  11.967  19.739  0.00  0.00    +0.000 A 
ATOM     20  C   UNL     1      10.465  11.459  20.549  0.00  0.00    +0.000 A 
ATOM     21  C   UNL     1       9.372  10.802  19.975  0.00  0.00    +0.000 A 
ENDBRANCH  15  16
ENDBRANCH  14  15
ENDBRANCH   6  14
TORSDOF 4
ENDMDL
