MODEL 1
REMARK VINA RESULT:      -7.7      0.000      0.000
REMARK  Name = 
REMARK  6 active torsions:
REMARK  status: ('A' for Active; 'I' for Inactive)
REMARK    1  A    between atoms: C_1  and  C_2
REMARK    2  A    between atoms: C_5  and  C_6
REMARK    3  A    between atoms: C_7  and  C_8
REMARK    4  A    between atoms: C_8  and  S_9
REMARK    5  A    between atoms: S_9  and  C_10
REMARK    6  A    between atoms: C_13  and  C_14
REMARK                            x       y       z     vdW  Elec       q    Type
REMARK                         _______ _______ _______ _____ _____    ______ ____
ROOT
ATOM      1  C   UNL     1       6.909   4.750  15.913  0.00  0.00    +0.000 A 
ATOM      2  N   UNL     1       7.665   5.637  15.242  0.00  0.00    +0.000 NA
ATOM      3  N   UNL     1       7.479   5.395  13.959  0.00  0.00    +0.000 NA
ATOM      4  C   UNL     1       6.618   4.365  13.887  0.00  0.00    +0.000 A 
ATOM      5  O   UNL     1       6.259   3.955  15.089  0.00  0.00    +0.000 OA
ENDROOT
BRANCH   4   6
ATOM      6  C   UNL     1       6.122   3.825  12.583  0.00  0.00    +0.000 C 
ATOM      7  C   UNL     1       4.622   3.597  12.560  0.00  0.00    +0.000 C 
ATOM      8  C   UNL     1       4.518   2.860  11.248  0.00  0.00    +0.000 C 
ATOM      9  C   UNL     1       5.708   1.901  11.337  0.00  0.00    +0.000 C 
ATOM     10  N   UNL     1       6.697   2.526  12.234  0.00  0.00    +0.000 NA
ATOM     11  H   UNL     1       7.630   2.636  11.772  0.00  0.00    +0.000 HD
ENDBRANCH   4   6
BRANCH   1  12
ATOM     12  S   UNL     1       6.835   4.753  17.705  0.00  0.00    +0.000 S 
BRANCH  12  13
ATOM     13  C   UNL     1       5.407   3.642  17.997  0.00  0.00    +0.000 C 
BRANCH  13  20
ATOM     14  C   UNL     1       2.724   7.956  18.039  0.00  0.00    +0.000 C 
ATOM     15  C   UNL     1       2.752   6.453  17.990  0.00  0.00    +0.000 A 
ATOM     16  C   UNL     1       1.569   5.718  17.891  0.00  0.00    +0.000 A 
ATOM     17  C   UNL     1       1.616   4.327  17.821  0.00  0.00    +0.000 A 
ATOM     18  C   UNL     1       2.846   3.641  17.853  0.00  0.00    +0.000 A 
ATOM     19  C   UNL     1       2.833   2.138  17.760  0.00  0.00    +0.000 C 
ATOM     20  C   UNL     1       4.063   4.373  17.967  0.00  0.00    +0.000 A 
ATOM     21  C   UNL     1       3.983   5.785  18.037  0.00  0.00    +0.000 A 
ENDBRANCH  13  20
ENDBRANCH  12  13
ENDBRANCH   1  12
TORSDOF 4
ENDMDL
MODEL 2
REMARK VINA RESULT:      -7.6      1.073      1.136
REMARK  Name = 
REMARK  6 active torsions:
REMARK  status: ('A' for Active; 'I' for Inactive)
REMARK    1  A    between atoms: C_1  and  C_2
REMARK    2  A    between atoms: C_5  and  C_6
REMARK    3  A    between atoms: C_7  and  C_8
REMARK    4  A    between atoms: C_8  and  S_9
REMARK    5  A    between atoms: S_9  and  C_10
REMARK    6  A    between atoms: C_13  and  C_14
REMARK                            x       y       z     vdW  Elec       q    Type
REMARK                         _______ _______ _______ _____ _____    ______ ____
ROOT
ATOM      1  C   UNL     1       6.805   4.699  15.866  0.00  0.00    +0.000 A 
ATOM      2  N   UNL     1       7.612   5.560  15.222  0.00  0.00    +0.000 NA
ATOM      3  N   UNL     1       7.474   5.314  13.934  0.00  0.00    +0.000 NA
ATOM      4  C   UNL     1       6.589   4.308  13.832  0.00  0.00    +0.000 A 
ATOM      5  O   UNL     1       6.168   3.916  15.020  0.00  0.00    +0.000 OA
ENDROOT
BRANCH   4   6
ATOM      6  C   UNL     1       6.133   3.772  12.511  0.00  0.00    +0.000 C 
ATOM      7  C   UNL     1       4.628   3.600  12.421  0.00  0.00    +0.000 C 
ATOM      8  C   UNL     1       4.556   2.854  11.112  0.00  0.00    +0.000 C 
ATOM      9  C   UNL     1       5.704   1.851  11.265  0.00  0.00    +0.000 C 
ATOM     10  N   UNL     1       6.673   2.449  12.201  0.00  0.00    +0.000 NA
ATOM     11  H   UNL     1       7.630   2.518  11.783  0.00  0.00    +0.000 HD
ENDBRANCH   4   6
BRANCH   1  12
ATOM     12  S   UNL     1       6.656   4.716  17.653  0.00  0.00    +0.000 S 
BRANCH  12  13
ATOM     13  C   UNL     1       5.002   3.958  17.872  0.00  0.00    +0.000 C 
BRANCH  13  20
ATOM     14  C   UNL     1       2.548   8.407  17.898  0.00  0.00    +0.000 C 
ATOM     15  C   UNL     1       2.791   7.063  18.527  0.00  0.00    +0.000 A 
ATOM     16  C   UNL     1       2.081   6.665  19.662  0.00  0.00    +0.000 A 
ATOM     17  C   UNL     1       2.303   5.405  20.216  0.00  0.00    +0.000 A 
ATOM     18  C   UNL     1       3.241   4.520  19.651  0.00  0.00    +0.000 A 
ATOM     19  C   UNL     1       3.425   3.167  20.287  0.00  0.00    +0.000 C 
ATOM     20  C   UNL     1       3.984   4.913  18.501  0.00  0.00    +0.000 A 
ATOM     21  C   UNL     1       3.739   6.199  17.962  0.00  0.00    +0.000 A 
ENDBRANCH  13  20
ENDBRANCH  12  13
ENDBRANCH   1  12
TORSDOF 4
ENDMDL
MODEL 3
REMARK VINA RESULT:      -7.5      3.261      4.614
REMARK  Name = 
REMARK  6 active torsions:
REMARK  status: ('A' for Active; 'I' for Inactive)
REMARK    1  A    between atoms: C_1  and  C_2
REMARK    2  A    between atoms: C_5  and  C_6
REMARK    3  A    between atoms: C_7  and  C_8
REMARK    4  A    between atoms: C_8  and  S_9
REMARK    5  A    between atoms: S_9  and  C_10
REMARK    6  A    between atoms: C_13  and  C_14
REMARK                            x       y       z     vdW  Elec       q    Type
REMARK                         _______ _______ _______ _____ _____    ______ ____
ROOT
ATOM      1  C   UNL     1       4.461   3.300  17.428  0.00  0.00    +0.000 A 
ATOM      2  N   UNL     1       4.555   3.536  16.109  0.00  0.00    +0.000 NA
ATOM      3  N   UNL     1       5.509   4.434  15.955  0.00  0.00    +0.000 NA
ATOM      4  C   UNL     1       5.965   4.719  17.187  0.00  0.00    +0.000 A 
ATOM      5  O   UNL     1       5.324   4.026  18.108  0.00  0.00    +0.000 OA
ENDROOT
BRANCH   4   6
ATOM      6  C   UNL     1       7.095   5.672  17.423  0.00  0.00    +0.000 C 
ATOM      7  C   UNL     1       7.285   6.025  18.886  0.00  0.00    +0.000 C 
ATOM      8  C   UNL     1       8.297   7.132  18.729  0.00  0.00    +0.000 C 
ATOM      9  C   UNL     1       7.721   7.912  17.543  0.00  0.00    +0.000 C 
ATOM     10  N   UNL     1       6.920   6.959  16.752  0.00  0.00    +0.000 NA
ATOM     11  H   UNL     1       7.237   6.914  15.756  0.00  0.00    +0.000 HD
ENDBRANCH   4   6
BRANCH   1  12
ATOM     12  S   UNL     1       3.298   2.100  18.081  0.00  0.00    +0.000 S 
BRANCH  12  13
ATOM     13  C   UNL     1       1.747   3.076  18.067  0.00  0.00    +0.000 C 
BRANCH  13  20
ATOM     14  C   UNL     1       2.744   8.053  17.854  0.00  0.00    +0.000 C 
ATOM     15  C   UNL     1       2.370   6.845  18.667  0.00  0.00    +0.000 A 
ATOM     16  C   UNL     1       2.125   6.953  20.037  0.00  0.00    +0.000 A 
ATOM     17  C   UNL     1       1.756   5.826  20.770  0.00  0.00    +0.000 A 
ATOM     18  C   UNL     1       1.629   4.568  20.150  0.00  0.00    +0.000 A 
ATOM     19  C   UNL     1       1.212   3.391  20.993  0.00  0.00    +0.000 C 
ATOM     20  C   UNL     1       1.888   4.436  18.756  0.00  0.00    +0.000 A 
ATOM     21  C   UNL     1       2.262   5.597  18.038  0.00  0.00    +0.000 A 
ENDBRANCH  13  20
ENDBRANCH  12  13
ENDBRANCH   1  12
TORSDOF 4
ENDMDL
MODEL 4
REMARK VINA RESULT:      -7.4      1.396      1.470
REMARK  Name = 
REMARK  6 active torsions:
REMARK  status: ('A' for Active; 'I' for Inactive)
REMARK    1  A    between atoms: C_1  and  C_2
REMARK    2  A    between atoms: C_5  and  C_6
REMARK    3  A    between atoms: C_7  and  C_8
REMARK    4  A    between atoms: C_8  and  S_9
REMARK    5  A    between atoms: S_9  and  C_10
REMARK    6  A    between atoms: C_13  and  C_14
REMARK                            x       y       z     vdW  Elec       q    Type
REMARK                         _______ _______ _______ _____ _____    ______ ____
ROOT
ATOM      1  C   UNL     1       6.168   5.231  15.960  0.00  0.00    +0.000 A 
ATOM      2  N   UNL     1       7.404   5.523  15.521  0.00  0.00    +0.000 NA
ATOM      3  N   UNL     1       7.478   5.079  14.281  0.00  0.00    +0.000 NA
ATOM      4  C   UNL     1       6.285   4.527  14.004  0.00  0.00    +0.000 A 
ATOM      5  O   UNL     1       5.465   4.612  15.035  0.00  0.00    +0.000 OA
ENDROOT
BRANCH   4   6
ATOM      6  C   UNL     1       5.961   3.949  12.662  0.00  0.00    +0.000 C 
ATOM      7  C   UNL     1       4.494   3.601  12.497  0.00  0.00    +0.000 C 
ATOM      8  C   UNL     1       4.576   2.859  11.186  0.00  0.00    +0.000 C 
ATOM      9  C   UNL     1       5.826   1.998  11.396  0.00  0.00    +0.000 C 
ATOM     10  N   UNL     1       6.670   2.701  12.380  0.00  0.00    +0.000 NA
ATOM     11  H   UNL     1       7.631   2.885  12.009  0.00  0.00    +0.000 HD
ENDBRANCH   4   6
BRANCH   1  12
ATOM     12  S   UNL     1       5.626   5.698  17.605  0.00  0.00    +0.000 S 
BRANCH  12  13
ATOM     13  C   UNL     1       5.105   4.074  18.275  0.00  0.00    +0.000 C 
BRANCH  13  20
ATOM     14  C   UNL     1       1.531   6.675  20.781  0.00  0.00    +0.000 C 
ATOM     15  C   UNL     1       2.016   5.373  20.206  0.00  0.00    +0.000 A 
ATOM     16  C   UNL     1       1.237   4.217  20.293  0.00  0.00    +0.000 A 
ATOM     17  C   UNL     1       1.692   3.025  19.733  0.00  0.00    +0.000 A 
ATOM     18  C   UNL     1       2.938   2.962  19.078  0.00  0.00    +0.000 A 
ATOM     19  C   UNL     1       3.368   1.648  18.479  0.00  0.00    +0.000 C 
ATOM     20  C   UNL     1       3.752   4.127  18.990  0.00  0.00    +0.000 A 
ATOM     21  C   UNL     1       3.264   5.322  19.570  0.00  0.00    +0.000 A 
ENDBRANCH  13  20
ENDBRANCH  12  13
ENDBRANCH   1  12
TORSDOF 4
ENDMDL
MODEL 5
REMARK VINA RESULT:      -7.3      1.561      2.328
REMARK  Name = 
REMARK  6 active torsions:
REMARK  status: ('A' for Active; 'I' for Inactive)
REMARK    1  A    between atoms: C_1  and  C_2
REMARK    2  A    between atoms: C_5  and  C_6
REMARK    3  A    between atoms: C_7  and  C_8
REMARK    4  A    between atoms: C_8  and  S_9
REMARK    5  A    between atoms: S_9  and  C_10
REMARK    6  A    between atoms: C_13  and  C_14
REMARK                            x       y       z     vdW  Elec       q    Type
REMARK                         _______ _______ _______ _____ _____    ______ ____
ROOT
ATOM      1  C   UNL     1       6.524   4.621  15.939  0.00  0.00    +0.000 A 
ATOM      2  N   UNL     1       7.424   5.453  15.385  0.00  0.00    +0.000 NA
ATOM      3  N   UNL     1       7.394   5.227  14.086  0.00  0.00    +0.000 NA
ATOM      4  C   UNL     1       6.479   4.262  13.889  0.00  0.00    +0.000 A 
ATOM      5  O   UNL     1       5.934   3.877  15.027  0.00  0.00    +0.000 OA
ENDROOT
BRANCH   4   6
ATOM      6  C   UNL     1       6.123   3.762  12.524  0.00  0.00    +0.000 C 
ATOM      7  C   UNL     1       4.629   3.612  12.311  0.00  0.00    +0.000 C 
ATOM      8  C   UNL     1       4.652   2.895  10.984  0.00  0.00    +0.000 C 
ATOM      9  C   UNL     1       5.773   1.874  11.204  0.00  0.00    +0.000 C 
ATOM     10  N   UNL     1       6.671   2.439  12.228  0.00  0.00    +0.000 NA
ATOM     11  H   UNL     1       7.659   2.505  11.888  0.00  0.00    +0.000 HD
ENDBRANCH   4   6
BRANCH   1  12
ATOM     12  S   UNL     1       6.214   4.625  17.706  0.00  0.00    +0.000 S 
BRANCH  12  13
ATOM     13  C   UNL     1       4.627   3.712  17.782  0.00  0.00    +0.000 C 
BRANCH  13  20
ATOM     14  C   UNL     1       1.827   3.091  21.977  0.00  0.00    +0.000 C 
ATOM     15  C   UNL     1       2.304   3.982  20.863  0.00  0.00    +0.000 A 
ATOM     16  C   UNL     1       1.901   5.316  20.792  0.00  0.00    +0.000 A 
ATOM     17  C   UNL     1       2.373   6.133  19.765  0.00  0.00    +0.000 A 
ATOM     18  C   UNL     1       3.253   5.631  18.787  0.00  0.00    +0.000 A 
ATOM     19  C   UNL     1       3.739   6.567  17.711  0.00  0.00    +0.000 C 
ATOM     20  C   UNL     1       3.665   4.269  18.836  0.00  0.00    +0.000 A 
ATOM     21  C   UNL     1       3.168   3.464  19.889  0.00  0.00    +0.000 A 
ENDBRANCH  13  20
ENDBRANCH  12  13
ENDBRANCH   1  12
TORSDOF 4
ENDMDL
MODEL 6
REMARK VINA RESULT:      -7.2      1.076      1.371
REMARK  Name = 
REMARK  6 active torsions:
REMARK  status: ('A' for Active; 'I' for Inactive)
REMARK    1  A    between atoms: C_1  and  C_2
REMARK    2  A    between atoms: C_5  and  C_6
REMARK    3  A    between atoms: C_7  and  C_8
REMARK    4  A    between atoms: C_8  and  S_9
REMARK    5  A    between atoms: S_9  and  C_10
REMARK    6  A    between atoms: C_13  and  C_14
REMARK                            x       y       z     vdW  Elec       q    Type
REMARK                         _______ _______ _______ _____ _____    ______ ____
ROOT
ATOM      1  C   UNL     1       6.957   5.182  17.108  0.00  0.00    +0.000 A 
ATOM      2  N   UNL     1       7.537   6.106  16.322  0.00  0.00    +0.000 NA
ATOM      3  N   UNL     1       7.429   5.667  15.083  0.00  0.00    +0.000 NA
ATOM      4  C   UNL     1       6.789   4.487  15.153  0.00  0.00    +0.000 A 
ATOM      5  O   UNL     1       6.493   4.174  16.400  0.00  0.00    +0.000 OA
ENDROOT
BRANCH   4   6
ATOM      6  C   UNL     1       6.436   3.693  13.933  0.00  0.00    +0.000 C 
ATOM      7  C   UNL     1       7.179   4.143  12.690  0.00  0.00    +0.000 C 
ATOM      8  C   UNL     1       6.433   3.326  11.664  0.00  0.00    +0.000 C 
ATOM      9  C   UNL     1       4.983   3.504  12.123  0.00  0.00    +0.000 C 
ATOM     10  N   UNL     1       5.022   3.782  13.570  0.00  0.00    +0.000 NA
ATOM     11  H   UNL     1       4.446   3.100  14.116  0.00  0.00    +0.000 HD
ENDBRANCH   4   6
BRANCH   1  12
ATOM     12  S   UNL     1       6.848   5.404  18.884  0.00  0.00    +0.000 S 
BRANCH  12  13
ATOM     13  C   UNL     1       5.519   4.213  19.303  0.00  0.00    +0.000 C 
BRANCH  13  20
ATOM     14  C   UNL     1       2.183   7.848  18.090  0.00  0.00    +0.000 C 
ATOM     15  C   UNL     1       2.521   6.386  18.187  0.00  0.00    +0.000 A 
ATOM     16  C   UNL     1       1.608   5.412  17.778  0.00  0.00    +0.000 A 
ATOM     17  C   UNL     1       1.949   4.062  17.853  0.00  0.00    +0.000 A 
ATOM     18  C   UNL     1       3.207   3.659  18.342  0.00  0.00    +0.000 A 
ATOM     19  C   UNL     1       3.521   2.186  18.384  0.00  0.00    +0.000 C 
ATOM     20  C   UNL     1       4.146   4.637  18.776  0.00  0.00    +0.000 A 
ATOM     21  C   UNL     1       3.771   6.000  18.689  0.00  0.00    +0.000 A 
ENDBRANCH  13  20
ENDBRANCH  12  13
ENDBRANCH   1  12
TORSDOF 4
ENDMDL
MODEL 7
REMARK VINA RESULT:      -7.2      3.779      4.886
REMARK  Name = 
REMARK  6 active torsions:
REMARK  status: ('A' for Active; 'I' for Inactive)
REMARK    1  A    between atoms: C_1  and  C_2
REMARK    2  A    between atoms: C_5  and  C_6
REMARK    3  A    between atoms: C_7  and  C_8
REMARK    4  A    between atoms: C_8  and  S_9
REMARK    5  A    between atoms: S_9  and  C_10
REMARK    6  A    between atoms: C_13  and  C_14
REMARK                            x       y       z     vdW  Elec       q    Type
REMARK                         _______ _______ _______ _____ _____    ______ ____
ROOT
ATOM      1  C   UNL     1       4.260   3.099  18.176  0.00  0.00    +0.000 A 
ATOM      2  N   UNL     1       4.630   3.239  19.461  0.00  0.00    +0.000 NA
ATOM      3  N   UNL     1       5.600   4.133  19.477  0.00  0.00    +0.000 NA
ATOM      4  C   UNL     1       5.792   4.508  18.201  0.00  0.00    +0.000 A 
ATOM      5  O   UNL     1       4.971   3.875  17.386  0.00  0.00    +0.000 OA
ENDROOT
BRANCH   4   6
ATOM      6  C   UNL     1       6.790   5.555  17.816  0.00  0.00    +0.000 C 
ATOM      7  C   UNL     1       7.496   6.177  19.006  0.00  0.00    +0.000 C 
ATOM      8  C   UNL     1       8.211   7.297  18.293  0.00  0.00    +0.000 C 
ATOM      9  C   UNL     1       7.118   7.815  17.354  0.00  0.00    +0.000 C 
ATOM     10  N   UNL     1       6.199   6.688  17.105  0.00  0.00    +0.000 NA
ATOM     11  H   UNL     1       6.098   6.485  16.083  0.00  0.00    +0.000 HD
ENDBRANCH   4   6
BRANCH   1  12
ATOM     12  S   UNL     1       2.928   1.994  17.703  0.00  0.00    +0.000 S 
BRANCH  12  13
ATOM     13  C   UNL     1       1.487   3.121  17.806  0.00  0.00    +0.000 C 
BRANCH  13  20
ATOM     14  C   UNL     1       2.985   7.975  17.693  0.00  0.00    +0.000 C 
ATOM     15  C   UNL     1       2.529   6.783  18.488  0.00  0.00    +0.000 A 
ATOM     16  C   UNL     1       2.365   6.866  19.872  0.00  0.00    +0.000 A 
ATOM     17  C   UNL     1       1.918   5.757  20.589  0.00  0.00    +0.000 A 
ATOM     18  C   UNL     1       1.630   4.542  19.937  0.00  0.00    +0.000 A 
ATOM     19  C   UNL     1       1.136   3.384  20.765  0.00  0.00    +0.000 C 
ATOM     20  C   UNL     1       1.803   4.434  18.528  0.00  0.00    +0.000 A 
ATOM     21  C   UNL     1       2.260   5.577  17.827  0.00  0.00    +0.000 A 
ENDBRANCH  13  20
ENDBRANCH  12  13
ENDBRANCH   1  12
TORSDOF 4
ENDMDL
MODEL 8
REMARK VINA RESULT:      -7.2      1.089      2.133
REMARK  Name = 
REMARK  6 active torsions:
REMARK  status: ('A' for Active; 'I' for Inactive)
REMARK    1  A    between atoms: C_1  and  C_2
REMARK    2  A    between atoms: C_5  and  C_6
REMARK    3  A    between atoms: C_7  and  C_8
REMARK    4  A    between atoms: C_8  and  S_9
REMARK    5  A    between atoms: S_9  and  C_10
REMARK    6  A    between atoms: C_13  and  C_14
REMARK                            x       y       z     vdW  Elec       q    Type
REMARK                         _______ _______ _______ _____ _____    ______ ____
ROOT
ATOM      1  C   UNL     1       7.086   4.578  16.043  0.00  0.00    +0.000 A 
ATOM      2  N   UNL     1       7.660   5.621  15.419  0.00  0.00    +0.000 NA
ATOM      3  N   UNL     1       7.392   5.485  14.135  0.00  0.00    +0.000 NA
ATOM      4  C   UNL     1       6.665   4.361  14.016  0.00  0.00    +0.000 A 
ATOM      5  O   UNL     1       6.470   3.789  15.188  0.00  0.00    +0.000 OA
ENDROOT
BRANCH   4   6
ATOM      6  C   UNL     1       6.126   3.891  12.701  0.00  0.00    +0.000 C 
ATOM      7  C   UNL     1       4.611   3.807  12.670  0.00  0.00    +0.000 C 
ATOM      8  C   UNL     1       4.443   3.104  11.346  0.00  0.00    +0.000 C 
ATOM      9  C   UNL     1       5.537   2.035  11.422  0.00  0.00    +0.000 C 
ATOM     10  N   UNL     1       6.577   2.549  12.332  0.00  0.00    +0.000 NA
ATOM     11  H   UNL     1       7.518   2.578  11.876  0.00  0.00    +0.000 HD
ENDBRANCH   4   6
BRANCH   1  12
ATOM     12  S   UNL     1       7.175   4.392  17.825  0.00  0.00    +0.000 S 
BRANCH  12  13
ATOM     13  C   UNL     1       6.084   5.759  18.372  0.00  0.00    +0.000 C 
BRANCH  13  20
ATOM     14  C   UNL     1       2.547   2.781  20.479  0.00  0.00    +0.000 C 
ATOM     15  C   UNL     1       2.900   3.899  19.536  0.00  0.00    +0.000 A 
ATOM     16  C   UNL     1       1.907   4.570  18.820  0.00  0.00    +0.000 A 
ATOM     17  C   UNL     1       2.251   5.620  17.969  0.00  0.00    +0.000 A 
ATOM     18  C   UNL     1       3.594   6.016  17.814  0.00  0.00    +0.000 A 
ATOM     19  C   UNL     1       3.900   7.167  16.891  0.00  0.00    +0.000 C 
ATOM     20  C   UNL     1       4.621   5.335  18.527  0.00  0.00    +0.000 A 
ATOM     21  C   UNL     1       4.242   4.272  19.382  0.00  0.00    +0.000 A 
ENDBRANCH  13  20
ENDBRANCH  12  13
ENDBRANCH   1  12
TORSDOF 4
ENDMDL
MODEL 9
REMARK VINA RESULT:      -7.0      1.449      2.126
REMARK  Name = 
REMARK  6 active torsions:
REMARK  status: ('A' for Active; 'I' for Inactive)
REMARK    1  A    between atoms: C_1  and  C_2
REMARK    2  A    between atoms: C_5  and  C_6
REMARK    3  A    between atoms: C_7  and  C_8
REMARK    4  A    between atoms: C_8  and  S_9
REMARK    5  A    between atoms: S_9  and  C_10
REMARK    6  A    between atoms: C_13  and  C_14
REMARK                            x       y       z     vdW  Elec       q    Type
REMARK                         _______ _______ _______ _____ _____    ______ ____
ROOT
ATOM      1  C   UNL     1       6.519   4.611  16.178  0.00  0.00    +0.000 A 
ATOM      2  N   UNL     1       7.449   5.418  15.638  0.00  0.00    +0.000 NA
ATOM      3  N   UNL     1       7.405   5.222  14.334  0.00  0.00    +0.000 NA
ATOM      4  C   UNL     1       6.451   4.299  14.121  0.00  0.00    +0.000 A 
ATOM      5  O   UNL     1       5.897   3.911  15.254  0.00  0.00    +0.000 OA
ENDROOT
BRANCH   4   6
ATOM      6  C   UNL     1       6.070   3.843  12.747  0.00  0.00    +0.000 C 
ATOM      7  C   UNL     1       4.580   3.613  12.584  0.00  0.00    +0.000 C 
ATOM      8  C   UNL     1       4.592   2.962  11.224  0.00  0.00    +0.000 C 
ATOM      9  C   UNL     1       5.778   2.002  11.350  0.00  0.00    +0.000 C 
ATOM     10  N   UNL     1       6.683   2.571  12.366  0.00  0.00    +0.000 NA
ATOM     11  H   UNL     1       7.650   2.713  11.993  0.00  0.00    +0.000 HD
ENDBRANCH   4   6
BRANCH   1  12
ATOM     12  S   UNL     1       6.216   4.590  17.946  0.00  0.00    +0.000 S 
BRANCH  12  13
ATOM     13  C   UNL     1       4.504   5.240  18.014  0.00  0.00    +0.000 C 
BRANCH  13  20
ATOM     14  C   UNL     1       2.108   3.170  21.987  0.00  0.00    +0.000 C 
ATOM     15  C   UNL     1       2.338   3.222  20.502  0.00  0.00    +0.000 A 
ATOM     16  C   UNL     1       1.631   2.383  19.639  0.00  0.00    +0.000 A 
ATOM     17  C   UNL     1       1.840   2.463  18.262  0.00  0.00    +0.000 A 
ATOM     18  C   UNL     1       2.763   3.380  17.722  0.00  0.00    +0.000 A 
ATOM     19  C   UNL     1       2.934   3.428  16.226  0.00  0.00    +0.000 C 
ATOM     20  C   UNL     1       3.503   4.235  18.588  0.00  0.00    +0.000 A 
ATOM     21  C   UNL     1       3.270   4.130  19.981  0.00  0.00    +0.000 A 
ENDBRANCH  13  20
ENDBRANCH  12  13
ENDBRANCH   1  12
TORSDOF 4
ENDMDL
