MODEL 1
REMARK VINA RESULT:      -8.8      0.000      0.000
REMARK  Name = 
REMARK  9 active torsions:
REMARK  status: ('A' for Active; 'I' for Inactive)
REMARK    1  A    between atoms: C_1  and  C_2
REMARK    2  A    between atoms: C_2  and  C_4
REMARK    3  A    between atoms: C_8  and  C_9
REMARK    4  A    between atoms: C_9  and  N_10
REMARK    5  A    between atoms: C_13  and  C_14
REMARK    6  A    between atoms: N_16  and  C_17
REMARK    7  A    between atoms: C_20  and  N_21
REMARK    8  A    between atoms: C_23  and  C_24
REMARK    9  A    between atoms: C_26  and  C_27
REMARK                            x       y       z     vdW  Elec       q    Type
REMARK                         _______ _______ _______ _____ _____    ______ ____
ROOT
ATOM      1  C   UNL     1       1.381   4.793  20.563  0.00  0.00    +0.000 C 
ATOM      2  O   UNL     1       0.193   4.845  20.238  0.00  0.00    +0.000 OA
ATOM      3  N   UNL     1       2.286   5.856  20.457  0.00  0.00    +0.000 N 
ATOM      4  H   UNL     1       3.272   5.646  20.544  0.00  0.00    +0.000 HD
ENDROOT
BRANCH   1   8
ATOM      5  N   UNL     1       3.630   2.268  18.879  0.00  0.00    +0.000 NA
ATOM      6  C   UNL     1       4.164   3.348  19.705  0.00  0.00    +0.000 C 
ATOM      7  C   UNL     1       3.516   3.449  21.091  0.00  0.00    +0.000 C 
ATOM      8  C   UNL     1       1.975   3.456  21.056  0.00  0.00    +0.000 C 
ATOM      9  C   UNL     1       1.518   2.240  20.255  0.00  0.00    +0.000 C 
ATOM     10  C   UNL     1       2.176   2.138  18.871  0.00  0.00    +0.000 C 
BRANCH   5  11
ATOM     11  C   UNL     1       4.224   2.224  17.522  0.00  0.00    +0.000 C 
BRANCH  11  16
ATOM     12  C   UNL     1       5.883   4.788  15.206  0.00  0.00    +0.000 A 
ATOM     13  C   UNL     1       5.359   5.992  15.685  0.00  0.00    +0.000 A 
ATOM     14  C   UNL     1       4.486   5.977  16.754  0.00  0.00    +0.000 A 
ATOM     15  C   UNL     1       4.121   4.764  17.349  0.00  0.00    +0.000 A 
ATOM     16  C   UNL     1       4.622   3.542  16.877  0.00  0.00    +0.000 A 
ATOM     17  C   UNL     1       5.530   3.568  15.796  0.00  0.00    +0.000 A 
BRANCH  12  19
ATOM     18  C   UNL     1       6.490   3.860  12.914  0.00  0.00    +0.000 C 
ATOM     19  C   UNL     1       6.822   4.778  14.058  0.00  0.00    +0.000 C 
ATOM     20  O   UNL     1       7.830   5.478  14.075  0.00  0.00    +0.000 OA
ENDBRANCH  12  19
ENDBRANCH  11  16
ENDBRANCH   5  11
ENDBRANCH   1   8
BRANCH   3  21
ATOM     21  C   UNL     1       1.946   7.219  20.195  0.00  0.00    +0.000 A 
ATOM     22  C   UNL     1       2.143   7.807  18.942  0.00  0.00    +0.000 A 
ATOM     23  C   UNL     1       1.670   9.094  18.644  0.00  0.00    +0.000 A 
ATOM     24  C   UNL     1       1.031   9.858  19.620  0.00  0.00    +0.000 A 
ATOM     25  C   UNL     1       0.889   9.318  20.906  0.00  0.00    +0.000 A 
ATOM     26  C   UNL     1       1.322   8.002  21.182  0.00  0.00    +0.000 A 
BRANCH  24  27
ATOM     27  N   UNL     1       0.455  11.111  19.253  0.00  0.00    +0.000 N 
ATOM     28  N   UNL     1       1.134  12.264  19.530  0.00  0.00    +0.000 NA
ATOM     29  C   UNL     1       0.444  13.234  18.923  0.00  0.00    +0.000 A 
ATOM     30  C   UNL     1       0.917  14.642  18.913  0.00  0.00    +0.000 C 
ATOM     31  C   UNL     1      -0.749  12.745  18.366  0.00  0.00    +0.000 A 
ATOM     32  C   UNL     1      -0.736  11.384  18.592  0.00  0.00    +0.000 A 
ATOM     33  C   UNL     1      -1.815  10.404  18.325  0.00  0.00    +0.000 C 
ENDBRANCH  24  27
ENDBRANCH   3  21
TORSDOF 6
ENDMDL
MODEL 2
REMARK VINA RESULT:      -8.8      5.610      7.752
REMARK  Name = 
REMARK  9 active torsions:
REMARK  status: ('A' for Active; 'I' for Inactive)
REMARK    1  A    between atoms: C_1  and  C_2
REMARK    2  A    between atoms: C_2  and  C_4
REMARK    3  A    between atoms: C_8  and  C_9
REMARK    4  A    between atoms: C_9  and  N_10
REMARK    5  A    between atoms: C_13  and  C_14
REMARK    6  A    between atoms: N_16  and  C_17
REMARK    7  A    between atoms: C_20  and  N_21
REMARK    8  A    between atoms: C_23  and  C_24
REMARK    9  A    between atoms: C_26  and  C_27
REMARK                            x       y       z     vdW  Elec       q    Type
REMARK                         _______ _______ _______ _____ _____    ______ ____
ROOT
ATOM      1  C   UNL     1       7.842   7.229  17.881  0.00  0.00    +0.000 C 
ATOM      2  O   UNL     1       7.322   7.634  16.839  0.00  0.00    +0.000 OA
ATOM      3  N   UNL     1       8.612   8.014  18.748  0.00  0.00    +0.000 N 
ATOM      4  H   UNL     1       9.167   7.538  19.448  0.00  0.00    +0.000 HD
ENDROOT
BRANCH   1   8
ATOM      5  N   UNL     1       4.868   4.909  18.074  0.00  0.00    +0.000 NA
ATOM      6  C   UNL     1       5.680   5.023  16.866  0.00  0.00    +0.000 C 
ATOM      7  C   UNL     1       7.185   4.858  17.112  0.00  0.00    +0.000 C 
ATOM      8  C   UNL     1       7.727   5.736  18.257  0.00  0.00    +0.000 C 
ATOM      9  C   UNL     1       6.873   5.472  19.494  0.00  0.00    +0.000 C 
ATOM     10  C   UNL     1       5.366   5.630  19.242  0.00  0.00    +0.000 C 
BRANCH   5  11
ATOM     11  C   UNL     1       3.423   5.131  17.829  0.00  0.00    +0.000 C 
BRANCH  11  16
ATOM     12  C   UNL     1       1.818   8.396  19.037  0.00  0.00    +0.000 A 
ATOM     13  C   UNL     1       1.371   8.044  20.312  0.00  0.00    +0.000 A 
ATOM     14  C   UNL     1       1.595   6.766  20.784  0.00  0.00    +0.000 A 
ATOM     15  C   UNL     1       2.258   5.827  19.986  0.00  0.00    +0.000 A 
ATOM     16  C   UNL     1       2.704   6.152  18.697  0.00  0.00    +0.000 A 
ATOM     17  C   UNL     1       2.488   7.467  18.230  0.00  0.00    +0.000 A 
BRANCH  12  19
ATOM     18  C   UNL     1       0.666  10.652  19.294  0.00  0.00    +0.000 C 
ATOM     19  C   UNL     1       1.588   9.762  18.507  0.00  0.00    +0.000 C 
ATOM     20  O   UNL     1       2.117  10.117  17.457  0.00  0.00    +0.000 OA
ENDBRANCH  12  19
ENDBRANCH  11  16
ENDBRANCH   5  11
ENDBRANCH   1   8
BRANCH   3  21
ATOM     21  C   UNL     1       8.721   9.438  18.710  0.00  0.00    +0.000 A 
ATOM     22  C   UNL     1       9.539  10.145  19.597  0.00  0.00    +0.000 A 
ATOM     23  C   UNL     1       9.762  11.524  19.461  0.00  0.00    +0.000 A 
ATOM     24  C   UNL     1       9.122  12.250  18.458  0.00  0.00    +0.000 A 
ATOM     25  C   UNL     1       8.238  11.576  17.603  0.00  0.00    +0.000 A 
ATOM     26  C   UNL     1       8.059  10.179  17.715  0.00  0.00    +0.000 A 
BRANCH  24  27
ATOM     27  N   UNL     1       9.463  13.624  18.270  0.00  0.00    +0.000 N 
ATOM     28  N   UNL     1       8.686  14.589  18.847  0.00  0.00    +0.000 NA
ATOM     29  C   UNL     1       9.342  15.736  18.647  0.00  0.00    +0.000 A 
ATOM     30  C   UNL     1       8.860  17.021  19.212  0.00  0.00    +0.000 C 
ATOM     31  C   UNL     1      10.470  15.547  17.832  0.00  0.00    +0.000 A 
ATOM     32  C   UNL     1      10.532  14.190  17.588  0.00  0.00    +0.000 A 
ATOM     33  C   UNL     1      11.451  13.467  16.679  0.00  0.00    +0.000 C 
ENDBRANCH  24  27
ENDBRANCH   3  21
TORSDOF 6
ENDMDL
MODEL 3
REMARK VINA RESULT:      -8.6      2.005      3.002
REMARK  Name = 
REMARK  9 active torsions:
REMARK  status: ('A' for Active; 'I' for Inactive)
REMARK    1  A    between atoms: C_1  and  C_2
REMARK    2  A    between atoms: C_2  and  C_4
REMARK    3  A    between atoms: C_8  and  C_9
REMARK    4  A    between atoms: C_9  and  N_10
REMARK    5  A    between atoms: C_13  and  C_14
REMARK    6  A    between atoms: N_16  and  C_17
REMARK    7  A    between atoms: C_20  and  N_21
REMARK    8  A    between atoms: C_23  and  C_24
REMARK    9  A    between atoms: C_26  and  C_27
REMARK                            x       y       z     vdW  Elec       q    Type
REMARK                         _______ _______ _______ _____ _____    ______ ____
ROOT
ATOM      1  C   UNL     1       2.622   4.992  18.265  0.00  0.00    +0.000 C 
ATOM      2  O   UNL     1       1.534   4.948  17.686  0.00  0.00    +0.000 OA
ATOM      3  N   UNL     1       3.159   6.134  18.872  0.00  0.00    +0.000 N 
ATOM      4  H   UNL     1       4.139   6.118  19.123  0.00  0.00    +0.000 HD
ENDROOT
BRANCH   1   8
ATOM      5  N   UNL     1       6.045   4.343  16.806  0.00  0.00    +0.000 NA
ATOM      6  C   UNL     1       5.867   4.806  18.180  0.00  0.00    +0.000 C 
ATOM      7  C   UNL     1       4.872   3.968  18.994  0.00  0.00    +0.000 C 
ATOM      8  C   UNL     1       3.525   3.740  18.282  0.00  0.00    +0.000 C 
ATOM      9  C   UNL     1       3.817   3.167  16.897  0.00  0.00    +0.000 C 
ATOM     10  C   UNL     1       4.819   4.004  16.089  0.00  0.00    +0.000 C 
BRANCH   5  11
ATOM     11  C   UNL     1       6.962   5.199  16.017  0.00  0.00    +0.000 C 
BRANCH  11  16
ATOM     12  C   UNL     1       6.307   3.780  12.517  0.00  0.00    +0.000 A 
ATOM     13  C   UNL     1       7.224   4.491  11.740  0.00  0.00    +0.000 A 
ATOM     14  C   UNL     1       8.057   5.413  12.343  0.00  0.00    +0.000 A 
ATOM     15  C   UNL     1       7.975   5.641  13.721  0.00  0.00    +0.000 A 
ATOM     16  C   UNL     1       7.052   4.950  14.520  0.00  0.00    +0.000 A 
ATOM     17  C   UNL     1       6.219   3.994  13.898  0.00  0.00    +0.000 A 
BRANCH  12  19
ATOM     18  C   UNL     1       4.028   3.262  11.505  0.00  0.00    +0.000 C 
ATOM     19  C   UNL     1       5.401   2.785  11.892  0.00  0.00    +0.000 C 
ATOM     20  O   UNL     1       5.770   1.625  11.733  0.00  0.00    +0.000 OA
ENDBRANCH  12  19
ENDBRANCH  11  16
ENDBRANCH   5  11
ENDBRANCH   1   8
BRANCH   3  21
ATOM     21  C   UNL     1       2.455   7.349  19.135  0.00  0.00    +0.000 A 
ATOM     22  C   UNL     1       2.252   8.320  18.150  0.00  0.00    +0.000 A 
ATOM     23  C   UNL     1       1.433   9.439  18.368  0.00  0.00    +0.000 A 
ATOM     24  C   UNL     1       0.833   9.646  19.608  0.00  0.00    +0.000 A 
ATOM     25  C   UNL     1       1.081   8.725  20.635  0.00  0.00    +0.000 A 
ATOM     26  C   UNL     1       1.866   7.576  20.392  0.00  0.00    +0.000 A 
BRANCH  24  27
ATOM     27  N   UNL     1      -0.090  10.725  19.761  0.00  0.00    +0.000 N 
ATOM     28  N   UNL     1       0.128  11.657  20.735  0.00  0.00    +0.000 NA
ATOM     29  C   UNL     1      -0.782  12.613  20.519  0.00  0.00    +0.000 A 
ATOM     30  C   UNL     1      -0.812  13.860  21.324  0.00  0.00    +0.000 C 
ATOM     31  C   UNL     1      -1.675  12.250  19.498  0.00  0.00    +0.000 A 
ATOM     32  C   UNL     1      -1.228  11.033  19.025  0.00  0.00    +0.000 A 
ATOM     33  C   UNL     1      -1.880  10.142  18.037  0.00  0.00    +0.000 C 
ENDBRANCH  24  27
ENDBRANCH   3  21
TORSDOF 6
ENDMDL
MODEL 4
REMARK VINA RESULT:      -8.4      1.222      1.432
REMARK  Name = 
REMARK  9 active torsions:
REMARK  status: ('A' for Active; 'I' for Inactive)
REMARK    1  A    between atoms: C_1  and  C_2
REMARK    2  A    between atoms: C_2  and  C_4
REMARK    3  A    between atoms: C_8  and  C_9
REMARK    4  A    between atoms: C_9  and  N_10
REMARK    5  A    between atoms: C_13  and  C_14
REMARK    6  A    between atoms: N_16  and  C_17
REMARK    7  A    between atoms: C_20  and  N_21
REMARK    8  A    between atoms: C_23  and  C_24
REMARK    9  A    between atoms: C_26  and  C_27
REMARK                            x       y       z     vdW  Elec       q    Type
REMARK                         _______ _______ _______ _____ _____    ______ ____
ROOT
ATOM      1  C   UNL     1       1.848   5.696  20.667  0.00  0.00    +0.000 C 
ATOM      2  O   UNL     1       2.972   5.993  20.255  0.00  0.00    +0.000 OA
ATOM      3  N   UNL     1       0.907   6.612  21.152  0.00  0.00    +0.000 N 
ATOM      4  H   UNL     1       0.113   6.247  21.662  0.00  0.00    +0.000 HD
ENDROOT
BRANCH   1   8
ATOM      5  N   UNL     1       2.962   2.675  18.693  0.00  0.00    +0.000 NA
ATOM      6  C   UNL     1       3.594   3.047  19.956  0.00  0.00    +0.000 C 
ATOM      7  C   UNL     1       2.602   3.271  21.105  0.00  0.00    +0.000 C 
ATOM      8  C   UNL     1       1.436   4.211  20.743  0.00  0.00    +0.000 C 
ATOM      9  C   UNL     1       0.785   3.681  19.468  0.00  0.00    +0.000 C 
ATOM     10  C   UNL     1       1.782   3.451  18.323  0.00  0.00    +0.000 C 
BRANCH   5  11
ATOM     11  C   UNL     1       3.928   2.522  17.580  0.00  0.00    +0.000 C 
BRANCH  11  16
ATOM     12  C   UNL     1       5.846   4.880  15.245  0.00  0.00    +0.000 A 
ATOM     13  C   UNL     1       5.457   6.135  15.718  0.00  0.00    +0.000 A 
ATOM     14  C   UNL     1       4.592   6.221  16.790  0.00  0.00    +0.000 A 
ATOM     15  C   UNL     1       4.100   5.058  17.393  0.00  0.00    +0.000 A 
ATOM     16  C   UNL     1       4.464   3.786  16.926  0.00  0.00    +0.000 A 
ATOM     17  C   UNL     1       5.365   3.708  15.842  0.00  0.00    +0.000 A 
BRANCH  12  19
ATOM     18  C   UNL     1       6.386   3.803  13.001  0.00  0.00    +0.000 C 
ATOM     19  C   UNL     1       6.773   4.762  14.093  0.00  0.00    +0.000 C 
ATOM     20  O   UNL     1       7.816   5.410  14.068  0.00  0.00    +0.000 OA
ENDBRANCH  12  19
ENDBRANCH  11  16
ENDBRANCH   5  11
ENDBRANCH   1   8
BRANCH   3  21
ATOM     21  C   UNL     1       0.984   8.034  21.029  0.00  0.00    +0.000 A 
ATOM     22  C   UNL     1       1.248   8.661  19.807  0.00  0.00    +0.000 A 
ATOM     23  C   UNL     1       1.173  10.054  19.657  0.00  0.00    +0.000 A 
ATOM     24  C   UNL     1       0.883  10.870  20.749  0.00  0.00    +0.000 A 
ATOM     25  C   UNL     1       0.689  10.269  22.001  0.00  0.00    +0.000 A 
ATOM     26  C   UNL     1       0.716   8.863  22.132  0.00  0.00    +0.000 A 
BRANCH  24  27
ATOM     27  N   UNL     1       0.694  12.269  20.540  0.00  0.00    +0.000 N 
ATOM     28  N   UNL     1       1.682  13.138  20.907  0.00  0.00    +0.000 NA
ATOM     29  C   UNL     1       1.298  14.328  20.434  0.00  0.00    +0.000 A 
ATOM     30  C   UNL     1       2.161  15.531  20.551  0.00  0.00    +0.000 C 
ATOM     31  C   UNL     1       0.010  14.270  19.879  0.00  0.00    +0.000 A 
ATOM     32  C   UNL     1      -0.372  12.946  19.961  0.00  0.00    +0.000 A 
ATOM     33  C   UNL     1      -1.692  12.355  19.639  0.00  0.00    +0.000 C 
ENDBRANCH  24  27
ENDBRANCH   3  21
TORSDOF 6
ENDMDL
MODEL 5
REMARK VINA RESULT:      -8.4      1.901      3.196
REMARK  Name = 
REMARK  9 active torsions:
REMARK  status: ('A' for Active; 'I' for Inactive)
REMARK    1  A    between atoms: C_1  and  C_2
REMARK    2  A    between atoms: C_2  and  C_4
REMARK    3  A    between atoms: C_8  and  C_9
REMARK    4  A    between atoms: C_9  and  N_10
REMARK    5  A    between atoms: C_13  and  C_14
REMARK    6  A    between atoms: N_16  and  C_17
REMARK    7  A    between atoms: C_20  and  N_21
REMARK    8  A    between atoms: C_23  and  C_24
REMARK    9  A    between atoms: C_26  and  C_27
REMARK                            x       y       z     vdW  Elec       q    Type
REMARK                         _______ _______ _______ _____ _____    ______ ____
ROOT
ATOM      1  C   UNL     1       2.807   4.324  19.563  0.00  0.00    +0.000 C 
ATOM      2  O   UNL     1       1.840   3.942  20.226  0.00  0.00    +0.000 OA
ATOM      3  N   UNL     1       2.993   5.633  19.102  0.00  0.00    +0.000 N 
ATOM      4  H   UNL     1       3.698   5.787  18.391  0.00  0.00    +0.000 HD
ENDROOT
BRANCH   1   8
ATOM      5  N   UNL     1       5.381   4.416  16.800  0.00  0.00    +0.000 NA
ATOM      6  C   UNL     1       5.691   4.855  18.158  0.00  0.00    +0.000 C 
ATOM      7  C   UNL     1       5.317   3.835  19.241  0.00  0.00    +0.000 C 
ATOM      8  C   UNL     1       3.876   3.302  19.121  0.00  0.00    +0.000 C 
ATOM      9  C   UNL     1       3.686   2.781  17.698  0.00  0.00    +0.000 C 
ATOM     10  C   UNL     1       4.069   3.802  16.617  0.00  0.00    +0.000 C 
BRANCH   5  11
ATOM     11  C   UNL     1       5.692   5.437  15.772  0.00  0.00    +0.000 C 
BRANCH  11  16
ATOM     12  C   UNL     1       6.023   3.580  12.435  0.00  0.00    +0.000 A 
ATOM     13  C   UNL     1       7.241   4.065  11.953  0.00  0.00    +0.000 A 
ATOM     14  C   UNL     1       7.956   4.975  12.705  0.00  0.00    +0.000 A 
ATOM     15  C   UNL     1       7.460   5.417  13.937  0.00  0.00    +0.000 A 
ATOM     16  C   UNL     1       6.233   4.956  14.434  0.00  0.00    +0.000 A 
ATOM     17  C   UNL     1       5.517   4.010  13.669  0.00  0.00    +0.000 A 
BRANCH  12  19
ATOM     18  C   UNL     1       3.904   3.066  11.118  0.00  0.00    +0.000 C 
ATOM     19  C   UNL     1       5.235   2.603  11.645  0.00  0.00    +0.000 C 
ATOM     20  O   UNL     1       5.660   1.465  11.465  0.00  0.00    +0.000 OA
ENDBRANCH  12  19
ENDBRANCH  11  16
ENDBRANCH   5  11
ENDBRANCH   1   8
BRANCH   3  21
ATOM     21  C   UNL     1       2.245   6.779  19.515  0.00  0.00    +0.000 A 
ATOM     22  C   UNL     1       1.610   6.843  20.759  0.00  0.00    +0.000 A 
ATOM     23  C   UNL     1       1.007   8.022  21.224  0.00  0.00    +0.000 A 
ATOM     24  C   UNL     1       0.974   9.163  20.425  0.00  0.00    +0.000 A 
ATOM     25  C   UNL     1       1.539   9.101  19.143  0.00  0.00    +0.000 A 
ATOM     26  C   UNL     1       2.188   7.926  18.704  0.00  0.00    +0.000 A 
BRANCH  24  27
ATOM     27  N   UNL     1       0.463  10.379  20.972  0.00  0.00    +0.000 N 
ATOM     28  N   UNL     1       0.538  11.526  20.235  0.00  0.00    +0.000 NA
ATOM     29  C   UNL     1      -0.164  12.433  20.921  0.00  0.00    +0.000 A 
ATOM     30  C   UNL     1      -0.398  13.802  20.395  0.00  0.00    +0.000 C 
ATOM     31  C   UNL     1      -0.584  11.927  22.161  0.00  0.00    +0.000 A 
ATOM     32  C   UNL     1      -0.169  10.611  22.188  0.00  0.00    +0.000 A 
ATOM     33  C   UNL     1      -0.238   9.654  23.317  0.00  0.00    +0.000 C 
ENDBRANCH  24  27
ENDBRANCH   3  21
TORSDOF 6
ENDMDL
MODEL 6
REMARK VINA RESULT:      -8.4      1.701      2.106
REMARK  Name = 
REMARK  9 active torsions:
REMARK  status: ('A' for Active; 'I' for Inactive)
REMARK    1  A    between atoms: C_1  and  C_2
REMARK    2  A    between atoms: C_2  and  C_4
REMARK    3  A    between atoms: C_8  and  C_9
REMARK    4  A    between atoms: C_9  and  N_10
REMARK    5  A    between atoms: C_13  and  C_14
REMARK    6  A    between atoms: N_16  and  C_17
REMARK    7  A    between atoms: C_20  and  N_21
REMARK    8  A    between atoms: C_23  and  C_24
REMARK    9  A    between atoms: C_26  and  C_27
REMARK                            x       y       z     vdW  Elec       q    Type
REMARK                         _______ _______ _______ _____ _____    ______ ____
ROOT
ATOM      1  C   UNL     1       1.459   4.318  20.098  0.00  0.00    +0.000 C 
ATOM      2  O   UNL     1       0.318   4.571  20.491  0.00  0.00    +0.000 OA
ATOM      3  N   UNL     1       2.310   5.236  19.470  0.00  0.00    +0.000 N 
ATOM      4  H   UNL     1       3.128   4.873  18.997  0.00  0.00    +0.000 HD
ENDROOT
BRANCH   1   8
ATOM      5  N   UNL     1       4.108   2.460  18.149  0.00  0.00    +0.000 NA
ATOM      6  C   UNL     1       4.419   3.178  19.382  0.00  0.00    +0.000 C 
ATOM      7  C   UNL     1       3.503   2.818  20.559  0.00  0.00    +0.000 C 
ATOM      8  C   UNL     1       2.002   2.878  20.218  0.00  0.00    +0.000 C 
ATOM      9  C   UNL     1       1.768   2.021  18.976  0.00  0.00    +0.000 C 
ATOM     10  C   UNL     1       2.692   2.380  17.803  0.00  0.00    +0.000 C 
BRANCH   5  11
ATOM     11  C   UNL     1       4.962   2.865  17.007  0.00  0.00    +0.000 C 
BRANCH  11  16
ATOM     12  C   UNL     1       6.725   6.216  17.598  0.00  0.00    +0.000 A 
ATOM     13  C   UNL     1       6.071   7.051  16.689  0.00  0.00    +0.000 A 
ATOM     14  C   UNL     1       5.061   6.540  15.900  0.00  0.00    +0.000 A 
ATOM     15  C   UNL     1       4.700   5.192  16.002  0.00  0.00    +0.000 A 
ATOM     16  C   UNL     1       5.352   4.330  16.896  0.00  0.00    +0.000 A 
ATOM     17  C   UNL     1       6.370   4.866  17.715  0.00  0.00    +0.000 A 
BRANCH  12  19
ATOM     18  C   UNL     1       8.259   8.156  18.206  0.00  0.00    +0.000 C 
ATOM     19  C   UNL     1       7.815   6.741  18.457  0.00  0.00    +0.000 C 
ATOM     20  O   UNL     1       8.332   6.025  19.309  0.00  0.00    +0.000 OA
ENDBRANCH  12  19
ENDBRANCH  11  16
ENDBRANCH   5  11
ENDBRANCH   1   8
BRANCH   3  21
ATOM     21  C   UNL     1       2.108   6.649  19.398  0.00  0.00    +0.000 A 
ATOM     22  C   UNL     1       2.357   7.377  18.231  0.00  0.00    +0.000 A 
ATOM     23  C   UNL     1       2.015   8.734  18.116  0.00  0.00    +0.000 A 
ATOM     24  C   UNL     1       1.460   9.418  19.197  0.00  0.00    +0.000 A 
ATOM     25  C   UNL     1       1.272   8.728  20.402  0.00  0.00    +0.000 A 
ATOM     26  C   UNL     1       1.571   7.350  20.492  0.00  0.00    +0.000 A 
BRANCH  24  27
ATOM     27  N   UNL     1       1.012  10.761  19.011  0.00  0.00    +0.000 N 
ATOM     28  N   UNL     1       1.909  11.786  19.124  0.00  0.00    +0.000 NA
ATOM     29  C   UNL     1       1.246  12.878  18.731  0.00  0.00    +0.000 A 
ATOM     30  C   UNL     1       1.914  14.200  18.624  0.00  0.00    +0.000 C 
ATOM     31  C   UNL     1      -0.109  12.599  18.490  0.00  0.00    +0.000 A 
ATOM     32  C   UNL     1      -0.250  11.240  18.682  0.00  0.00    +0.000 A 
ATOM     33  C   UNL     1      -1.499  10.443  18.684  0.00  0.00    +0.000 C 
ENDBRANCH  24  27
ENDBRANCH   3  21
TORSDOF 6
ENDMDL
MODEL 7
REMARK VINA RESULT:      -8.4      1.967      2.951
REMARK  Name = 
REMARK  9 active torsions:
REMARK  status: ('A' for Active; 'I' for Inactive)
REMARK    1  A    between atoms: C_1  and  C_2
REMARK    2  A    between atoms: C_2  and  C_4
REMARK    3  A    between atoms: C_8  and  C_9
REMARK    4  A    between atoms: C_9  and  N_10
REMARK    5  A    between atoms: C_13  and  C_14
REMARK    6  A    between atoms: N_16  and  C_17
REMARK    7  A    between atoms: C_20  and  N_21
REMARK    8  A    between atoms: C_23  and  C_24
REMARK    9  A    between atoms: C_26  and  C_27
REMARK                            x       y       z     vdW  Elec       q    Type
REMARK                         _______ _______ _______ _____ _____    ______ ____
ROOT
ATOM      1  C   UNL     1       2.552   4.553  19.504  0.00  0.00    +0.000 C 
ATOM      2  O   UNL     1       1.600   4.276  20.237  0.00  0.00    +0.000 OA
ATOM      3  N   UNL     1       2.818   5.826  18.986  0.00  0.00    +0.000 N 
ATOM      4  H   UNL     1       3.488   5.897  18.230  0.00  0.00    +0.000 HD
ENDROOT
BRANCH   1   8
ATOM      5  N   UNL     1       5.148   4.435  16.763  0.00  0.00    +0.000 NA
ATOM      6  C   UNL     1       5.492   4.793  18.136  0.00  0.00    +0.000 C 
ATOM      7  C   UNL     1       4.993   3.790  19.184  0.00  0.00    +0.000 C 
ATOM      8  C   UNL     1       3.502   3.429  19.037  0.00  0.00    +0.000 C 
ATOM      9  C   UNL     1       3.268   2.978  17.597  0.00  0.00    +0.000 C 
ATOM     10  C   UNL     1       3.776   3.981  16.552  0.00  0.00    +0.000 C 
BRANCH   5  11
ATOM     11  C   UNL     1       5.584   5.445  15.770  0.00  0.00    +0.000 C 
BRANCH  11  16
ATOM     12  C   UNL     1       6.055   3.534  12.481  0.00  0.00    +0.000 A 
ATOM     13  C   UNL     1       7.288   4.020  12.039  0.00  0.00    +0.000 A 
ATOM     14  C   UNL     1       7.968   4.948  12.802  0.00  0.00    +0.000 A 
ATOM     15  C   UNL     1       7.422   5.406  14.005  0.00  0.00    +0.000 A 
ATOM     16  C   UNL     1       6.179   4.946  14.463  0.00  0.00    +0.000 A 
ATOM     17  C   UNL     1       5.500   3.981  13.687  0.00  0.00    +0.000 A 
BRANCH  12  19
ATOM     18  C   UNL     1       6.026   1.267  11.320  0.00  0.00    +0.000 C 
ATOM     19  C   UNL     1       5.305   2.538  11.678  0.00  0.00    +0.000 C 
ATOM     20  O   UNL     1       4.156   2.774  11.313  0.00  0.00    +0.000 OA
ENDBRANCH  12  19
ENDBRANCH  11  16
ENDBRANCH   5  11
ENDBRANCH   1   8
BRANCH   3  21
ATOM     21  C   UNL     1       2.196   7.044  19.401  0.00  0.00    +0.000 A 
ATOM     22  C   UNL     1       1.965   8.100  18.516  0.00  0.00    +0.000 A 
ATOM     23  C   UNL     1       1.220   9.230  18.887  0.00  0.00    +0.000 A 
ATOM     24  C   UNL     1       0.729   9.360  20.185  0.00  0.00    +0.000 A 
ATOM     25  C   UNL     1       1.013   8.347  21.112  0.00  0.00    +0.000 A 
ATOM     26  C   UNL     1       1.719   7.190  20.716  0.00  0.00    +0.000 A 
BRANCH  24  27
ATOM     27  N   UNL     1      -0.126  10.460  20.497  0.00  0.00    +0.000 N 
ATOM     28  N   UNL     1      -0.204  10.898  21.789  0.00  0.00    +0.000 NA
ATOM     29  C   UNL     1      -0.927  12.022  21.736  0.00  0.00    +0.000 A 
ATOM     30  C   UNL     1      -1.161  12.857  22.941  0.00  0.00    +0.000 C 
ATOM     31  C   UNL     1      -1.431  12.248  20.446  0.00  0.00    +0.000 A 
ATOM     32  C   UNL     1      -0.919  11.235  19.661  0.00  0.00    +0.000 A 
ATOM     33  C   UNL     1      -1.239  10.924  18.248  0.00  0.00    +0.000 C 
ENDBRANCH  24  27
ENDBRANCH   3  21
TORSDOF 6
ENDMDL
MODEL 8
REMARK VINA RESULT:      -8.3      1.893      2.403
REMARK  Name = 
REMARK  9 active torsions:
REMARK  status: ('A' for Active; 'I' for Inactive)
REMARK    1  A    between atoms: C_1  and  C_2
REMARK    2  A    between atoms: C_2  and  C_4
REMARK    3  A    between atoms: C_8  and  C_9
REMARK    4  A    between atoms: C_9  and  N_10
REMARK    5  A    between atoms: C_13  and  C_14
REMARK    6  A    between atoms: N_16  and  C_17
REMARK    7  A    between atoms: C_20  and  N_21
REMARK    8  A    between atoms: C_23  and  C_24
REMARK    9  A    between atoms: C_26  and  C_27
REMARK                            x       y       z     vdW  Elec       q    Type
REMARK                         _______ _______ _______ _____ _____    ______ ____
ROOT
ATOM      1  C   UNL     1       1.782   5.951  20.471  0.00  0.00    +0.000 C 
ATOM      2  O   UNL     1       2.745   6.228  19.752  0.00  0.00    +0.000 OA
ATOM      3  N   UNL     1       0.983   6.890  21.134  0.00  0.00    +0.000 N 
ATOM      4  H   UNL     1       0.366   6.554  21.862  0.00  0.00    +0.000 HD
ENDROOT
BRANCH   1   8
ATOM      5  N   UNL     1       2.956   2.754  18.836  0.00  0.00    +0.000 NA
ATOM      6  C   UNL     1       3.620   3.308  20.013  0.00  0.00    +0.000 C 
ATOM      7  C   UNL     1       2.667   3.633  21.170  0.00  0.00    +0.000 C 
ATOM      8  C   UNL     1       1.443   4.471  20.749  0.00  0.00    +0.000 C 
ATOM      9  C   UNL     1       0.767   3.758  19.580  0.00  0.00    +0.000 C 
ATOM     10  C   UNL     1       1.726   3.428  18.428  0.00  0.00    +0.000 C 
BRANCH   5  11
ATOM     11  C   UNL     1       3.883   2.504  17.707  0.00  0.00    +0.000 C 
BRANCH  11  16
ATOM     12  C   UNL     1       6.474   5.325  17.820  0.00  0.00    +0.000 A 
ATOM     13  C   UNL     1       6.513   5.736  16.485  0.00  0.00    +0.000 A 
ATOM     14  C   UNL     1       5.701   5.115  15.558  0.00  0.00    +0.000 A 
ATOM     15  C   UNL     1       4.851   4.075  15.950  0.00  0.00    +0.000 A 
ATOM     16  C   UNL     1       4.805   3.635  17.281  0.00  0.00    +0.000 A 
ATOM     17  C   UNL     1       5.624   4.290  18.227  0.00  0.00    +0.000 A 
BRANCH  12  19
ATOM     18  C   UNL     1       8.058   7.229  18.415  0.00  0.00    +0.000 C 
ATOM     19  C   UNL     1       7.338   5.976  18.835  0.00  0.00    +0.000 C 
ATOM     20  O   UNL     1       7.464   5.481  19.951  0.00  0.00    +0.000 OA
ENDBRANCH  12  19
ENDBRANCH  11  16
ENDBRANCH   5  11
ENDBRANCH   1   8
BRANCH   3  21
ATOM     21  C   UNL     1       0.988   8.301  20.905  0.00  0.00    +0.000 A 
ATOM     22  C   UNL     1       1.294   8.850  19.657  0.00  0.00    +0.000 A 
ATOM     23  C   UNL     1       1.150  10.221  19.394  0.00  0.00    +0.000 A 
ATOM     24  C   UNL     1       0.744  11.096  20.400  0.00  0.00    +0.000 A 
ATOM     25  C   UNL     1       0.503  10.579  21.680  0.00  0.00    +0.000 A 
ATOM     26  C   UNL     1       0.601   9.191  21.922  0.00  0.00    +0.000 A 
BRANCH  24  27
ATOM     27  N   UNL     1       0.490  12.462  20.071  0.00  0.00    +0.000 N 
ATOM     28  N   UNL     1       1.509  13.368  20.150  0.00  0.00    +0.000 NA
ATOM     29  C   UNL     1       1.020  14.495  19.622  0.00  0.00    +0.000 A 
ATOM     30  C   UNL     1       1.864  15.704  19.442  0.00  0.00    +0.000 C 
ATOM     31  C   UNL     1      -0.346  14.373  19.323  0.00  0.00    +0.000 A 
ATOM     32  C   UNL     1      -0.678  13.067  19.624  0.00  0.00    +0.000 A 
ATOM     33  C   UNL     1      -2.022  12.442  19.618  0.00  0.00    +0.000 C 
ENDBRANCH  24  27
ENDBRANCH   3  21
TORSDOF 6
ENDMDL
MODEL 9
REMARK VINA RESULT:      -8.3      1.887      3.074
REMARK  Name = 
REMARK  9 active torsions:
REMARK  status: ('A' for Active; 'I' for Inactive)
REMARK    1  A    between atoms: C_1  and  C_2
REMARK    2  A    between atoms: C_2  and  C_4
REMARK    3  A    between atoms: C_8  and  C_9
REMARK    4  A    between atoms: C_9  and  N_10
REMARK    5  A    between atoms: C_13  and  C_14
REMARK    6  A    between atoms: N_16  and  C_17
REMARK    7  A    between atoms: C_20  and  N_21
REMARK    8  A    between atoms: C_23  and  C_24
REMARK    9  A    between atoms: C_26  and  C_27
REMARK                            x       y       z     vdW  Elec       q    Type
REMARK                         _______ _______ _______ _____ _____    ______ ____
ROOT
ATOM      1  C   UNL     1       2.710   4.925  19.203  0.00  0.00    +0.000 C 
ATOM      2  O   UNL     1       2.262   4.949  20.351  0.00  0.00    +0.000 OA
ATOM      3  N   UNL     1       2.634   5.985  18.292  0.00  0.00    +0.000 N 
ATOM      4  H   UNL     1       2.834   5.787  17.320  0.00  0.00    +0.000 HD
ENDROOT
BRANCH   1   8
ATOM      5  N   UNL     1       5.550   4.327  16.786  0.00  0.00    +0.000 NA
ATOM      6  C   UNL     1       5.765   4.383  18.229  0.00  0.00    +0.000 C 
ATOM      7  C   UNL     1       4.830   3.469  19.033  0.00  0.00    +0.000 C 
ATOM      8  C   UNL     1       3.342   3.624  18.663  0.00  0.00    +0.000 C 
ATOM      9  C   UNL     1       3.215   3.453  17.151  0.00  0.00    +0.000 C 
ATOM     10  C   UNL     1       4.157   4.364  16.351  0.00  0.00    +0.000 C 
BRANCH   5  11
ATOM     11  C   UNL     1       6.419   5.260  16.030  0.00  0.00    +0.000 C 
BRANCH  11  16
ATOM     12  C   UNL     1       6.205   3.707  12.533  0.00  0.00    +0.000 A 
ATOM     13  C   UNL     1       7.263   4.336  11.872  0.00  0.00    +0.000 A 
ATOM     14  C   UNL     1       8.047   5.245  12.553  0.00  0.00    +0.000 A 
ATOM     15  C   UNL     1       7.778   5.543  13.893  0.00  0.00    +0.000 A 
ATOM     16  C   UNL     1       6.713   4.936  14.574  0.00  0.00    +0.000 A 
ATOM     17  C   UNL     1       5.929   3.992  13.876  0.00  0.00    +0.000 A 
BRANCH  12  19
ATOM     18  C   UNL     1       3.989   3.202  11.384  0.00  0.00    +0.000 C 
ATOM     19  C   UNL     1       5.347   2.727  11.822  0.00  0.00    +0.000 C 
ATOM     20  O   UNL     1       5.741   1.579  11.635  0.00  0.00    +0.000 OA
ENDBRANCH  12  19
ENDBRANCH  11  16
ENDBRANCH   5  11
ENDBRANCH   1   8
BRANCH   3  21
ATOM     21  C   UNL     1       2.256   7.328  18.603  0.00  0.00    +0.000 A 
ATOM     22  C   UNL     1       2.217   8.333  17.632  0.00  0.00    +0.000 A 
ATOM     23  C   UNL     1       1.701   9.609  17.906  0.00  0.00    +0.000 A 
ATOM     24  C   UNL     1       1.258   9.934  19.187  0.00  0.00    +0.000 A 
ATOM     25  C   UNL     1       1.357   8.966  20.196  0.00  0.00    +0.000 A 
ATOM     26  C   UNL     1       1.830   7.668  19.899  0.00  0.00    +0.000 A 
BRANCH  24  27
ATOM     27  N   UNL     1       0.628  11.197  19.404  0.00  0.00    +0.000 N 
ATOM     28  N   UNL     1      -0.664  11.230  19.849  0.00  0.00    +0.000 NA
ATOM     29  C   UNL     1      -0.909  12.516  20.120  0.00  0.00    +0.000 A 
ATOM     30  C   UNL     1      -2.194  12.956  20.720  0.00  0.00    +0.000 C 
ATOM     31  C   UNL     1       0.161  13.337  19.732  0.00  0.00    +0.000 A 
ATOM     32  C   UNL     1       1.138  12.481  19.265  0.00  0.00    +0.000 A 
ATOM     33  C   UNL     1       2.421  12.830  18.612  0.00  0.00    +0.000 C 
ENDBRANCH  24  27
ENDBRANCH   3  21
TORSDOF 6
ENDMDL
