MODEL 1
REMARK VINA RESULT:      -7.7      0.000      0.000
REMARK  Name = 
REMARK  6 active torsions:
REMARK  status: ('A' for Active; 'I' for Inactive)
REMARK    1  A    between atoms: C_2  and  O_3
REMARK    2  A    between atoms: C_2  and  C_4
REMARK    3  A    between atoms: C_4  and  N_5
REMARK    4  A    between atoms: C_8  and  O_9
REMARK    5  A    between atoms: O_9  and  C_10
REMARK    6  A    between atoms: C_13  and  O_14
REMARK                            x       y       z     vdW  Elec       q    Type
REMARK                         _______ _______ _______ _____ _____    ______ ____
ROOT
ATOM      1  N   UNL     1       2.893   4.805  20.205  0.00  0.00    +0.000 N 
ATOM      2  C   UNL     1       3.552   3.937  19.325  0.00  0.00    +0.000 A 
ATOM      3  O   UNL     1       3.945   2.822  19.639  0.00  0.00    +0.000 OA
ATOM      4  C   UNL     1       3.787   4.480  17.916  0.00  0.00    +0.000 A 
ATOM      5  N   UNL     1       3.392   5.643  17.510  0.00  0.00    +0.000 NA
ATOM      6  C   UNL     1       2.741   6.476  18.429  0.00  0.00    +0.000 A 
ATOM      7  C   UNL     1       2.323   7.727  17.966  0.00  0.00    +0.000 A 
ATOM      8  C   UNL     1       1.696   8.630  18.820  0.00  0.00    +0.000 A 
ATOM      9  C   UNL     1       1.503   8.292  20.155  0.00  0.00    +0.000 A 
ATOM     10  C   UNL     1       1.908   7.041  20.631  0.00  0.00    +0.000 A 
ATOM     11  C   UNL     1       2.507   6.110  19.769  0.00  0.00    +0.000 A 
ENDROOT
BRANCH   1  12
ATOM     12  C   UNL     1       2.416   4.259  21.482  0.00  0.00    +0.000 C 
BRANCH  12  14
ATOM     13  O   UNL     1       1.321   2.204  22.136  0.00  0.00    +0.000 OA
ATOM     14  C   UNL     1       1.354   3.173  21.387  0.00  0.00    +0.000 C 
BRANCH  14  15
ATOM     15  O   UNL     1       0.458   3.333  20.388  0.00  0.00    +0.000 OA
ATOM     16  H   UNL     1      -0.416   2.962  20.619  0.00  0.00    +0.000 HD
ENDBRANCH  14  15
ENDBRANCH  12  14
ENDBRANCH   1  12
BRANCH   4  17
ATOM     17  O   UNL     1       4.485   3.571  17.147  0.00  0.00    +0.000 OA
BRANCH  17  18
ATOM     18  C   UNL     1       5.441   4.075  16.243  0.00  0.00    +0.000 A 
ATOM     19  C   UNL     1       6.621   4.667  16.701  0.00  0.00    +0.000 A 
ATOM     20  C   UNL     1       7.546   5.163  15.782  0.00  0.00    +0.000 A 
ATOM     21  C   UNL     1       7.298   5.027  14.422  0.00  0.00    +0.000 A 
ATOM     22  C   UNL     1       6.153   4.380  13.962  0.00  0.00    +0.000 A 
ATOM     23  C   UNL     1       5.213   3.898  14.880  0.00  0.00    +0.000 A 
BRANCH  21  24
ATOM     24  O   UNL     1       8.165   5.529  13.496  0.00  0.00    +0.000 OA
ATOM     25  H   UNL     1       7.664   6.086  12.876  0.00  0.00    +0.000 HD
ENDBRANCH  21  24
ENDBRANCH  17  18
ENDBRANCH   4  17
TORSDOF 6
ENDMDL
MODEL 2
REMARK VINA RESULT:      -7.7      0.110      1.017
REMARK  Name = 
REMARK  6 active torsions:
REMARK  status: ('A' for Active; 'I' for Inactive)
REMARK    1  A    between atoms: C_2  and  O_3
REMARK    2  A    between atoms: C_2  and  C_4
REMARK    3  A    between atoms: C_4  and  N_5
REMARK    4  A    between atoms: C_8  and  O_9
REMARK    5  A    between atoms: O_9  and  C_10
REMARK    6  A    between atoms: C_13  and  O_14
REMARK                            x       y       z     vdW  Elec       q    Type
REMARK                         _______ _______ _______ _____ _____    ______ ____
ROOT
ATOM      1  N   UNL     1       2.858   4.918  20.212  0.00  0.00    +0.000 N 
ATOM      2  C   UNL     1       3.541   4.025  19.375  0.00  0.00    +0.000 A 
ATOM      3  O   UNL     1       3.921   2.918  19.729  0.00  0.00    +0.000 OA
ATOM      4  C   UNL     1       3.822   4.532  17.961  0.00  0.00    +0.000 A 
ATOM      5  N   UNL     1       3.443   5.686  17.514  0.00  0.00    +0.000 NA
ATOM      6  C   UNL     1       2.766   6.543  18.391  0.00  0.00    +0.000 A 
ATOM      7  C   UNL     1       2.367   7.784  17.884  0.00  0.00    +0.000 A 
ATOM      8  C   UNL     1       1.717   8.710  18.696  0.00  0.00    +0.000 A 
ATOM      9  C   UNL     1       1.481   8.406  20.032  0.00  0.00    +0.000 A 
ATOM     10  C   UNL     1       1.868   7.166  20.552  0.00  0.00    +0.000 A 
ATOM     11  C   UNL     1       2.490   6.212  19.732  0.00  0.00    +0.000 A 
ENDROOT
BRANCH   1  12
ATOM     12  C   UNL     1       2.340   4.405  21.488  0.00  0.00    +0.000 C 
BRANCH  12  14
ATOM     13  O   UNL     1       1.507   2.216  22.093  0.00  0.00    +0.000 OA
ATOM     14  C   UNL     1       1.395   3.215  21.392  0.00  0.00    +0.000 C 
BRANCH  14  15
ATOM     15  O   UNL     1       0.433   3.320  20.449  0.00  0.00    +0.000 OA
ATOM     16  H   UNL     1       0.801   3.580  19.582  0.00  0.00    +0.000 HD
ENDBRANCH  14  15
ENDBRANCH  12  14
ENDBRANCH   1  12
BRANCH   4  17
ATOM     17  O   UNL     1       4.540   3.603  17.237  0.00  0.00    +0.000 OA
BRANCH  17  18
ATOM     18  C   UNL     1       5.454   4.083  16.279  0.00  0.00    +0.000 A 
ATOM     19  C   UNL     1       5.189   3.970  14.911  0.00  0.00    +0.000 A 
ATOM     20  C   UNL     1       6.116   4.449  13.986  0.00  0.00    +0.000 A 
ATOM     21  C   UNL     1       7.275   5.068  14.438  0.00  0.00    +0.000 A 
ATOM     22  C   UNL     1       7.512   5.241  15.800  0.00  0.00    +0.000 A 
ATOM     23  C   UNL     1       6.594   4.744  16.732  0.00  0.00    +0.000 A 
BRANCH  21  24
ATOM     24  O   UNL     1       8.217   5.520  13.562  0.00  0.00    +0.000 OA
ATOM     25  H   UNL     1       9.033   5.009  13.699  0.00  0.00    +0.000 HD
ENDBRANCH  21  24
ENDBRANCH  17  18
ENDBRANCH   4  17
TORSDOF 6
ENDMDL
MODEL 3
REMARK VINA RESULT:      -7.6      4.042      6.642
REMARK  Name = 
REMARK  6 active torsions:
REMARK  status: ('A' for Active; 'I' for Inactive)
REMARK    1  A    between atoms: C_2  and  O_3
REMARK    2  A    between atoms: C_2  and  C_4
REMARK    3  A    between atoms: C_4  and  N_5
REMARK    4  A    between atoms: C_8  and  O_9
REMARK    5  A    between atoms: O_9  and  C_10
REMARK    6  A    between atoms: C_13  and  O_14
REMARK                            x       y       z     vdW  Elec       q    Type
REMARK                         _______ _______ _______ _____ _____    ______ ____
ROOT
ATOM      1  N   UNL     1       0.867   9.952  19.320  0.00  0.00    +0.000 N 
ATOM      2  C   UNL     1       1.716   8.885  19.000  0.00  0.00    +0.000 A 
ATOM      3  O   UNL     1       2.230   8.732  17.900  0.00  0.00    +0.000 OA
ATOM      4  C   UNL     1       1.955   7.874  20.121  0.00  0.00    +0.000 A 
ATOM      5  N   UNL     1       1.454   7.975  21.310  0.00  0.00    +0.000 NA
ATOM      6  C   UNL     1       0.607   9.058  21.578  0.00  0.00    +0.000 A 
ATOM      7  C   UNL     1       0.080   9.145  22.870  0.00  0.00    +0.000 A 
ATOM      8  C   UNL     1      -0.795  10.172  23.215  0.00  0.00    +0.000 A 
ATOM      9  C   UNL     1      -1.166  11.110  22.257  0.00  0.00    +0.000 A 
ATOM     10  C   UNL     1      -0.640  11.040  20.962  0.00  0.00    +0.000 A 
ATOM     11  C   UNL     1       0.271  10.031  20.616  0.00  0.00    +0.000 A 
ENDROOT
BRANCH   1  12
ATOM     12  C   UNL     1       0.796  11.080  18.382  0.00  0.00    +0.000 C 
BRANCH  12  14
ATOM     13  O   UNL     1       2.112  12.788  19.479  0.00  0.00    +0.000 OA
ATOM     14  C   UNL     1       1.921  12.101  18.482  0.00  0.00    +0.000 C 
BRANCH  14  15
ATOM     15  O   UNL     1       2.685  12.224  17.374  0.00  0.00    +0.000 OA
ATOM     16  H   UNL     1       2.145  12.240  16.560  0.00  0.00    +0.000 HD
ENDBRANCH  14  15
ENDBRANCH  12  14
ENDBRANCH   1  12
BRANCH   4  17
ATOM     17  O   UNL     1       2.761   6.840  19.690  0.00  0.00    +0.000 OA
BRANCH  17  18
ATOM     18  C   UNL     1       2.148   5.602  19.417  0.00  0.00    +0.000 A 
ATOM     19  C   UNL     1       1.545   4.858  20.435  0.00  0.00    +0.000 A 
ATOM     20  C   UNL     1       0.951   3.632  20.137  0.00  0.00    +0.000 A 
ATOM     21  C   UNL     1       0.934   3.184  18.821  0.00  0.00    +0.000 A 
ATOM     22  C   UNL     1       1.476   3.953  17.793  0.00  0.00    +0.000 A 
ATOM     23  C   UNL     1       2.090   5.175  18.092  0.00  0.00    +0.000 A 
BRANCH  21  24
ATOM     24  O   UNL     1       0.390   1.976  18.498  0.00  0.00    +0.000 OA
ATOM     25  H   UNL     1       0.931   1.278  18.904  0.00  0.00    +0.000 HD
ENDBRANCH  21  24
ENDBRANCH  17  18
ENDBRANCH   4  17
TORSDOF 6
ENDMDL
MODEL 4
REMARK VINA RESULT:      -7.6      4.029      6.697
REMARK  Name = 
REMARK  6 active torsions:
REMARK  status: ('A' for Active; 'I' for Inactive)
REMARK    1  A    between atoms: C_2  and  O_3
REMARK    2  A    between atoms: C_2  and  C_4
REMARK    3  A    between atoms: C_4  and  N_5
REMARK    4  A    between atoms: C_8  and  O_9
REMARK    5  A    between atoms: O_9  and  C_10
REMARK    6  A    between atoms: C_13  and  O_14
REMARK                            x       y       z     vdW  Elec       q    Type
REMARK                         _______ _______ _______ _____ _____    ______ ____
ROOT
ATOM      1  N   UNL     1       0.844   9.933  19.338  0.00  0.00    +0.000 N 
ATOM      2  C   UNL     1       1.700   8.868  19.029  0.00  0.00    +0.000 A 
ATOM      3  O   UNL     1       2.215   8.707  17.930  0.00  0.00    +0.000 OA
ATOM      4  C   UNL     1       1.947   7.870  20.160  0.00  0.00    +0.000 A 
ATOM      5  N   UNL     1       1.447   7.981  21.348  0.00  0.00    +0.000 NA
ATOM      6  C   UNL     1       0.592   9.061  21.606  0.00  0.00    +0.000 A 
ATOM      7  C   UNL     1       0.065   9.158  22.897  0.00  0.00    +0.000 A 
ATOM      8  C   UNL     1      -0.818  10.181  23.232  0.00  0.00    +0.000 A 
ATOM      9  C   UNL     1      -1.195  11.106  22.264  0.00  0.00    +0.000 A 
ATOM     10  C   UNL     1      -0.670  11.027  20.970  0.00  0.00    +0.000 A 
ATOM     11  C   UNL     1       0.249  10.020  20.633  0.00  0.00    +0.000 A 
ENDROOT
BRANCH   1  12
ATOM     12  C   UNL     1       0.764  11.050  18.388  0.00  0.00    +0.000 C 
BRANCH  12  14
ATOM     13  O   UNL     1       2.035  12.822  19.436  0.00  0.00    +0.000 OA
ATOM     14  C   UNL     1       1.884  12.078  18.474  0.00  0.00    +0.000 C 
BRANCH  14  15
ATOM     15  O   UNL     1       2.691  12.138  17.391  0.00  0.00    +0.000 OA
ATOM     16  H   UNL     1       3.512  11.624  17.520  0.00  0.00    +0.000 HD
ENDBRANCH  14  15
ENDBRANCH  12  14
ENDBRANCH   1  12
BRANCH   4  17
ATOM     17  O   UNL     1       2.761   6.838  19.739  0.00  0.00    +0.000 OA
BRANCH  17  18
ATOM     18  C   UNL     1       2.151   5.604  19.442  0.00  0.00    +0.000 A 
ATOM     19  C   UNL     1       2.129   5.109  18.135  0.00  0.00    +0.000 A 
ATOM     20  C   UNL     1       1.512   3.887  17.870  0.00  0.00    +0.000 A 
ATOM     21  C   UNL     1       0.960   3.158  18.917  0.00  0.00    +0.000 A 
ATOM     22  C   UNL     1       1.037   3.618  20.230  0.00  0.00    +0.000 A 
ATOM     23  C   UNL     1       1.638   4.853  20.498  0.00  0.00    +0.000 A 
BRANCH  21  24
ATOM     24  O   UNL     1       0.322   1.975  18.690  0.00  0.00    +0.000 OA
ATOM     25  H   UNL     1      -0.632   2.151  18.615  0.00  0.00    +0.000 HD
ENDBRANCH  21  24
ENDBRANCH  17  18
ENDBRANCH   4  17
TORSDOF 6
ENDMDL
MODEL 5
REMARK VINA RESULT:      -7.5      2.892      6.752
REMARK  Name = 
REMARK  6 active torsions:
REMARK  status: ('A' for Active; 'I' for Inactive)
REMARK    1  A    between atoms: C_2  and  O_3
REMARK    2  A    between atoms: C_2  and  C_4
REMARK    3  A    between atoms: C_4  and  N_5
REMARK    4  A    between atoms: C_8  and  O_9
REMARK    5  A    between atoms: O_9  and  C_10
REMARK    6  A    between atoms: C_13  and  O_14
REMARK                            x       y       z     vdW  Elec       q    Type
REMARK                         _______ _______ _______ _____ _____    ______ ____
ROOT
ATOM      1  N   UNL     1       4.607   4.965  17.481  0.00  0.00    +0.000 N 
ATOM      2  C   UNL     1       4.347   6.341  17.430  0.00  0.00    +0.000 A 
ATOM      3  O   UNL     1       5.185   7.180  17.132  0.00  0.00    +0.000 OA
ATOM      4  C   UNL     1       2.924   6.757  17.804  0.00  0.00    +0.000 A 
ATOM      5  N   UNL     1       1.983   5.926  18.119  0.00  0.00    +0.000 NA
ATOM      6  C   UNL     1       2.296   4.561  18.160  0.00  0.00    +0.000 A 
ATOM      7  C   UNL     1       1.262   3.684  18.503  0.00  0.00    +0.000 A 
ATOM      8  C   UNL     1       1.492   2.314  18.598  0.00  0.00    +0.000 A 
ATOM      9  C   UNL     1       2.769   1.814  18.370  0.00  0.00    +0.000 A 
ATOM     10  C   UNL     1       3.812   2.678  18.018  0.00  0.00    +0.000 A 
ATOM     11  C   UNL     1       3.582   4.056  17.884  0.00  0.00    +0.000 A 
ENDROOT
BRANCH   1  12
ATOM     12  C   UNL     1       5.866   4.481  16.898  0.00  0.00    +0.000 C 
BRANCH  12  14
ATOM     13  O   UNL     1       7.017   4.850  18.994  0.00  0.00    +0.000 OA
ATOM     14  C   UNL     1       7.075   4.494  17.823  0.00  0.00    +0.000 C 
BRANCH  14  15
ATOM     15  O   UNL     1       8.239   4.114  17.250  0.00  0.00    +0.000 OA
ATOM     16  H   UNL     1       8.733   4.876  16.889  0.00  0.00    +0.000 HD
ENDBRANCH  14  15
ENDBRANCH  12  14
ENDBRANCH   1  12
BRANCH   4  17
ATOM     17  O   UNL     1       2.786   8.129  17.770  0.00  0.00    +0.000 OA
BRANCH  17  18
ATOM     18  C   UNL     1       1.859   8.715  18.654  0.00  0.00    +0.000 A 
ATOM     19  C   UNL     1       0.922   9.647  18.200  0.00  0.00    +0.000 A 
ATOM     20  C   UNL     1       0.020  10.216  19.099  0.00  0.00    +0.000 A 
ATOM     21  C   UNL     1       0.043   9.819  20.431  0.00  0.00    +0.000 A 
ATOM     22  C   UNL     1       0.933   8.843  20.875  0.00  0.00    +0.000 A 
ATOM     23  C   UNL     1       1.851   8.284  19.979  0.00  0.00    +0.000 A 
BRANCH  21  24
ATOM     24  O   UNL     1      -0.803  10.377  21.344  0.00  0.00    +0.000 OA
ATOM     25  H   UNL     1      -0.920  11.316  21.119  0.00  0.00    +0.000 HD
ENDBRANCH  21  24
ENDBRANCH  17  18
ENDBRANCH   4  17
TORSDOF 6
ENDMDL
MODEL 6
REMARK VINA RESULT:      -7.5      2.830      6.795
REMARK  Name = 
REMARK  6 active torsions:
REMARK  status: ('A' for Active; 'I' for Inactive)
REMARK    1  A    between atoms: C_2  and  O_3
REMARK    2  A    between atoms: C_2  and  C_4
REMARK    3  A    between atoms: C_4  and  N_5
REMARK    4  A    between atoms: C_8  and  O_9
REMARK    5  A    between atoms: O_9  and  C_10
REMARK    6  A    between atoms: C_13  and  O_14
REMARK                            x       y       z     vdW  Elec       q    Type
REMARK                         _______ _______ _______ _____ _____    ______ ____
ROOT
ATOM      1  N   UNL     1       4.876   4.939  17.806  0.00  0.00    +0.000 N 
ATOM      2  C   UNL     1       4.574   6.299  17.655  0.00  0.00    +0.000 A 
ATOM      3  O   UNL     1       5.417   7.166  17.470  0.00  0.00    +0.000 OA
ATOM      4  C   UNL     1       3.092   6.661  17.763  0.00  0.00    +0.000 A 
ATOM      5  N   UNL     1       2.145   5.798  17.947  0.00  0.00    +0.000 NA
ATOM      6  C   UNL     1       2.500   4.452  18.097  0.00  0.00    +0.000 A 
ATOM      7  C   UNL     1       1.459   3.540  18.295  0.00  0.00    +0.000 A 
ATOM      8  C   UNL     1       1.723   2.186  18.484  0.00  0.00    +0.000 A 
ATOM      9  C   UNL     1       3.040   1.738  18.497  0.00  0.00    +0.000 A 
ATOM     10  C   UNL     1       4.092   2.637  18.294  0.00  0.00    +0.000 A 
ATOM     11  C   UNL     1       3.834   3.998  18.065  0.00  0.00    +0.000 A 
ENDROOT
BRANCH   1  12
ATOM     12  C   UNL     1       6.234   4.495  17.467  0.00  0.00    +0.000 C 
BRANCH  12  14
ATOM     13  O   UNL     1       6.221   3.650  15.200  0.00  0.00    +0.000 OA
ATOM     14  C   UNL     1       6.590   4.513  15.986  0.00  0.00    +0.000 C 
BRANCH  14  15
ATOM     15  O   UNL     1       7.378   5.541  15.599  0.00  0.00    +0.000 OA
ATOM     16  H   UNL     1       6.957   6.406  15.766  0.00  0.00    +0.000 HD
ENDBRANCH  14  15
ENDBRANCH  12  14
ENDBRANCH   1  12
BRANCH   4  17
ATOM     17  O   UNL     1       2.908   8.024  17.650  0.00  0.00    +0.000 OA
BRANCH  17  18
ATOM     18  C   UNL     1       1.987   8.634  18.524  0.00  0.00    +0.000 A 
ATOM     19  C   UNL     1       1.086   9.597  18.062  0.00  0.00    +0.000 A 
ATOM     20  C   UNL     1       0.190  10.189  18.952  0.00  0.00    +0.000 A 
ATOM     21  C   UNL     1       0.180   9.784  20.281  0.00  0.00    +0.000 A 
ATOM     22  C   UNL     1       1.033   8.778  20.732  0.00  0.00    +0.000 A 
ATOM     23  C   UNL     1       1.946   8.196  19.846  0.00  0.00    +0.000 A 
BRANCH  21  24
ATOM     24  O   UNL     1      -0.661  10.363  21.185  0.00  0.00    +0.000 OA
ATOM     25  H   UNL     1      -0.150  10.997  21.717  0.00  0.00    +0.000 HD
ENDBRANCH  21  24
ENDBRANCH  17  18
ENDBRANCH   4  17
TORSDOF 6
ENDMDL
MODEL 7
REMARK VINA RESULT:      -7.4      2.821      6.764
REMARK  Name = 
REMARK  6 active torsions:
REMARK  status: ('A' for Active; 'I' for Inactive)
REMARK    1  A    between atoms: C_2  and  O_3
REMARK    2  A    between atoms: C_2  and  C_4
REMARK    3  A    between atoms: C_4  and  N_5
REMARK    4  A    between atoms: C_8  and  O_9
REMARK    5  A    between atoms: O_9  and  C_10
REMARK    6  A    between atoms: C_13  and  O_14
REMARK                            x       y       z     vdW  Elec       q    Type
REMARK                         _______ _______ _______ _____ _____    ______ ____
ROOT
ATOM      1  N   UNL     1       4.899   4.910  17.755  0.00  0.00    +0.000 N 
ATOM      2  C   UNL     1       4.599   6.272  17.622  0.00  0.00    +0.000 A 
ATOM      3  O   UNL     1       5.441   7.137  17.427  0.00  0.00    +0.000 OA
ATOM      4  C   UNL     1       3.121   6.638  17.765  0.00  0.00    +0.000 A 
ATOM      5  N   UNL     1       2.175   5.777  17.962  0.00  0.00    +0.000 NA
ATOM      6  C   UNL     1       2.528   4.428  18.093  0.00  0.00    +0.000 A 
ATOM      7  C   UNL     1       1.488   3.518  18.305  0.00  0.00    +0.000 A 
ATOM      8  C   UNL     1       1.751   2.162  18.476  0.00  0.00    +0.000 A 
ATOM      9  C   UNL     1       3.066   1.710  18.458  0.00  0.00    +0.000 A 
ATOM     10  C   UNL     1       4.117   2.607  18.239  0.00  0.00    +0.000 A 
ATOM     11  C   UNL     1       3.859   3.970  18.028  0.00  0.00    +0.000 A 
ENDROOT
BRANCH   1  12
ATOM     12  C   UNL     1       6.248   4.463  17.382  0.00  0.00    +0.000 C 
BRANCH  12  14
ATOM     13  O   UNL     1       6.187   3.635  15.110  0.00  0.00    +0.000 OA
ATOM     14  C   UNL     1       6.572   4.494  15.895  0.00  0.00    +0.000 C 
BRANCH  14  15
ATOM     15  O   UNL     1       7.351   5.525  15.498  0.00  0.00    +0.000 OA
ATOM     16  H   UNL     1       6.878   6.125  14.889  0.00  0.00    +0.000 HD
ENDBRANCH  14  15
ENDBRANCH  12  14
ENDBRANCH   1  12
BRANCH   4  17
ATOM     17  O   UNL     1       2.940   8.003  17.668  0.00  0.00    +0.000 OA
BRANCH  17  18
ATOM     18  C   UNL     1       2.007   8.602  18.538  0.00  0.00    +0.000 A 
ATOM     19  C   UNL     1       1.927   8.220  19.880  0.00  0.00    +0.000 A 
ATOM     20  C   UNL     1       0.989   8.827  20.715  0.00  0.00    +0.000 A 
ATOM     21  C   UNL     1       0.172   9.831  20.209  0.00  0.00    +0.000 A 
ATOM     22  C   UNL     1       0.293  10.258  18.889  0.00  0.00    +0.000 A 
ATOM     23  C   UNL     1       1.220   9.639  18.043  0.00  0.00    +0.000 A 
BRANCH  21  24
ATOM     24  O   UNL     1      -0.777  10.423  20.989  0.00  0.00    +0.000 OA
ATOM     25  H   UNL     1      -0.642  11.385  20.959  0.00  0.00    +0.000 HD
ENDBRANCH  21  24
ENDBRANCH  17  18
ENDBRANCH   4  17
TORSDOF 6
ENDMDL
MODEL 8
REMARK VINA RESULT:      -7.4      2.689      6.736
REMARK  Name = 
REMARK  6 active torsions:
REMARK  status: ('A' for Active; 'I' for Inactive)
REMARK    1  A    between atoms: C_2  and  O_3
REMARK    2  A    between atoms: C_2  and  C_4
REMARK    3  A    between atoms: C_4  and  N_5
REMARK    4  A    between atoms: C_8  and  O_9
REMARK    5  A    between atoms: O_9  and  C_10
REMARK    6  A    between atoms: C_13  and  O_14
REMARK                            x       y       z     vdW  Elec       q    Type
REMARK                         _______ _______ _______ _____ _____    ______ ____
ROOT
ATOM      1  N   UNL     1       4.362   4.755  17.236  0.00  0.00    +0.000 N 
ATOM      2  C   UNL     1       4.274   6.150  17.331  0.00  0.00    +0.000 A 
ATOM      3  O   UNL     1       5.132   6.915  16.912  0.00  0.00    +0.000 OA
ATOM      4  C   UNL     1       3.025   6.686  18.032  0.00  0.00    +0.000 A 
ATOM      5  N   UNL     1       2.073   5.939  18.491  0.00  0.00    +0.000 NA
ATOM      6  C   UNL     1       2.211   4.550  18.375  0.00  0.00    +0.000 A 
ATOM      7  C   UNL     1       1.169   3.765  18.879  0.00  0.00    +0.000 A 
ATOM      8  C   UNL     1       1.237   2.375  18.833  0.00  0.00    +0.000 A 
ATOM      9  C   UNL     1       2.365   1.760  18.301  0.00  0.00    +0.000 A 
ATOM     10  C   UNL     1       3.412   2.531  17.786  0.00  0.00    +0.000 A 
ATOM     11  C   UNL     1       3.336   3.933  17.794  0.00  0.00    +0.000 A 
ENDROOT
BRANCH   1  12
ATOM     12  C   UNL     1       5.399   4.190  16.363  0.00  0.00    +0.000 C 
BRANCH  12  14
ATOM     13  O   UNL     1       7.775   4.567  16.108  0.00  0.00    +0.000 OA
ATOM     14  C   UNL     1       6.833   4.332  16.855  0.00  0.00    +0.000 C 
BRANCH  14  15
ATOM     15  O   UNL     1       7.005   4.145  18.183  0.00  0.00    +0.000 OA
ATOM     16  H   UNL     1       7.433   3.289  18.378  0.00  0.00    +0.000 HD
ENDBRANCH  14  15
ENDBRANCH  12  14
ENDBRANCH   1  12
BRANCH   4  17
ATOM     17  O   UNL     1       3.059   8.063  18.117  0.00  0.00    +0.000 OA
BRANCH  17  18
ATOM     18  C   UNL     1       1.941   8.711  18.678  0.00  0.00    +0.000 A 
ATOM     19  C   UNL     1       1.678   8.634  20.048  0.00  0.00    +0.000 A 
ATOM     20  C   UNL     1       0.559   9.281  20.574  0.00  0.00    +0.000 A 
ATOM     21  C   UNL     1      -0.256  10.027  19.732  0.00  0.00    +0.000 A 
ATOM     22  C   UNL     1       0.040  10.160  18.377  0.00  0.00    +0.000 A 
ATOM     23  C   UNL     1       1.150   9.496  17.842  0.00  0.00    +0.000 A 
BRANCH  21  24
ATOM     24  O   UNL     1      -1.375  10.647  20.206  0.00  0.00    +0.000 OA
ATOM     25  H   UNL     1      -1.706  10.141  20.968  0.00  0.00    +0.000 HD
ENDBRANCH  21  24
ENDBRANCH  17  18
ENDBRANCH   4  17
TORSDOF 6
ENDMDL
MODEL 9
REMARK VINA RESULT:      -7.4      1.069      1.188
REMARK  Name = 
REMARK  6 active torsions:
REMARK  status: ('A' for Active; 'I' for Inactive)
REMARK    1  A    between atoms: C_2  and  O_3
REMARK    2  A    between atoms: C_2  and  C_4
REMARK    3  A    between atoms: C_4  and  N_5
REMARK    4  A    between atoms: C_8  and  O_9
REMARK    5  A    between atoms: O_9  and  C_10
REMARK    6  A    between atoms: C_13  and  O_14
REMARK                            x       y       z     vdW  Elec       q    Type
REMARK                         _______ _______ _______ _____ _____    ______ ____
ROOT
ATOM      1  N   UNL     1       2.278   3.587  19.424  0.00  0.00    +0.000 N 
ATOM      2  C   UNL     1       3.013   2.947  18.417  0.00  0.00    +0.000 A 
ATOM      3  O   UNL     1       3.120   1.732  18.323  0.00  0.00    +0.000 OA
ATOM      4  C   UNL     1       3.719   3.873  17.427  0.00  0.00    +0.000 A 
ATOM      5  N   UNL     1       3.643   5.164  17.458  0.00  0.00    +0.000 NA
ATOM      6  C   UNL     1       2.899   5.756  18.487  0.00  0.00    +0.000 A 
ATOM      7  C   UNL     1       2.833   7.153  18.498  0.00  0.00    +0.000 A 
ATOM      8  C   UNL     1       2.141   7.825  19.502  0.00  0.00    +0.000 A 
ATOM      9  C   UNL     1       1.528   7.100  20.518  0.00  0.00    +0.000 A 
ATOM     10  C   UNL     1       1.579   5.702  20.516  0.00  0.00    +0.000 A 
ATOM     11  C   UNL     1       2.242   5.014  19.488  0.00  0.00    +0.000 A 
ENDROOT
BRANCH   1  12
ATOM     12  C   UNL     1       1.380   2.767  20.248  0.00  0.00    +0.000 C 
BRANCH  12  14
ATOM     13  O   UNL     1       3.007   2.389  21.998  0.00  0.00    +0.000 OA
ATOM     14  C   UNL     1       1.831   2.523  21.682  0.00  0.00    +0.000 C 
BRANCH  14  15
ATOM     15  O   UNL     1       0.833   2.430  22.589  0.00  0.00    +0.000 OA
ATOM     16  H   UNL     1       0.447   3.303  22.796  0.00  0.00    +0.000 HD
ENDBRANCH  14  15
ENDBRANCH  12  14
ENDBRANCH   1  12
BRANCH   4  17
ATOM     17  O   UNL     1       4.453   3.147  16.510  0.00  0.00    +0.000 OA
BRANCH  17  18
ATOM     18  C   UNL     1       5.465   3.822  15.801  0.00  0.00    +0.000 A 
ATOM     19  C   UNL     1       6.562   4.376  16.466  0.00  0.00    +0.000 A 
ATOM     20  C   UNL     1       7.547   5.044  15.738  0.00  0.00    +0.000 A 
ATOM     21  C   UNL     1       7.442   5.116  14.354  0.00  0.00    +0.000 A 
ATOM     22  C   UNL     1       6.383   4.509  13.682  0.00  0.00    +0.000 A 
ATOM     23  C   UNL     1       5.384   3.855  14.410  0.00  0.00    +0.000 A 
BRANCH  21  24
ATOM     24  O   UNL     1       8.369   5.789  13.614  0.00  0.00    +0.000 OA
ATOM     25  H   UNL     1       8.224   6.743  13.735  0.00  0.00    +0.000 HD
ENDBRANCH  21  24
ENDBRANCH  17  18
ENDBRANCH   4  17
TORSDOF 6
ENDMDL
