MODEL 1
REMARK VINA RESULT:      -8.8      0.000      0.000
REMARK  Name = 
REMARK  7 active torsions:
REMARK  status: ('A' for Active; 'I' for Inactive)
REMARK    1  A    between atoms: C_1  and  C_2
REMARK    2  A    between atoms: C_10  and  S_11
REMARK    3  A    between atoms: S_11  and  C_12
REMARK    4  A    between atoms: C_12  and  C_13
REMARK    5  A    between atoms: N_15  and  C_16
REMARK    6  A    between atoms: C_16  and  C_17
REMARK    7  A    between atoms: C_17  and  C_18
REMARK                            x       y       z     vdW  Elec       q    Type
REMARK                         _______ _______ _______ _____ _____    ______ ____
ROOT
ATOM      1  S   UNL     1       5.125   6.087  16.119  0.00  0.00    +0.000 S 
ENDROOT
BRANCH   1  11
ATOM      2  C   UNL     1       3.488   1.674  18.277  0.00  0.00    +0.000 C 
ATOM      3  C   UNL     1       2.724   2.730  19.011  0.00  0.00    +0.000 A 
ATOM      4  C   UNL     1       1.788   2.465  19.935  0.00  0.00    +0.000 A 
ATOM      5  C   UNL     1       1.139   3.526  20.660  0.00  0.00    +0.000 A 
ATOM      6  C   UNL     1       1.479   4.798  20.423  0.00  0.00    +0.000 A 
ATOM      7  N   UNL     1       2.409   5.128  19.446  0.00  0.00    +0.000 N 
ATOM      8  C   UNL     1       2.745   6.453  19.213  0.00  0.00    +0.000 A 
ATOM      9  O   UNL     1       2.327   7.361  19.930  0.00  0.00    +0.000 OA
ATOM     10  N   UNL     1       3.559   6.738  18.152  0.00  0.00    +0.000 NA
ATOM     11  C   UNL     1       4.071   5.772  17.488  0.00  0.00    +0.000 A 
ATOM     12  N   UNL     1       3.867   4.459  17.755  0.00  0.00    +0.000 NA
ATOM     13  C   UNL     1       3.037   4.166  18.697  0.00  0.00    +0.000 A 
ENDBRANCH   1  11
BRANCH   1  14
ATOM     14  C   UNL     1       6.692   5.384  16.696  0.00  0.00    +0.000 C 
BRANCH  14  15
ATOM     15  C   UNL     1       7.391   6.216  17.759  0.00  0.00    +0.000 C 
ATOM     16  O   UNL     1       7.631   5.751  18.874  0.00  0.00    +0.000 OA
ATOM     17  N   UNL     1       7.652   7.532  17.442  0.00  0.00    +0.000 N 
ATOM     18  H   UNL     1       7.395   7.873  16.522  0.00  0.00    +0.000 HD
BRANCH  17  19
ATOM     19  C   UNL     1       8.394   8.376  18.362  0.00  0.00    +0.000 C 
BRANCH  19  20
ATOM     20  C   UNL     1       8.302   9.859  18.010  0.00  0.00    +0.000 C 
BRANCH  20  21
ATOM     21  C   UNL     1       9.415  10.664  18.638  0.00  0.00    +0.000 A 
ATOM     22  C   UNL     1       9.403  10.946  20.011  0.00  0.00    +0.000 A 
ATOM     23  C   UNL     1      10.435  11.684  20.593  0.00  0.00    +0.000 A 
ATOM     24  C   UNL     1      11.485  12.156  19.807  0.00  0.00    +0.000 A 
ATOM     25  C   UNL     1      11.498  11.898  18.438  0.00  0.00    +0.000 A 
ATOM     26  C   UNL     1      10.466  11.158  17.855  0.00  0.00    +0.000 A 
ENDBRANCH  20  21
ENDBRANCH  19  20
ENDBRANCH  17  19
ENDBRANCH  14  15
ENDBRANCH   1  14
TORSDOF 6
ENDMDL
MODEL 2
REMARK VINA RESULT:      -8.6      1.406      2.246
REMARK  Name = 
REMARK  7 active torsions:
REMARK  status: ('A' for Active; 'I' for Inactive)
REMARK    1  A    between atoms: C_1  and  C_2
REMARK    2  A    between atoms: C_10  and  S_11
REMARK    3  A    between atoms: S_11  and  C_12
REMARK    4  A    between atoms: C_12  and  C_13
REMARK    5  A    between atoms: N_15  and  C_16
REMARK    6  A    between atoms: C_16  and  C_17
REMARK    7  A    between atoms: C_17  and  C_18
REMARK                            x       y       z     vdW  Elec       q    Type
REMARK                         _______ _______ _______ _____ _____    ______ ____
ROOT
ATOM      1  S   UNL     1       4.827   6.383  16.467  0.00  0.00    +0.000 S 
ENDROOT
BRANCH   1  11
ATOM      2  C   UNL     1       1.625   6.483  20.534  0.00  0.00    +0.000 C 
ATOM      3  C   UNL     1       1.928   5.029  20.358  0.00  0.00    +0.000 A 
ATOM      4  C   UNL     1       1.484   4.071  21.187  0.00  0.00    +0.000 A 
ATOM      5  C   UNL     1       1.748   2.681  20.924  0.00  0.00    +0.000 A 
ATOM      6  C   UNL     1       2.436   2.330  19.831  0.00  0.00    +0.000 A 
ATOM      7  N   UNL     1       2.955   3.283  18.967  0.00  0.00    +0.000 N 
ATOM      8  C   UNL     1       3.669   2.900  17.842  0.00  0.00    +0.000 A 
ATOM      9  O   UNL     1       3.766   1.719  17.509  0.00  0.00    +0.000 OA
ATOM     10  N   UNL     1       4.277   3.872  17.096  0.00  0.00    +0.000 NA
ATOM     11  C   UNL     1       4.071   5.098  17.394  0.00  0.00    +0.000 A 
ATOM     12  N   UNL     1       3.283   5.524  18.412  0.00  0.00    +0.000 NA
ATOM     13  C   UNL     1       2.768   4.626  19.180  0.00  0.00    +0.000 A 
ENDBRANCH   1  11
BRANCH   1  14
ATOM     14  C   UNL     1       6.571   5.895  16.519  0.00  0.00    +0.000 C 
BRANCH  14  15
ATOM     15  C   UNL     1       7.381   6.600  17.595  0.00  0.00    +0.000 C 
ATOM     16  O   UNL     1       7.663   6.034  18.652  0.00  0.00    +0.000 OA
ATOM     17  N   UNL     1       7.696   7.922  17.363  0.00  0.00    +0.000 N 
ATOM     18  H   UNL     1       7.403   8.349  16.492  0.00  0.00    +0.000 HD
BRANCH  17  19
ATOM     19  C   UNL     1       8.542   8.649  18.294  0.00  0.00    +0.000 C 
BRANCH  19  20
ATOM     20  C   UNL     1       8.382  10.164  18.179  0.00  0.00    +0.000 C 
BRANCH  20  21
ATOM     21  C   UNL     1       9.598  10.904  18.682  0.00  0.00    +0.000 A 
ATOM     22  C   UNL     1       9.754  11.172  20.050  0.00  0.00    +0.000 A 
ATOM     23  C   UNL     1      10.882  11.850  20.515  0.00  0.00    +0.000 A 
ATOM     24  C   UNL     1      11.860  12.277  19.619  0.00  0.00    +0.000 A 
ATOM     25  C   UNL     1      11.707  12.033  18.256  0.00  0.00    +0.000 A 
ATOM     26  C   UNL     1      10.579  11.353  17.789  0.00  0.00    +0.000 A 
ENDBRANCH  20  21
ENDBRANCH  19  20
ENDBRANCH  17  19
ENDBRANCH  14  15
ENDBRANCH   1  14
TORSDOF 6
ENDMDL
MODEL 3
REMARK VINA RESULT:      -8.1      1.555      1.772
REMARK  Name = 
REMARK  7 active torsions:
REMARK  status: ('A' for Active; 'I' for Inactive)
REMARK    1  A    between atoms: C_1  and  C_2
REMARK    2  A    between atoms: C_10  and  S_11
REMARK    3  A    between atoms: S_11  and  C_12
REMARK    4  A    between atoms: C_12  and  C_13
REMARK    5  A    between atoms: N_15  and  C_16
REMARK    6  A    between atoms: C_16  and  C_17
REMARK    7  A    between atoms: C_17  and  C_18
REMARK                            x       y       z     vdW  Elec       q    Type
REMARK                         _______ _______ _______ _____ _____    ______ ____
ROOT
ATOM      1  S   UNL     1       6.916   4.912  17.545  0.00  0.00    +0.000 S 
ENDROOT
BRANCH   1  11
ATOM      2  C   UNL     1       3.761   0.965  18.676  0.00  0.00    +0.000 C 
ATOM      3  C   UNL     1       2.928   2.176  18.956  0.00  0.00    +0.000 A 
ATOM      4  C   UNL     1       1.638   2.122  19.325  0.00  0.00    +0.000 A 
ATOM      5  C   UNL     1       0.910   3.319  19.652  0.00  0.00    +0.000 A 
ATOM      6  C   UNL     1       1.525   4.506  19.603  0.00  0.00    +0.000 A 
ATOM      7  N   UNL     1       2.843   4.621  19.184  0.00  0.00    +0.000 N 
ATOM      8  C   UNL     1       3.461   5.861  19.135  0.00  0.00    +0.000 A 
ATOM      9  O   UNL     1       2.912   6.874  19.566  0.00  0.00    +0.000 OA
ATOM     10  N   UNL     1       4.712   5.941  18.589  0.00  0.00    +0.000 NA
ATOM     11  C   UNL     1       5.309   4.862  18.250  0.00  0.00    +0.000 A 
ATOM     12  N   UNL     1       4.792   3.617  18.391  0.00  0.00    +0.000 NA
ATOM     13  C   UNL     1       3.582   3.522  18.825  0.00  0.00    +0.000 A 
ENDBRANCH   1  11
BRANCH   1  14
ATOM     14  C   UNL     1       7.753   6.098  18.629  0.00  0.00    +0.000 C 
BRANCH  14  15
ATOM     15  C   UNL     1       7.938   7.477  18.015  0.00  0.00    +0.000 C 
ATOM     16  O   UNL     1       7.569   7.715  16.865  0.00  0.00    +0.000 OA
ATOM     17  N   UNL     1       8.620   8.405  18.774  0.00  0.00    +0.000 N 
ATOM     18  H   UNL     1       8.938   8.140  19.699  0.00  0.00    +0.000 HD
BRANCH  17  19
ATOM     19  C   UNL     1       8.766   9.772  18.305  0.00  0.00    +0.000 C 
BRANCH  19  20
ATOM     20  C   UNL     1       9.495  10.666  19.305  0.00  0.00    +0.000 C 
BRANCH  20  21
ATOM     21  C   UNL     1      10.007  11.935  18.668  0.00  0.00    +0.000 A 
ATOM     22  C   UNL     1       9.498  13.183  19.056  0.00  0.00    +0.000 A 
ATOM     23  C   UNL     1       9.977  14.356  18.471  0.00  0.00    +0.000 A 
ATOM     24  C   UNL     1      10.963  14.295  17.488  0.00  0.00    +0.000 A 
ATOM     25  C   UNL     1      11.463  13.060  17.082  0.00  0.00    +0.000 A 
ATOM     26  C   UNL     1      10.985  11.885  17.666  0.00  0.00    +0.000 A 
ENDBRANCH  20  21
ENDBRANCH  19  20
ENDBRANCH  17  19
ENDBRANCH  14  15
ENDBRANCH   1  14
TORSDOF 6
ENDMDL
MODEL 4
REMARK VINA RESULT:      -8.0      1.654      2.609
REMARK  Name = 
REMARK  7 active torsions:
REMARK  status: ('A' for Active; 'I' for Inactive)
REMARK    1  A    between atoms: C_1  and  C_2
REMARK    2  A    between atoms: C_10  and  S_11
REMARK    3  A    between atoms: S_11  and  C_12
REMARK    4  A    between atoms: C_12  and  C_13
REMARK    5  A    between atoms: N_15  and  C_16
REMARK    6  A    between atoms: C_16  and  C_17
REMARK    7  A    between atoms: C_17  and  C_18
REMARK                            x       y       z     vdW  Elec       q    Type
REMARK                         _______ _______ _______ _____ _____    ______ ____
ROOT
ATOM      1  S   UNL     1       5.366   5.364  15.891  0.00  0.00    +0.000 S 
ENDROOT
BRANCH   1  11
ATOM      2  C   UNL     1       2.276   7.126  19.652  0.00  0.00    +0.000 C 
ATOM      3  C   UNL     1       2.239   5.642  19.832  0.00  0.00    +0.000 A 
ATOM      4  C   UNL     1       1.589   5.029  20.834  0.00  0.00    +0.000 A 
ATOM      5  C   UNL     1       1.530   3.593  20.911  0.00  0.00    +0.000 A 
ATOM      6  C   UNL     1       2.118   2.851  19.965  0.00  0.00    +0.000 A 
ATOM      7  N   UNL     1       2.840   3.435  18.934  0.00  0.00    +0.000 N 
ATOM      8  C   UNL     1       3.446   2.648  17.966  0.00  0.00    +0.000 A 
ATOM      9  O   UNL     1       3.271   1.431  17.919  0.00  0.00    +0.000 OA
ATOM     10  N   UNL     1       4.258   3.257  17.050  0.00  0.00    +0.000 NA
ATOM     11  C   UNL     1       4.338   4.534  17.048  0.00  0.00    +0.000 A 
ATOM     12  N   UNL     1       3.670   5.351  17.898  0.00  0.00    +0.000 NA
ATOM     13  C   UNL     1       2.964   4.796  18.823  0.00  0.00    +0.000 A 
ENDBRANCH   1  11
BRANCH   1  14
ATOM     14  C   UNL     1       5.538   6.995  16.659  0.00  0.00    +0.000 C 
BRANCH  14  15
ATOM     15  C   UNL     1       6.968   7.362  17.023  0.00  0.00    +0.000 C 
ATOM     16  O   UNL     1       7.914   6.659  16.669  0.00  0.00    +0.000 OA
ATOM     17  N   UNL     1       7.135   8.459  17.842  0.00  0.00    +0.000 N 
ATOM     18  H   UNL     1       6.315   8.978  18.137  0.00  0.00    +0.000 HD
BRANCH  17  19
ATOM     19  C   UNL     1       8.467   8.935  18.169  0.00  0.00    +0.000 C 
BRANCH  19  20
ATOM     20  C   UNL     1       8.704  10.379  17.733  0.00  0.00    +0.000 C 
BRANCH  20  21
ATOM     21  C   UNL     1       9.731  11.074  18.594  0.00  0.00    +0.000 A 
ATOM     22  C   UNL     1      10.874  11.647  18.018  0.00  0.00    +0.000 A 
ATOM     23  C   UNL     1      11.820  12.295  18.814  0.00  0.00    +0.000 A 
ATOM     24  C   UNL     1      11.639  12.370  20.194  0.00  0.00    +0.000 A 
ATOM     25  C   UNL     1      10.517  11.788  20.779  0.00  0.00    +0.000 A 
ATOM     26  C   UNL     1       9.569  11.140  19.984  0.00  0.00    +0.000 A 
ENDBRANCH  20  21
ENDBRANCH  19  20
ENDBRANCH  17  19
ENDBRANCH  14  15
ENDBRANCH   1  14
TORSDOF 6
ENDMDL
MODEL 5
REMARK VINA RESULT:      -8.0      1.410      1.490
REMARK  Name = 
REMARK  7 active torsions:
REMARK  status: ('A' for Active; 'I' for Inactive)
REMARK    1  A    between atoms: C_1  and  C_2
REMARK    2  A    between atoms: C_10  and  S_11
REMARK    3  A    between atoms: S_11  and  C_12
REMARK    4  A    between atoms: C_12  and  C_13
REMARK    5  A    between atoms: N_15  and  C_16
REMARK    6  A    between atoms: C_16  and  C_17
REMARK    7  A    between atoms: C_17  and  C_18
REMARK                            x       y       z     vdW  Elec       q    Type
REMARK                         _______ _______ _______ _____ _____    ______ ____
ROOT
ATOM      1  S   UNL     1       6.221   4.795  16.668  0.00  0.00    +0.000 S 
ENDROOT
BRANCH   1  11
ATOM      2  C   UNL     1       4.517   1.829  20.555  0.00  0.00    +0.000 C 
ATOM      3  C   UNL     1       3.408   2.810  20.347  0.00  0.00    +0.000 A 
ATOM      4  C   UNL     1       2.244   2.772  21.016  0.00  0.00    +0.000 A 
ATOM      5  C   UNL     1       1.244   3.788  20.824  0.00  0.00    +0.000 A 
ATOM      6  C   UNL     1       1.475   4.797  19.976  0.00  0.00    +0.000 A 
ATOM      7  N   UNL     1       2.641   4.858  19.226  0.00  0.00    +0.000 N 
ATOM      8  C   UNL     1       2.860   5.910  18.349  0.00  0.00    +0.000 A 
ATOM      9  O   UNL     1       2.096   6.872  18.290  0.00  0.00    +0.000 OA
ATOM     10  N   UNL     1       3.956   5.857  17.534  0.00  0.00    +0.000 NA
ATOM     11  C   UNL     1       4.796   4.905  17.689  0.00  0.00    +0.000 A 
ATOM     12  N   UNL     1       4.687   3.921  18.615  0.00  0.00    +0.000 NA
ATOM     13  C   UNL     1       3.619   3.903  19.337  0.00  0.00    +0.000 A 
ENDBRANCH   1  11
BRANCH   1  14
ATOM     14  C   UNL     1       7.455   5.666  17.668  0.00  0.00    +0.000 C 
BRANCH  14  15
ATOM     15  C   UNL     1       7.444   7.176  17.493  0.00  0.00    +0.000 C 
ATOM     16  O   UNL     1       6.700   7.714  16.672  0.00  0.00    +0.000 OA
ATOM     17  N   UNL     1       8.369   7.890  18.225  0.00  0.00    +0.000 N 
ATOM     18  H   UNL     1       8.985   7.389  18.855  0.00  0.00    +0.000 HD
BRANCH  17  19
ATOM     19  C   UNL     1       8.372   9.342  18.187  0.00  0.00    +0.000 C 
BRANCH  19  20
ATOM     20  C   UNL     1       9.159   9.962  19.338  0.00  0.00    +0.000 C 
BRANCH  20  21
ATOM     21  C   UNL     1       9.719  11.318  18.981  0.00  0.00    +0.000 A 
ATOM     22  C   UNL     1       9.550  12.410  19.845  0.00  0.00    +0.000 A 
ATOM     23  C   UNL     1      10.075  13.661  19.517  0.00  0.00    +0.000 A 
ATOM     24  C   UNL     1      10.765  13.837  18.319  0.00  0.00    +0.000 A 
ATOM     25  C   UNL     1      10.923  12.765  17.445  0.00  0.00    +0.000 A 
ATOM     26  C   UNL     1      10.400  11.512  17.771  0.00  0.00    +0.000 A 
ENDBRANCH  20  21
ENDBRANCH  19  20
ENDBRANCH  17  19
ENDBRANCH  14  15
ENDBRANCH   1  14
TORSDOF 6
ENDMDL
MODEL 6
REMARK VINA RESULT:      -7.9      1.490      1.540
REMARK  Name = 
REMARK  7 active torsions:
REMARK  status: ('A' for Active; 'I' for Inactive)
REMARK    1  A    between atoms: C_1  and  C_2
REMARK    2  A    between atoms: C_10  and  S_11
REMARK    3  A    between atoms: S_11  and  C_12
REMARK    4  A    between atoms: C_12  and  C_13
REMARK    5  A    between atoms: N_15  and  C_16
REMARK    6  A    between atoms: C_16  and  C_17
REMARK    7  A    between atoms: C_17  and  C_18
REMARK                            x       y       z     vdW  Elec       q    Type
REMARK                         _______ _______ _______ _____ _____    ______ ____
ROOT
ATOM      1  S   UNL     1       6.854   4.656  17.360  0.00  0.00    +0.000 S 
ENDROOT
BRANCH   1  11
ATOM      2  C   UNL     1       4.568   1.679  20.926  0.00  0.00    +0.000 C 
ATOM      3  C   UNL     1       3.497   2.647  20.534  0.00  0.00    +0.000 A 
ATOM      4  C   UNL     1       2.240   2.596  21.003  0.00  0.00    +0.000 A 
ATOM      5  C   UNL     1       1.273   3.600  20.644  0.00  0.00    +0.000 A 
ATOM      6  C   UNL     1       1.629   4.609  19.842  0.00  0.00    +0.000 A 
ATOM      7  N   UNL     1       2.902   4.683  19.294  0.00  0.00    +0.000 N 
ATOM      8  C   UNL     1       3.250   5.735  18.460  0.00  0.00    +0.000 A 
ATOM      9  O   UNL     1       2.495   6.688  18.273  0.00  0.00    +0.000 OA
ATOM     10  N   UNL     1       4.466   5.694  17.837  0.00  0.00    +0.000 NA
ATOM     11  C   UNL     1       5.280   4.752  18.132  0.00  0.00    +0.000 A 
ATOM     12  N   UNL     1       5.031   3.769  19.031  0.00  0.00    +0.000 NA
ATOM     13  C   UNL     1       3.859   3.740  19.568  0.00  0.00    +0.000 A 
ENDBRANCH   1  11
BRANCH   1  14
ATOM     14  C   UNL     1       7.090   6.362  16.797  0.00  0.00    +0.000 C 
BRANCH  14  15
ATOM     15  C   UNL     1       7.787   7.259  17.807  0.00  0.00    +0.000 C 
ATOM     16  O   UNL     1       8.197   6.811  18.878  0.00  0.00    +0.000 OA
ATOM     17  N   UNL     1       7.848   8.603  17.502  0.00  0.00    +0.000 N 
ATOM     18  H   UNL     1       7.456   8.922  16.623  0.00  0.00    +0.000 HD
BRANCH  17  19
ATOM     19  C   UNL     1       8.571   9.519  18.366  0.00  0.00    +0.000 C 
BRANCH  19  20
ATOM     20  C   UNL     1       8.648  10.934  17.796  0.00  0.00    +0.000 C 
BRANCH  20  21
ATOM     21  C   UNL     1       9.631  11.798  18.547  0.00  0.00    +0.000 A 
ATOM     22  C   UNL     1      10.570  11.222  19.415  0.00  0.00    +0.000 A 
ATOM     23  C   UNL     1      11.483  12.021  20.104  0.00  0.00    +0.000 A 
ATOM     24  C   UNL     1      11.463  13.405  19.941  0.00  0.00    +0.000 A 
ATOM     25  C   UNL     1      10.523  13.991  19.096  0.00  0.00    +0.000 A 
ATOM     26  C   UNL     1       9.608  13.192  18.405  0.00  0.00    +0.000 A 
ENDBRANCH  20  21
ENDBRANCH  19  20
ENDBRANCH  17  19
ENDBRANCH  14  15
ENDBRANCH   1  14
TORSDOF 6
ENDMDL
MODEL 7
REMARK VINA RESULT:      -7.8      3.325      5.726
REMARK  Name = 
REMARK  7 active torsions:
REMARK  status: ('A' for Active; 'I' for Inactive)
REMARK    1  A    between atoms: C_1  and  C_2
REMARK    2  A    between atoms: C_10  and  S_11
REMARK    3  A    between atoms: S_11  and  C_12
REMARK    4  A    between atoms: C_12  and  C_13
REMARK    5  A    between atoms: N_15  and  C_16
REMARK    6  A    between atoms: C_16  and  C_17
REMARK    7  A    between atoms: C_17  and  C_18
REMARK                            x       y       z     vdW  Elec       q    Type
REMARK                         _______ _______ _______ _____ _____    ______ ____
ROOT
ATOM      1  S   UNL     1       2.127   4.643  20.966  0.00  0.00    +0.000 S 
ENDROOT
BRANCH   1  11
ATOM      2  C   UNL     1       0.231   9.261  22.340  0.00  0.00    +0.000 C 
ATOM      3  C   UNL     1       0.679   9.469  20.928  0.00  0.00    +0.000 A 
ATOM      4  C   UNL     1       0.494  10.612  20.249  0.00  0.00    +0.000 A 
ATOM      5  C   UNL     1       1.013  10.777  18.917  0.00  0.00    +0.000 A 
ATOM      6  C   UNL     1       1.703   9.783  18.345  0.00  0.00    +0.000 A 
ATOM      7  N   UNL     1       1.883   8.566  18.986  0.00  0.00    +0.000 N 
ATOM      8  C   UNL     1       2.597   7.546  18.374  0.00  0.00    +0.000 A 
ATOM      9  O   UNL     1       3.188   7.720  17.309  0.00  0.00    +0.000 OA
ATOM     10  N   UNL     1       2.632   6.323  18.983  0.00  0.00    +0.000 NA
ATOM     11  C   UNL     1       2.106   6.194  20.142  0.00  0.00    +0.000 A 
ATOM     12  N   UNL     1       1.503   7.193  20.831  0.00  0.00    +0.000 NA
ATOM     13  C   UNL     1       1.384   8.333  20.242  0.00  0.00    +0.000 A 
ENDBRANCH   1  11
BRANCH   1  14
ATOM     14  C   UNL     1       2.117   3.488  19.570  0.00  0.00    +0.000 C 
BRANCH  14  15
ATOM     15  C   UNL     1       3.453   3.367  18.855  0.00  0.00    +0.000 C 
ATOM     16  O   UNL     1       4.443   2.913  19.430  0.00  0.00    +0.000 OA
ATOM     17  N   UNL     1       3.517   3.877  17.575  0.00  0.00    +0.000 N 
ATOM     18  H   UNL     1       2.680   4.277  17.166  0.00  0.00    +0.000 HD
BRANCH  17  19
ATOM     19  C   UNL     1       4.726   3.727  16.785  0.00  0.00    +0.000 C 
BRANCH  19  20
ATOM     20  C   UNL     1       5.213   5.047  16.191  0.00  0.00    +0.000 C 
BRANCH  20  21
ATOM     21  C   UNL     1       6.249   5.715  17.062  0.00  0.00    +0.000 A 
ATOM     22  C   UNL     1       6.837   5.022  18.129  0.00  0.00    +0.000 A 
ATOM     23  C   UNL     1       7.801   5.639  18.930  0.00  0.00    +0.000 A 
ATOM     24  C   UNL     1       8.180   6.956  18.677  0.00  0.00    +0.000 A 
ATOM     25  C   UNL     1       7.589   7.660  17.631  0.00  0.00    +0.000 A 
ATOM     26  C   UNL     1       6.625   7.045  16.829  0.00  0.00    +0.000 A 
ENDBRANCH  20  21
ENDBRANCH  19  20
ENDBRANCH  17  19
ENDBRANCH  14  15
ENDBRANCH   1  14
TORSDOF 6
ENDMDL
MODEL 8
REMARK VINA RESULT:      -7.8      4.618      6.880
REMARK  Name = 
REMARK  7 active torsions:
REMARK  status: ('A' for Active; 'I' for Inactive)
REMARK    1  A    between atoms: C_1  and  C_2
REMARK    2  A    between atoms: C_10  and  S_11
REMARK    3  A    between atoms: S_11  and  C_12
REMARK    4  A    between atoms: C_12  and  C_13
REMARK    5  A    between atoms: N_15  and  C_16
REMARK    6  A    between atoms: C_16  and  C_17
REMARK    7  A    between atoms: C_17  and  C_18
REMARK                            x       y       z     vdW  Elec       q    Type
REMARK                         _______ _______ _______ _____ _____    ______ ____
ROOT
ATOM      1  S   UNL     1       2.199   4.423  21.363  0.00  0.00    +0.000 S 
ENDROOT
BRANCH   1  11
ATOM      2  C   UNL     1       0.104   9.128  21.886  0.00  0.00    +0.000 C 
ATOM      3  C   UNL     1       0.718   9.164  20.523  0.00  0.00    +0.000 A 
ATOM      4  C   UNL     1       0.605  10.206  19.683  0.00  0.00    +0.000 A 
ATOM      5  C   UNL     1       1.280  10.211  18.413  0.00  0.00    +0.000 A 
ATOM      6  C   UNL     1       2.044   9.170  18.061  0.00  0.00    +0.000 A 
ATOM      7  N   UNL     1       2.158   8.050  18.873  0.00  0.00    +0.000 N 
ATOM      8  C   UNL     1       2.951   6.980  18.489  0.00  0.00    +0.000 A 
ATOM      9  O   UNL     1       3.665   7.031  17.488  0.00  0.00    +0.000 OA
ATOM     10  N   UNL     1       2.924   5.846  19.252  0.00  0.00    +0.000 NA
ATOM     11  C   UNL     1       2.263   5.853  20.347  0.00  0.00    +0.000 A 
ATOM     12  N   UNL     1       1.570   6.917  20.823  0.00  0.00    +0.000 NA
ATOM     13  C   UNL     1       1.512   7.968  20.080  0.00  0.00    +0.000 A 
ENDBRANCH   1  11
BRANCH   1  14
ATOM     14  C   UNL     1       1.000   3.396  20.474  0.00  0.00    +0.000 C 
BRANCH  14  15
ATOM     15  C   UNL     1       1.504   2.867  19.140  0.00  0.00    +0.000 C 
ATOM     16  O   UNL     1       0.719   2.495  18.267  0.00  0.00    +0.000 OA
ATOM     17  N   UNL     1       2.870   2.739  19.003  0.00  0.00    +0.000 N 
ATOM     18  H   UNL     1       3.467   3.022  19.772  0.00  0.00    +0.000 HD
BRANCH  17  19
ATOM     19  C   UNL     1       3.444   2.325  17.734  0.00  0.00    +0.000 C 
BRANCH  19  20
ATOM     20  C   UNL     1       3.506   3.460  16.715  0.00  0.00    +0.000 C 
BRANCH  20  21
ATOM     21  C   UNL     1       4.916   3.951  16.492  0.00  0.00    +0.000 A 
ATOM     22  C   UNL     1       5.419   4.109  15.193  0.00  0.00    +0.000 A 
ATOM     23  C   UNL     1       6.720   4.570  14.988  0.00  0.00    +0.000 A 
ATOM     24  C   UNL     1       7.536   4.869  16.078  0.00  0.00    +0.000 A 
ATOM     25  C   UNL     1       7.053   4.698  17.373  0.00  0.00    +0.000 A 
ATOM     26  C   UNL     1       5.751   4.237  17.580  0.00  0.00    +0.000 A 
ENDBRANCH  20  21
ENDBRANCH  19  20
ENDBRANCH  17  19
ENDBRANCH  14  15
ENDBRANCH   1  14
TORSDOF 6
ENDMDL
MODEL 9
REMARK VINA RESULT:      -7.8      4.174      7.072
REMARK  Name = 
REMARK  7 active torsions:
REMARK  status: ('A' for Active; 'I' for Inactive)
REMARK    1  A    between atoms: C_1  and  C_2
REMARK    2  A    between atoms: C_10  and  S_11
REMARK    3  A    between atoms: S_11  and  C_12
REMARK    4  A    between atoms: C_12  and  C_13
REMARK    5  A    between atoms: N_15  and  C_16
REMARK    6  A    between atoms: C_16  and  C_17
REMARK    7  A    between atoms: C_17  and  C_18
REMARK                            x       y       z     vdW  Elec       q    Type
REMARK                         _______ _______ _______ _____ _____    ______ ____
ROOT
ATOM      1  S   UNL     1       6.779   5.656  19.333  0.00  0.00    +0.000 S 
ENDROOT
BRANCH   1  11
ATOM      2  C   UNL     1       1.869   6.735  20.572  0.00  0.00    +0.000 C 
ATOM      3  C   UNL     1       1.837   5.278  20.237  0.00  0.00    +0.000 A 
ATOM      4  C   UNL     1       0.741   4.511  20.356  0.00  0.00    +0.000 A 
ATOM      5  C   UNL     1       0.754   3.132  19.947  0.00  0.00    +0.000 A 
ATOM      6  C   UNL     1       1.867   2.602  19.427  0.00  0.00    +0.000 A 
ATOM      7  N   UNL     1       3.038   3.339  19.324  0.00  0.00    +0.000 N 
ATOM      8  C   UNL     1       4.183   2.770  18.786  0.00  0.00    +0.000 A 
ATOM      9  O   UNL     1       4.171   1.649  18.280  0.00  0.00    +0.000 OA
ATOM     10  N   UNL     1       5.346   3.487  18.831  0.00  0.00    +0.000 NA
ATOM     11  C   UNL     1       5.313   4.693  19.258  0.00  0.00    +0.000 A 
ATOM     12  N   UNL     1       4.195   5.331  19.682  0.00  0.00    +0.000 NA
ATOM     13  C   UNL     1       3.103   4.648  19.728  0.00  0.00    +0.000 A 
ENDBRANCH   1  11
BRANCH   1  14
ATOM     14  C   UNL     1       7.614   5.171  17.800  0.00  0.00    +0.000 C 
BRANCH  14  15
ATOM     15  C   UNL     1       6.845   5.523  16.537  0.00  0.00    +0.000 C 
ATOM     16  O   UNL     1       6.580   6.693  16.259  0.00  0.00    +0.000 OA
ATOM     17  N   UNL     1       6.384   4.466  15.779  0.00  0.00    +0.000 N 
ATOM     18  H   UNL     1       6.597   3.521  16.078  0.00  0.00    +0.000 HD
BRANCH  17  19
ATOM     19  C   UNL     1       5.716   4.708  14.512  0.00  0.00    +0.000 C 
BRANCH  19  20
ATOM     20  C   UNL     1       6.677   4.694  13.325  0.00  0.00    +0.000 C 
BRANCH  20  21
ATOM     21  C   UNL     1       6.436   3.517  12.411  0.00  0.00    +0.000 A 
ATOM     22  C   UNL     1       7.515   2.821  11.845  0.00  0.00    +0.000 A 
ATOM     23  C   UNL     1       7.292   1.729  11.006  0.00  0.00    +0.000 A 
ATOM     24  C   UNL     1       5.991   1.325  10.715  0.00  0.00    +0.000 A 
ATOM     25  C   UNL     1       4.911   2.019  11.256  0.00  0.00    +0.000 A 
ATOM     26  C   UNL     1       5.132   3.113  12.097  0.00  0.00    +0.000 A 
ENDBRANCH  20  21
ENDBRANCH  19  20
ENDBRANCH  17  19
ENDBRANCH  14  15
ENDBRANCH   1  14
TORSDOF 6
ENDMDL
