MODEL 1
REMARK VINA RESULT:      -7.8      0.000      0.000
REMARK  Name = 
REMARK  4 active torsions:
REMARK  status: ('A' for Active; 'I' for Inactive)
REMARK    1  A    between atoms: C_1  and  O_2
REMARK    2  A    between atoms: O_2  and  C_3
REMARK    3  A    between atoms: C_7  and  C_8
REMARK    4  A    between atoms: C_15  and  C_16
REMARK                            x       y       z     vdW  Elec       q    Type
REMARK                         _______ _______ _______ _____ _____    ______ ____
ROOT
ATOM      1  C   UNL     1       0.728   9.782  21.891  0.00  0.00    +0.000 C 
ATOM      2  O   UNL     1       1.281   9.440  22.931  0.00  0.00    +0.000 OA
ATOM      3  N   UNL     1       0.946   9.037  20.744  0.00  0.00    +0.000 N 
ATOM      4  C   UNL     1       0.556   9.457  19.400  0.00  0.00    +0.000 C 
ATOM      5  C   UNL     1       1.748   9.395  18.432  0.00  0.00    +0.000 C 
ATOM      6  C   UNL     1       2.455   8.066  18.511  0.00  0.00    +0.000 A 
ATOM      7  N   UNL     1       3.238   7.647  17.487  0.00  0.00    +0.000 NA
ATOM      8  C   UNL     1       3.897   6.456  17.541  0.00  0.00    +0.000 A 
ATOM      9  N   UNL     1       3.756   5.664  18.638  0.00  0.00    +0.000 NA
ATOM     10  C   UNL     1       2.997   6.047  19.688  0.00  0.00    +0.000 A 
ATOM     11  C   UNL     1       2.336   7.278  19.661  0.00  0.00    +0.000 A 
ATOM     12  C   UNL     1       1.562   7.713  20.874  0.00  0.00    +0.000 C 
ENDROOT
BRANCH   1  17
ATOM     13  C   UNL     1      -2.197  11.988  23.009  0.00  0.00    +0.000 A 
ATOM     14  C   UNL     1      -1.861  13.204  22.390  0.00  0.00    +0.000 A 
ATOM     15  C   UNL     1      -0.712  13.294  21.607  0.00  0.00    +0.000 A 
ATOM     16  C   UNL     1       0.109  12.177  21.427  0.00  0.00    +0.000 A 
ATOM     17  C   UNL     1      -0.221  10.938  22.015  0.00  0.00    +0.000 A 
ATOM     18  C   UNL     1      -1.374  10.873  22.817  0.00  0.00    +0.000 A 
BRANCH  13  20
ATOM     19  C   UNL     1      -4.171  12.839  24.160  0.00  0.00    +0.000 C 
ATOM     20  O   UNL     1      -3.278  11.848  23.819  0.00  0.00    +0.000 OA
ENDBRANCH  13  20
ENDBRANCH   1  17
BRANCH   8  21
ATOM     21  C   UNL     1       4.797   6.003  16.433  0.00  0.00    +0.000 C 
ATOM     22  C   UNL     1       4.870   4.492  16.304  0.00  0.00    +0.000 C 
ATOM     23  C   UNL     1       6.024   4.397  15.337  0.00  0.00    +0.000 C 
ATOM     24  C   UNL     1       6.996   5.414  15.936  0.00  0.00    +0.000 C 
ATOM     25  N   UNL     1       6.181   6.438  16.612  0.00  0.00    +0.000 NA
ATOM     26  H   UNL     1       6.324   7.387  16.189  0.00  0.00    +0.000 HD
ENDBRANCH   8  21
TORSDOF 3
ENDMDL
MODEL 2
REMARK VINA RESULT:      -7.8      2.886      9.112
REMARK  Name = 
REMARK  4 active torsions:
REMARK  status: ('A' for Active; 'I' for Inactive)
REMARK    1  A    between atoms: C_1  and  O_2
REMARK    2  A    between atoms: O_2  and  C_3
REMARK    3  A    between atoms: C_7  and  C_8
REMARK    4  A    between atoms: C_15  and  C_16
REMARK                            x       y       z     vdW  Elec       q    Type
REMARK                         _______ _______ _______ _____ _____    ______ ____
ROOT
ATOM      1  C   UNL     1       2.412   6.206  19.761  0.00  0.00    +0.000 C 
ATOM      2  O   UNL     1       1.998   5.531  20.699  0.00  0.00    +0.000 OA
ATOM      3  N   UNL     1       2.076   7.549  19.707  0.00  0.00    +0.000 N 
ATOM      4  C   UNL     1       2.290   8.407  18.544  0.00  0.00    +0.000 C 
ATOM      5  C   UNL     1       0.991   9.121  18.137  0.00  0.00    +0.000 C 
ATOM      6  C   UNL     1       0.335   9.790  19.318  0.00  0.00    +0.000 A 
ATOM      7  N   UNL     1      -0.555  10.794  19.127  0.00  0.00    +0.000 NA
ATOM      8  C   UNL     1      -1.169  11.405  20.178  0.00  0.00    +0.000 A 
ATOM      9  N   UNL     1      -0.875  11.009  21.445  0.00  0.00    +0.000 NA
ATOM     10  C   UNL     1      -0.005  10.003  21.684  0.00  0.00    +0.000 A 
ATOM     11  C   UNL     1       0.614   9.347  20.616  0.00  0.00    +0.000 A 
ATOM     12  C   UNL     1       1.517   8.180  20.906  0.00  0.00    +0.000 C 
ENDROOT
BRANCH   1  17
ATOM     13  C   UNL     1       5.560   4.665  18.218  0.00  0.00    +0.000 A 
ATOM     14  C   UNL     1       5.007   3.972  17.127  0.00  0.00    +0.000 A 
ATOM     15  C   UNL     1       3.635   4.026  16.891  0.00  0.00    +0.000 A 
ATOM     16  C   UNL     1       2.802   4.771  17.731  0.00  0.00    +0.000 A 
ATOM     17  C   UNL     1       3.337   5.497  18.816  0.00  0.00    +0.000 A 
ATOM     18  C   UNL     1       4.721   5.415  19.048  0.00  0.00    +0.000 A 
BRANCH  13  20
ATOM     19  C   UNL     1       7.670   5.686  18.893  0.00  0.00    +0.000 C 
ATOM     20  O   UNL     1       6.881   4.617  18.527  0.00  0.00    +0.000 OA
ENDBRANCH  13  20
ENDBRANCH   1  17
BRANCH   8  21
ATOM     21  C   UNL     1      -2.184  12.487  19.977  0.00  0.00    +0.000 C 
ATOM     22  C   UNL     1      -2.853  12.927  21.267  0.00  0.00    +0.000 C 
ATOM     23  C   UNL     1      -3.957  13.770  20.681  0.00  0.00    +0.000 C 
ATOM     24  C   UNL     1      -4.440  12.875  19.539  0.00  0.00    +0.000 C 
ATOM     25  N   UNL     1      -3.280  12.082  19.097  0.00  0.00    +0.000 NA
ATOM     26  H   UNL     1      -3.037  12.277  18.096  0.00  0.00    +0.000 HD
ENDBRANCH   8  21
TORSDOF 3
ENDMDL
MODEL 3
REMARK VINA RESULT:      -7.5      3.321      9.405
REMARK  Name = 
REMARK  4 active torsions:
REMARK  status: ('A' for Active; 'I' for Inactive)
REMARK    1  A    between atoms: C_1  and  O_2
REMARK    2  A    between atoms: O_2  and  C_3
REMARK    3  A    between atoms: C_7  and  C_8
REMARK    4  A    between atoms: C_15  and  C_16
REMARK                            x       y       z     vdW  Elec       q    Type
REMARK                         _______ _______ _______ _____ _____    ______ ____
ROOT
ATOM      1  C   UNL     1       3.907   5.005  18.203  0.00  0.00    +0.000 C 
ATOM      2  O   UNL     1       3.394   4.035  18.752  0.00  0.00    +0.000 OA
ATOM      3  N   UNL     1       3.539   6.276  18.616  0.00  0.00    +0.000 N 
ATOM      4  C   UNL     1       3.877   7.505  17.902  0.00  0.00    +0.000 C 
ATOM      5  C   UNL     1       2.621   8.347  17.625  0.00  0.00    +0.000 C 
ATOM      6  C   UNL     1       1.795   8.533  18.871  0.00  0.00    +0.000 A 
ATOM      7  N   UNL     1       0.907   9.554  18.955  0.00  0.00    +0.000 NA
ATOM      8  C   UNL     1       0.140   9.735  20.067  0.00  0.00    +0.000 A 
ATOM      9  N   UNL     1       0.276   8.883  21.118  0.00  0.00    +0.000 NA
ATOM     10  C   UNL     1       1.138   7.843  21.073  0.00  0.00    +0.000 A 
ATOM     11  C   UNL     1       1.913   7.627  19.931  0.00  0.00    +0.000 A 
ATOM     12  C   UNL     1       2.807   6.418  19.877  0.00  0.00    +0.000 C 
ENDROOT
BRANCH   1  17
ATOM     13  C   UNL     1       5.671   4.239  14.892  0.00  0.00    +0.000 A 
ATOM     14  C   UNL     1       7.018   4.305  15.289  0.00  0.00    +0.000 A 
ATOM     15  C   UNL     1       7.340   4.576  16.617  0.00  0.00    +0.000 A 
ATOM     16  C   UNL     1       6.329   4.776  17.562  0.00  0.00    +0.000 A 
ATOM     17  C   UNL     1       4.970   4.687  17.194  0.00  0.00    +0.000 A 
ATOM     18  C   UNL     1       4.666   4.432  15.845  0.00  0.00    +0.000 A 
BRANCH  13  20
ATOM     19  C   UNL     1       6.079   3.493  12.606  0.00  0.00    +0.000 C 
ATOM     20  O   UNL     1       5.293   4.022  13.606  0.00  0.00    +0.000 OA
ENDBRANCH  13  20
ENDBRANCH   1  17
BRANCH   8  21
ATOM     21  C   UNL     1      -0.873  10.834  20.154  0.00  0.00    +0.000 C 
ATOM     22  C   UNL     1      -1.678  11.008  18.879  0.00  0.00    +0.000 C 
ATOM     23  C   UNL     1      -2.357  12.313  19.207  0.00  0.00    +0.000 C 
ATOM     24  C   UNL     1      -1.192  13.114  19.791  0.00  0.00    +0.000 C 
ATOM     25  N   UNL     1      -0.271  12.143  20.407  0.00  0.00    +0.000 NA
ATOM     26  H   UNL     1      -0.170  12.306  21.438  0.00  0.00    +0.000 HD
ENDBRANCH   8  21
TORSDOF 3
ENDMDL
MODEL 4
REMARK VINA RESULT:      -7.5      2.945      9.055
REMARK  Name = 
REMARK  4 active torsions:
REMARK  status: ('A' for Active; 'I' for Inactive)
REMARK    1  A    between atoms: C_1  and  O_2
REMARK    2  A    between atoms: O_2  and  C_3
REMARK    3  A    between atoms: C_7  and  C_8
REMARK    4  A    between atoms: C_15  and  C_16
REMARK                            x       y       z     vdW  Elec       q    Type
REMARK                         _______ _______ _______ _____ _____    ______ ____
ROOT
ATOM      1  C   UNL     1       2.075   6.084  19.763  0.00  0.00    +0.000 C 
ATOM      2  O   UNL     1       1.471   5.522  20.670  0.00  0.00    +0.000 OA
ATOM      3  N   UNL     1       2.046   7.467  19.699  0.00  0.00    +0.000 N 
ATOM      4  C   UNL     1       2.509   8.251  18.556  0.00  0.00    +0.000 C 
ATOM      5  C   UNL     1       1.423   9.231  18.082  0.00  0.00    +0.000 C 
ATOM      6  C   UNL     1       0.864  10.033  19.228  0.00  0.00    +0.000 A 
ATOM      7  N   UNL     1       0.228  11.207  18.993  0.00  0.00    +0.000 NA
ATOM      8  C   UNL     1      -0.296  11.944  20.012  0.00  0.00    +0.000 A 
ATOM      9  N   UNL     1      -0.169  11.500  21.291  0.00  0.00    +0.000 NA
ATOM     10  C   UNL     1       0.444  10.329  21.572  0.00  0.00    +0.000 A 
ATOM     11  C   UNL     1       0.964   9.547  20.537  0.00  0.00    +0.000 A 
ATOM     12  C   UNL     1       1.572   8.212  20.869  0.00  0.00    +0.000 C 
ENDROOT
BRANCH   1  17
ATOM     13  C   UNL     1       4.997   4.155  18.209  0.00  0.00    +0.000 A 
ATOM     14  C   UNL     1       4.312   3.322  17.308  0.00  0.00    +0.000 A 
ATOM     15  C   UNL     1       2.926   3.404  17.197  0.00  0.00    +0.000 A 
ATOM     16  C   UNL     1       2.209   4.318  17.975  0.00  0.00    +0.000 A 
ATOM     17  C   UNL     1       2.875   5.184  18.867  0.00  0.00    +0.000 A 
ATOM     18  C   UNL     1       4.272   5.072  18.978  0.00  0.00    +0.000 A 
BRANCH  13  20
ATOM     19  C   UNL     1       7.298   4.695  17.610  0.00  0.00    +0.000 C 
ATOM     20  O   UNL     1       6.340   4.092  18.395  0.00  0.00    +0.000 OA
ENDBRANCH  13  20
ENDBRANCH   1  17
BRANCH   8  21
ATOM     21  C   UNL     1      -1.036  13.221  19.761  0.00  0.00    +0.000 C 
ATOM     22  C   UNL     1      -0.120  14.423  19.615  0.00  0.00    +0.000 C 
ATOM     23  C   UNL     1      -1.160  15.515  19.660  0.00  0.00    +0.000 C 
ATOM     24  C   UNL     1      -2.036  15.040  20.820  0.00  0.00    +0.000 C 
ATOM     25  N   UNL     1      -1.953  13.570  20.846  0.00  0.00    +0.000 NA
ATOM     26  H   UNL     1      -2.890  13.126  20.689  0.00  0.00    +0.000 HD
ENDBRANCH   8  21
TORSDOF 3
ENDMDL
MODEL 5
REMARK VINA RESULT:      -7.5      2.294      3.268
REMARK  Name = 
REMARK  4 active torsions:
REMARK  status: ('A' for Active; 'I' for Inactive)
REMARK    1  A    between atoms: C_1  and  O_2
REMARK    2  A    between atoms: O_2  and  C_3
REMARK    3  A    between atoms: C_7  and  C_8
REMARK    4  A    between atoms: C_15  and  C_16
REMARK                            x       y       z     vdW  Elec       q    Type
REMARK                         _______ _______ _______ _____ _____    ______ ____
ROOT
ATOM      1  C   UNL     1      -1.572  12.091  20.739  0.00  0.00    +0.000 C 
ATOM      2  O   UNL     1      -2.190  12.318  19.704  0.00  0.00    +0.000 OA
ATOM      3  N   UNL     1      -0.408  11.343  20.669  0.00  0.00    +0.000 N 
ATOM      4  C   UNL     1       0.293  10.796  21.829  0.00  0.00    +0.000 C 
ATOM      5  C   UNL     1       0.530   9.286  21.670  0.00  0.00    +0.000 C 
ATOM      6  C   UNL     1       1.147   8.961  20.334  0.00  0.00    +0.000 A 
ATOM      7  N   UNL     1       1.810   7.793  20.154  0.00  0.00    +0.000 NA
ATOM      8  C   UNL     1       2.365   7.472  18.952  0.00  0.00    +0.000 A 
ATOM      9  N   UNL     1       2.264   8.346  17.915  0.00  0.00    +0.000 NA
ATOM     10  C   UNL     1       1.601   9.517  18.045  0.00  0.00    +0.000 A 
ATOM     11  C   UNL     1       1.002   9.849  19.262  0.00  0.00    +0.000 A 
ATOM     12  C   UNL     1       0.205  11.121  19.356  0.00  0.00    +0.000 C 
ENDROOT
BRANCH   1  17
ATOM     13  C   UNL     1      -3.724  12.858  23.812  0.00  0.00    +0.000 A 
ATOM     14  C   UNL     1      -2.977  13.890  24.406  0.00  0.00    +0.000 A 
ATOM     15  C   UNL     1      -1.805  14.338  23.802  0.00  0.00    +0.000 A 
ATOM     16  C   UNL     1      -1.367  13.770  22.601  0.00  0.00    +0.000 A 
ATOM     17  C   UNL     1      -2.114  12.753  21.972  0.00  0.00    +0.000 A 
ATOM     18  C   UNL     1      -3.284  12.301  22.607  0.00  0.00    +0.000 A 
BRANCH  13  20
ATOM     19  C   UNL     1      -6.145  12.718  24.079  0.00  0.00    +0.000 C 
ATOM     20  O   UNL     1      -4.851  12.348  24.373  0.00  0.00    +0.000 OA
ENDBRANCH  13  20
ENDBRANCH   1  17
BRANCH   8  21
ATOM     21  C   UNL     1       3.064   6.166  18.731  0.00  0.00    +0.000 C 
ATOM     22  C   UNL     1       2.228   5.166  17.951  0.00  0.00    +0.000 C 
ATOM     23  C   UNL     1       3.081   3.940  18.156  0.00  0.00    +0.000 C 
ATOM     24  C   UNL     1       3.404   4.050  19.647  0.00  0.00    +0.000 C 
ATOM     25  N   UNL     1       3.406   5.485  19.979  0.00  0.00    +0.000 NA
ATOM     26  H   UNL     1       4.344   5.802  20.323  0.00  0.00    +0.000 HD
ENDBRANCH   8  21
TORSDOF 3
ENDMDL
MODEL 6
REMARK VINA RESULT:      -7.4      2.060      2.800
REMARK  Name = 
REMARK  4 active torsions:
REMARK  status: ('A' for Active; 'I' for Inactive)
REMARK    1  A    between atoms: C_1  and  O_2
REMARK    2  A    between atoms: O_2  and  C_3
REMARK    3  A    between atoms: C_7  and  C_8
REMARK    4  A    between atoms: C_15  and  C_16
REMARK                            x       y       z     vdW  Elec       q    Type
REMARK                         _______ _______ _______ _____ _____    ______ ____
ROOT
ATOM      1  C   UNL     1      -0.349  11.315  20.074  0.00  0.00    +0.000 C 
ATOM      2  O   UNL     1      -0.793  11.591  18.964  0.00  0.00    +0.000 OA
ATOM      3  N   UNL     1       0.659  10.370  20.172  0.00  0.00    +0.000 N 
ATOM      4  C   UNL     1       1.111   9.772  21.427  0.00  0.00    +0.000 C 
ATOM      5  C   UNL     1       1.085   8.237  21.349  0.00  0.00    +0.000 C 
ATOM      6  C   UNL     1       1.781   7.735  20.110  0.00  0.00    +0.000 A 
ATOM      7  N   UNL     1       2.235   6.459  20.051  0.00  0.00    +0.000 NA
ATOM      8  C   UNL     1       2.856   5.980  18.937  0.00  0.00    +0.000 A 
ATOM      9  N   UNL     1       3.036   6.800  17.868  0.00  0.00    +0.000 NA
ATOM     10  C   UNL     1       2.587   8.075  17.876  0.00  0.00    +0.000 A 
ATOM     11  C   UNL     1       1.924   8.575  18.999  0.00  0.00    +0.000 A 
ATOM     12  C   UNL     1       1.367   9.971  18.953  0.00  0.00    +0.000 C 
ENDROOT
BRANCH   1  17
ATOM     13  C   UNL     1      -2.469  12.432  23.061  0.00  0.00    +0.000 A 
ATOM     14  C   UNL     1      -1.767  13.579  23.468  0.00  0.00    +0.000 A 
ATOM     15  C   UNL     1      -0.635  13.989  22.767  0.00  0.00    +0.000 A 
ATOM     16  C   UNL     1      -0.195  13.268  21.654  0.00  0.00    +0.000 A 
ATOM     17  C   UNL     1      -0.898  12.129  21.209  0.00  0.00    +0.000 A 
ATOM     18  C   UNL     1      -2.027  11.721  21.941  0.00  0.00    +0.000 A 
BRANCH  13  20
ATOM     19  C   UNL     1      -4.233  12.602  24.737  0.00  0.00    +0.000 C 
ATOM     20  O   UNL     1      -3.553  11.957  23.728  0.00  0.00    +0.000 OA
ENDBRANCH  13  20
ENDBRANCH   1  17
BRANCH   8  21
ATOM     21  C   UNL     1       3.325   4.561  18.846  0.00  0.00    +0.000 C 
ATOM     22  C   UNL     1       3.010   3.912  17.510  0.00  0.00    +0.000 C 
ATOM     23  C   UNL     1       3.345   2.484  17.860  0.00  0.00    +0.000 C 
ATOM     24  C   UNL     1       2.685   2.353  19.234  0.00  0.00    +0.000 C 
ATOM     25  N   UNL     1       2.706   3.692  19.847  0.00  0.00    +0.000 NA
ATOM     26  H   UNL     1       3.263   3.702  20.735  0.00  0.00    +0.000 HD
ENDBRANCH   8  21
TORSDOF 3
ENDMDL
MODEL 7
REMARK VINA RESULT:      -7.3      1.282      2.005
REMARK  Name = 
REMARK  4 active torsions:
REMARK  status: ('A' for Active; 'I' for Inactive)
REMARK    1  A    between atoms: C_1  and  O_2
REMARK    2  A    between atoms: O_2  and  C_3
REMARK    3  A    between atoms: C_7  and  C_8
REMARK    4  A    between atoms: C_15  and  C_16
REMARK                            x       y       z     vdW  Elec       q    Type
REMARK                         _______ _______ _______ _____ _____    ______ ____
ROOT
ATOM      1  C   UNL     1       0.924   9.900  21.711  0.00  0.00    +0.000 C 
ATOM      2  O   UNL     1       1.429   9.540  22.770  0.00  0.00    +0.000 OA
ATOM      3  N   UNL     1       1.098   9.111  20.587  0.00  0.00    +0.000 N 
ATOM      4  C   UNL     1       0.767   9.527  19.226  0.00  0.00    +0.000 C 
ATOM      5  C   UNL     1       1.966   9.340  18.283  0.00  0.00    +0.000 C 
ATOM      6  C   UNL     1       2.557   7.960  18.407  0.00  0.00    +0.000 A 
ATOM      7  N   UNL     1       3.319   7.451  17.409  0.00  0.00    +0.000 NA
ATOM      8  C   UNL     1       3.873   6.209  17.504  0.00  0.00    +0.000 A 
ATOM      9  N   UNL     1       3.648   5.461  18.616  0.00  0.00    +0.000 NA
ATOM     10  C   UNL     1       2.906   5.933  19.643  0.00  0.00    +0.000 A 
ATOM     11  C   UNL     1       2.352   7.214  19.574  0.00  0.00    +0.000 A 
ATOM     12  C   UNL     1       1.598   7.744  20.761  0.00  0.00    +0.000 C 
ENDROOT
BRANCH   1  17
ATOM     13  C   UNL     1      -0.440  13.427  21.100  0.00  0.00    +0.000 A 
ATOM     14  C   UNL     1      -1.661  13.360  21.794  0.00  0.00    +0.000 A 
ATOM     15  C   UNL     1      -2.020  12.192  22.463  0.00  0.00    +0.000 A 
ATOM     16  C   UNL     1      -1.168  11.084  22.455  0.00  0.00    +0.000 A 
ATOM     17  C   UNL     1       0.075  11.135  21.790  0.00  0.00    +0.000 A 
ATOM     18  C   UNL     1       0.410  12.316  21.105  0.00  0.00    +0.000 A 
BRANCH  13  20
ATOM     19  C   UNL     1      -0.278  14.740  19.052  0.00  0.00    +0.000 C 
ATOM     20  O   UNL     1      -0.054  14.519  20.393  0.00  0.00    +0.000 OA
ENDBRANCH  13  20
ENDBRANCH   1  17
BRANCH   8  21
ATOM     21  C   UNL     1       4.750   5.654  16.425  0.00  0.00    +0.000 C 
ATOM     22  C   UNL     1       5.026   4.170  16.584  0.00  0.00    +0.000 C 
ATOM     23  C   UNL     1       6.112   4.022  15.549  0.00  0.00    +0.000 C 
ATOM     24  C   UNL     1       6.971   5.253  15.844  0.00  0.00    +0.000 C 
ATOM     25  N   UNL     1       6.069   6.285  16.383  0.00  0.00    +0.000 NA
ATOM     26  H   UNL     1       6.048   7.137  15.773  0.00  0.00    +0.000 HD
ENDBRANCH   8  21
TORSDOF 3
ENDMDL
MODEL 8
REMARK VINA RESULT:      -7.3      2.669      9.297
REMARK  Name = 
REMARK  4 active torsions:
REMARK  status: ('A' for Active; 'I' for Inactive)
REMARK    1  A    between atoms: C_1  and  O_2
REMARK    2  A    between atoms: O_2  and  C_3
REMARK    3  A    between atoms: C_7  and  C_8
REMARK    4  A    between atoms: C_15  and  C_16
REMARK                            x       y       z     vdW  Elec       q    Type
REMARK                         _______ _______ _______ _____ _____    ______ ____
ROOT
ATOM      1  C   UNL     1       2.088   6.210  20.021  0.00  0.00    +0.000 C 
ATOM      2  O   UNL     1       1.816   5.364  20.867  0.00  0.00    +0.000 OA
ATOM      3  N   UNL     1       1.832   7.541  20.305  0.00  0.00    +0.000 N 
ATOM      4  C   UNL     1       1.876   8.619  19.319  0.00  0.00    +0.000 C 
ATOM      5  C   UNL     1       0.570   9.430  19.326  0.00  0.00    +0.000 C 
ATOM      6  C   UNL     1       0.190   9.851  20.722  0.00  0.00    +0.000 A 
ATOM      7  N   UNL     1      -0.656  10.892  20.915  0.00  0.00    +0.000 NA
ATOM      8  C   UNL     1      -1.024  11.283  22.167  0.00  0.00    +0.000 A 
ATOM      9  N   UNL     1      -0.523  10.625  23.246  0.00  0.00    +0.000 NA
ATOM     10  C   UNL     1       0.313   9.573  23.102  0.00  0.00    +0.000 A 
ATOM     11  C   UNL     1       0.679   9.141  21.825  0.00  0.00    +0.000 A 
ATOM     12  C   UNL     1       1.547   7.921  21.691  0.00  0.00    +0.000 C 
ENDROOT
BRANCH   1  17
ATOM     13  C   UNL     1       4.598   5.785  17.160  0.00  0.00    +0.000 A 
ATOM     14  C   UNL     1       4.160   4.570  16.604  0.00  0.00    +0.000 A 
ATOM     15  C   UNL     1       3.055   3.915  17.143  0.00  0.00    +0.000 A 
ATOM     16  C   UNL     1       2.372   4.463  18.233  0.00  0.00    +0.000 A 
ATOM     17  C   UNL     1       2.774   5.694  18.791  0.00  0.00    +0.000 A 
ATOM     18  C   UNL     1       3.903   6.330  18.244  0.00  0.00    +0.000 A 
BRANCH  13  20
ATOM     19  C   UNL     1       7.006   6.094  16.926  0.00  0.00    +0.000 C 
ATOM     20  O   UNL     1       5.693   6.449  16.708  0.00  0.00    +0.000 OA
ENDBRANCH  13  20
ENDBRANCH   1  17
BRANCH   8  21
ATOM     21  C   UNL     1      -1.990  12.406  22.389  0.00  0.00    +0.000 C 
ATOM     22  C   UNL     1      -1.390  13.566  23.162  0.00  0.00    +0.000 C 
ATOM     23  C   UNL     1      -2.653  14.341  23.438  0.00  0.00    +0.000 C 
ATOM     24  C   UNL     1      -3.601  13.219  23.864  0.00  0.00    +0.000 C 
ATOM     25  N   UNL     1      -3.164  12.000  23.161  0.00  0.00    +0.000 NA
ATOM     26  H   UNL     1      -3.911  11.632  22.524  0.00  0.00    +0.000 HD
ENDBRANCH   8  21
TORSDOF 3
ENDMDL
MODEL 9
REMARK VINA RESULT:      -7.2      1.573      1.808
REMARK  Name = 
REMARK  4 active torsions:
REMARK  status: ('A' for Active; 'I' for Inactive)
REMARK    1  A    between atoms: C_1  and  O_2
REMARK    2  A    between atoms: O_2  and  C_3
REMARK    3  A    between atoms: C_7  and  C_8
REMARK    4  A    between atoms: C_15  and  C_16
REMARK                            x       y       z     vdW  Elec       q    Type
REMARK                         _______ _______ _______ _____ _____    ______ ____
ROOT
ATOM      1  C   UNL     1       0.611  10.310  21.092  0.00  0.00    +0.000 C 
ATOM      2  O   UNL     1       1.016  10.075  22.225  0.00  0.00    +0.000 OA
ATOM      3  N   UNL     1       0.918   9.419  20.076  0.00  0.00    +0.000 N 
ATOM      4  C   UNL     1       0.714   9.686  18.654  0.00  0.00    +0.000 C 
ATOM      5  C   UNL     1       2.007   9.451  17.856  0.00  0.00    +0.000 C 
ATOM      6  C   UNL     1       2.619   8.112  18.178  0.00  0.00    +0.000 A 
ATOM      7  N   UNL     1       3.491   7.535  17.316  0.00  0.00    +0.000 NA
ATOM      8  C   UNL     1       4.067   6.331  17.591  0.00  0.00    +0.000 A 
ATOM      9  N   UNL     1       3.751   5.689  18.747  0.00  0.00    +0.000 NA
ATOM     10  C   UNL     1       2.897   6.232  19.643  0.00  0.00    +0.000 A 
ATOM     11  C   UNL     1       2.319   7.479  19.389  0.00  0.00    +0.000 A 
ATOM     12  C   UNL     1       1.434   8.096  20.437  0.00  0.00    +0.000 C 
ENDROOT
BRANCH   1  17
ATOM     13  C   UNL     1      -2.339  12.578  20.184  0.00  0.00    +0.000 A 
ATOM     14  C   UNL     1      -2.018  13.733  20.918  0.00  0.00    +0.000 A 
ATOM     15  C   UNL     1      -0.851  13.775  21.677  0.00  0.00    +0.000 A 
ATOM     16  C   UNL     1       0.010  12.674  21.710  0.00  0.00    +0.000 A 
ATOM     17  C   UNL     1      -0.276  11.513  20.960  0.00  0.00    +0.000 A 
ATOM     18  C   UNL     1      -1.468  11.484  20.215  0.00  0.00    +0.000 A 
BRANCH  13  20
ATOM     19  C   UNL     1      -3.680  11.620  18.386  0.00  0.00    +0.000 C 
ATOM     20  O   UNL     1      -3.482  12.459  19.461  0.00  0.00    +0.000 OA
ENDBRANCH  13  20
ENDBRANCH   1  17
BRANCH   8  21
ATOM     21  C   UNL     1       5.062   5.705  16.665  0.00  0.00    +0.000 C 
ATOM     22  C   UNL     1       4.746   4.256  16.339  0.00  0.00    +0.000 C 
ATOM     23  C   UNL     1       6.038   3.883  15.658  0.00  0.00    +0.000 C 
ATOM     24  C   UNL     1       7.063   4.511  16.603  0.00  0.00    +0.000 C 
ATOM     25  N   UNL     1       6.417   5.685  17.216  0.00  0.00    +0.000 NA
ATOM     26  H   UNL     1       6.922   6.572  16.978  0.00  0.00    +0.000 HD
ENDBRANCH   8  21
TORSDOF 3
ENDMDL
