MODEL 1
REMARK VINA RESULT:      -7.9      0.000      0.000
REMARK  Name = 
REMARK  8 active torsions:
REMARK  status: ('A' for Active; 'I' for Inactive)
REMARK    1  A    between atoms: C_1  and  C_2
REMARK    2  A    between atoms: C_7  and  C_8
REMARK    3  A    between atoms: C_8  and  N_9
REMARK    4  A    between atoms: C_15  and  C_16
REMARK    5  A    between atoms: C_16  and  C_17
REMARK    6  A    between atoms: N_19  and  C_20
REMARK    7  A    between atoms: C_20  and  C_21
REMARK    8  A    between atoms: C_21  and  N_22
REMARK                            x       y       z     vdW  Elec       q    Type
REMARK                         _______ _______ _______ _____ _____    ______ ____
ROOT
ATOM      1  N   UNL     1       3.288   4.025  17.911  0.00  0.00    +0.000 NA
ATOM      2  C   UNL     1       2.669   2.701  17.765  0.00  0.00    +0.000 C 
ATOM      3  C   UNL     1       2.003   2.122  19.012  0.00  0.00    +0.000 C 
ATOM      4  N   UNL     1       1.300   3.096  19.802  0.00  0.00    +0.000 N 
ATOM      5  C   UNL     1       1.696   4.402  19.863  0.00  0.00    +0.000 C 
ATOM      6  O   UNL     1       1.293   5.087  20.810  0.00  0.00    +0.000 OA
ATOM      7  C   UNL     1       2.481   5.004  18.677  0.00  0.00    +0.000 C 
ATOM      8  H   UNL     1       0.793   2.775  20.618  0.00  0.00    +0.000 HD
ENDROOT
BRANCH   1   9
ATOM      9  C   UNL     1       4.728   4.035  18.147  0.00  0.00    +0.000 C 
BRANCH   9  16
ATOM     10  C   UNL     1       7.693   4.804  18.167  0.00  0.00    +0.000 C 
ATOM     11  C   UNL     1       6.869   4.727  16.911  0.00  0.00    +0.000 A 
ATOM     12  C   UNL     1       7.517   4.931  15.681  0.00  0.00    +0.000 A 
ATOM     13  C   UNL     1       6.846   4.759  14.467  0.00  0.00    +0.000 A 
ATOM     14  C   UNL     1       5.509   4.383  14.454  0.00  0.00    +0.000 A 
ATOM     15  C   UNL     1       4.851   4.189  15.657  0.00  0.00    +0.000 A 
ATOM     16  C   UNL     1       5.512   4.360  16.894  0.00  0.00    +0.000 A 
ENDBRANCH   9  16
ENDBRANCH   1   9
BRANCH   7  17
ATOM     17  C   UNL     1       3.153   6.356  19.044  0.00  0.00    +0.000 C 
BRANCH  17  18
ATOM     18  C   UNL     1       2.314   7.601  18.805  0.00  0.00    +0.000 C 
ATOM     19  O   UNL     1       2.220   8.139  17.706  0.00  0.00    +0.000 OA
ATOM     20  N   UNL     1       1.697   8.086  19.920  0.00  0.00    +0.000 N 
ATOM     21  H   UNL     1       1.696   7.510  20.760  0.00  0.00    +0.000 HD
BRANCH  20  22
ATOM     22  C   UNL     1       1.126   9.411  20.005  0.00  0.00    +0.000 C 
BRANCH  22  23
ATOM     23  C   UNL     1      -0.111   9.393  20.906  0.00  0.00    +0.000 C 
BRANCH  23  24
ATOM     24  N   UNL     1      -0.574  10.733  21.234  0.00  0.00    +0.000 N 
ATOM     25  C   UNL     1      -0.936  11.593  20.118  0.00  0.00    +0.000 C 
ATOM     26  C   UNL     1      -0.908  13.065  20.478  0.00  0.00    +0.000 C 
ATOM     27  C   UNL     1      -1.770  13.270  21.708  0.00  0.00    +0.000 C 
ATOM     28  C   UNL     1      -1.205  12.486  22.880  0.00  0.00    +0.000 C 
ATOM     29  C   UNL     1      -0.757  11.070  22.564  0.00  0.00    +0.000 C 
ATOM     30  O   UNL     1      -0.502  10.293  23.484  0.00  0.00    +0.000 OA
ENDBRANCH  23  24
ENDBRANCH  22  23
ENDBRANCH  20  22
ENDBRANCH  17  18
ENDBRANCH   7  17
TORSDOF 7
ENDMDL
MODEL 2
REMARK VINA RESULT:      -7.9      1.025      1.359
REMARK  Name = 
REMARK  8 active torsions:
REMARK  status: ('A' for Active; 'I' for Inactive)
REMARK    1  A    between atoms: C_1  and  C_2
REMARK    2  A    between atoms: C_7  and  C_8
REMARK    3  A    between atoms: C_8  and  N_9
REMARK    4  A    between atoms: C_15  and  C_16
REMARK    5  A    between atoms: C_16  and  C_17
REMARK    6  A    between atoms: N_19  and  C_20
REMARK    7  A    between atoms: C_20  and  C_21
REMARK    8  A    between atoms: C_21  and  N_22
REMARK                            x       y       z     vdW  Elec       q    Type
REMARK                         _______ _______ _______ _____ _____    ______ ____
ROOT
ATOM      1  N   UNL     1       3.014   4.023  18.185  0.00  0.00    +0.000 NA
ATOM      2  C   UNL     1       2.264   2.761  18.206  0.00  0.00    +0.000 C 
ATOM      3  C   UNL     1       1.513   2.439  19.497  0.00  0.00    +0.000 C 
ATOM      4  N   UNL     1       0.896   3.584  20.112  0.00  0.00    +0.000 N 
ATOM      5  C   UNL     1       1.424   4.839  20.000  0.00  0.00    +0.000 C 
ATOM      6  O   UNL     1       1.072   5.692  20.823  0.00  0.00    +0.000 OA
ATOM      7  C   UNL     1       2.296   5.179  18.771  0.00  0.00    +0.000 C 
ATOM      8  H   UNL     1       0.340   3.438  20.945  0.00  0.00    +0.000 HD
ENDROOT
BRANCH   1   9
ATOM      9  C   UNL     1       4.441   3.925  18.471  0.00  0.00    +0.000 C 
BRANCH   9  16
ATOM     10  C   UNL     1       7.017   5.554  18.782  0.00  0.00    +0.000 C 
ATOM     11  C   UNL     1       6.466   5.127  17.448  0.00  0.00    +0.000 A 
ATOM     12  C   UNL     1       7.221   5.414  16.299  0.00  0.00    +0.000 A 
ATOM     13  C   UNL     1       6.835   4.946  15.040  0.00  0.00    +0.000 A 
ATOM     14  C   UNL     1       5.683   4.183  14.899  0.00  0.00    +0.000 A 
ATOM     15  C   UNL     1       4.921   3.901  16.020  0.00  0.00    +0.000 A 
ATOM     16  C   UNL     1       5.293   4.366  17.301  0.00  0.00    +0.000 A 
ENDBRANCH   9  16
ENDBRANCH   1   9
BRANCH   7  17
ATOM     17  C   UNL     1       3.095   6.497  18.966  0.00  0.00    +0.000 C 
BRANCH  17  18
ATOM     18  C   UNL     1       2.482   7.744  18.349  0.00  0.00    +0.000 C 
ATOM     19  O   UNL     1       2.906   8.253  17.315  0.00  0.00    +0.000 OA
ATOM     20  N   UNL     1       1.439   8.266  19.055  0.00  0.00    +0.000 N 
ATOM     21  H   UNL     1       1.046   7.714  19.815  0.00  0.00    +0.000 HD
BRANCH  20  22
ATOM     22  C   UNL     1       0.920   9.598  18.846  0.00  0.00    +0.000 C 
BRANCH  22  23
ATOM     23  C   UNL     1       1.472  10.550  19.909  0.00  0.00    +0.000 C 
BRANCH  23  24
ATOM     24  N   UNL     1       0.605  10.640  21.074  0.00  0.00    +0.000 N 
ATOM     25  C   UNL     1      -0.399  11.694  21.063  0.00  0.00    +0.000 C 
ATOM     26  C   UNL     1      -0.893  12.048  22.451  0.00  0.00    +0.000 C 
ATOM     27  C   UNL     1      -1.354  10.775  23.133  0.00  0.00    +0.000 C 
ATOM     28  C   UNL     1      -0.192   9.808  23.277  0.00  0.00    +0.000 C 
ATOM     29  C   UNL     1       0.699   9.669  22.055  0.00  0.00    +0.000 C 
ATOM     30  O   UNL     1       1.518   8.751  22.000  0.00  0.00    +0.000 OA
ENDBRANCH  23  24
ENDBRANCH  22  23
ENDBRANCH  20  22
ENDBRANCH  17  18
ENDBRANCH   7  17
TORSDOF 7
ENDMDL
MODEL 3
REMARK VINA RESULT:      -7.9      1.874      4.363
REMARK  Name = 
REMARK  8 active torsions:
REMARK  status: ('A' for Active; 'I' for Inactive)
REMARK    1  A    between atoms: C_1  and  C_2
REMARK    2  A    between atoms: C_7  and  C_8
REMARK    3  A    between atoms: C_8  and  N_9
REMARK    4  A    between atoms: C_15  and  C_16
REMARK    5  A    between atoms: C_16  and  C_17
REMARK    6  A    between atoms: N_19  and  C_20
REMARK    7  A    between atoms: C_20  and  C_21
REMARK    8  A    between atoms: C_21  and  N_22
REMARK                            x       y       z     vdW  Elec       q    Type
REMARK                         _______ _______ _______ _____ _____    ______ ____
ROOT
ATOM      1  N   UNL     1       4.958   4.745  18.334  0.00  0.00    +0.000 NA
ATOM      2  C   UNL     1       6.387   4.410  18.288  0.00  0.00    +0.000 C 
ATOM      3  C   UNL     1       7.116   4.728  16.984  0.00  0.00    +0.000 C 
ATOM      4  N   UNL     1       6.709   5.965  16.375  0.00  0.00    +0.000 N 
ATOM      5  C   UNL     1       5.440   6.455  16.509  0.00  0.00    +0.000 C 
ATOM      6  O   UNL     1       5.055   7.299  15.692  0.00  0.00    +0.000 OA
ATOM      7  C   UNL     1       4.612   6.064  17.753  0.00  0.00    +0.000 C 
ATOM      8  H   UNL     1       7.184   6.265  15.534  0.00  0.00    +0.000 HD
ENDROOT
BRANCH   1   9
ATOM      9  C   UNL     1       4.035   3.648  18.064  0.00  0.00    +0.000 C 
BRANCH   9  16
ATOM     10  C   UNL     1       0.995   3.858  17.738  0.00  0.00    +0.000 C 
ATOM     11  C   UNL     1       1.665   3.540  19.047  0.00  0.00    +0.000 A 
ATOM     12  C   UNL     1       0.850   3.236  20.150  0.00  0.00    +0.000 A 
ATOM     13  C   UNL     1       1.397   2.816  21.366  0.00  0.00    +0.000 A 
ATOM     14  C   UNL     1       2.773   2.692  21.509  0.00  0.00    +0.000 A 
ATOM     15  C   UNL     1       3.592   2.999  20.435  0.00  0.00    +0.000 A 
ATOM     16  C   UNL     1       3.058   3.427  19.199  0.00  0.00    +0.000 A 
ENDBRANCH   9  16
ENDBRANCH   1   9
BRANCH   7  17
ATOM     17  C   UNL     1       3.105   6.400  17.583  0.00  0.00    +0.000 C 
BRANCH  17  18
ATOM     18  C   UNL     1       2.601   7.604  18.364  0.00  0.00    +0.000 C 
ATOM     19  O   UNL     1       2.603   8.743  17.907  0.00  0.00    +0.000 OA
ATOM     20  N   UNL     1       2.170   7.315  19.626  0.00  0.00    +0.000 N 
ATOM     21  H   UNL     1       2.056   6.337  19.884  0.00  0.00    +0.000 HD
BRANCH  20  22
ATOM     22  C   UNL     1       1.957   8.316  20.646  0.00  0.00    +0.000 C 
BRANCH  22  23
ATOM     23  C   UNL     1       0.510   8.263  21.139  0.00  0.00    +0.000 C 
BRANCH  23  24
ATOM     24  N   UNL     1      -0.090   9.586  21.235  0.00  0.00    +0.000 N 
ATOM     25  C   UNL     1      -0.672  10.130  20.017  0.00  0.00    +0.000 C 
ATOM     26  C   UNL     1      -0.802  11.639  20.053  0.00  0.00    +0.000 C 
ATOM     27  C   UNL     1      -1.554  12.024  21.312  0.00  0.00    +0.000 C 
ATOM     28  C   UNL     1      -0.775  11.586  22.541  0.00  0.00    +0.000 C 
ATOM     29  C   UNL     1      -0.179  10.192  22.476  0.00  0.00    +0.000 C 
ATOM     30  O   UNL     1       0.268   9.672  23.499  0.00  0.00    +0.000 OA
ENDBRANCH  23  24
ENDBRANCH  22  23
ENDBRANCH  20  22
ENDBRANCH  17  18
ENDBRANCH   7  17
TORSDOF 7
ENDMDL
MODEL 4
REMARK VINA RESULT:      -7.7      1.872      2.251
REMARK  Name = 
REMARK  8 active torsions:
REMARK  status: ('A' for Active; 'I' for Inactive)
REMARK    1  A    between atoms: C_1  and  C_2
REMARK    2  A    between atoms: C_7  and  C_8
REMARK    3  A    between atoms: C_8  and  N_9
REMARK    4  A    between atoms: C_15  and  C_16
REMARK    5  A    between atoms: C_16  and  C_17
REMARK    6  A    between atoms: N_19  and  C_20
REMARK    7  A    between atoms: C_20  and  C_21
REMARK    8  A    between atoms: C_21  and  N_22
REMARK                            x       y       z     vdW  Elec       q    Type
REMARK                         _______ _______ _______ _____ _____    ______ ____
ROOT
ATOM      1  N   UNL     1       3.988   4.031  18.438  0.00  0.00    +0.000 NA
ATOM      2  C   UNL     1       3.995   2.910  17.489  0.00  0.00    +0.000 C 
ATOM      3  C   UNL     1       3.459   1.577  18.010  0.00  0.00    +0.000 C 
ATOM      4  N   UNL     1       2.313   1.707  18.870  0.00  0.00    +0.000 N 
ATOM      5  C   UNL     1       2.124   2.802  19.664  0.00  0.00    +0.000 C 
ATOM      6  O   UNL     1       1.346   2.699  20.620  0.00  0.00    +0.000 OA
ATOM      7  C   UNL     1       2.751   4.150  19.245  0.00  0.00    +0.000 C 
ATOM      8  H   UNL     1       1.874   0.862  19.213  0.00  0.00    +0.000 HD
ENDROOT
BRANCH   1   9
ATOM      9  C   UNL     1       5.247   4.295  19.125  0.00  0.00    +0.000 C 
BRANCH   9  16
ATOM     10  C   UNL     1       8.037   5.169  20.042  0.00  0.00    +0.000 C 
ATOM     11  C   UNL     1       7.254   5.891  18.978  0.00  0.00    +0.000 A 
ATOM     12  C   UNL     1       7.873   6.962  18.314  0.00  0.00    +0.000 A 
ATOM     13  C   UNL     1       7.256   7.604  17.236  0.00  0.00    +0.000 A 
ATOM     14  C   UNL     1       6.004   7.192  16.799  0.00  0.00    +0.000 A 
ATOM     15  C   UNL     1       5.374   6.145  17.451  0.00  0.00    +0.000 A 
ATOM     16  C   UNL     1       5.980   5.485  18.543  0.00  0.00    +0.000 A 
ENDBRANCH   9  16
ENDBRANCH   1   9
BRANCH   7  17
ATOM     17  C   UNL     1       2.748   5.184  20.405  0.00  0.00    +0.000 C 
BRANCH  17  18
ATOM     18  C   UNL     1       2.221   6.568  20.061  0.00  0.00    +0.000 C 
ATOM     19  O   UNL     1       2.384   7.089  18.961  0.00  0.00    +0.000 OA
ATOM     20  N   UNL     1       1.574   7.194  21.085  0.00  0.00    +0.000 N 
ATOM     21  H   UNL     1       1.345   6.649  21.915  0.00  0.00    +0.000 HD
BRANCH  20  22
ATOM     22  C   UNL     1       1.279   8.608  21.099  0.00  0.00    +0.000 C 
BRANCH  22  23
ATOM     23  C   UNL     1      -0.231   8.829  21.203  0.00  0.00    +0.000 C 
BRANCH  23  24
ATOM     24  N   UNL     1      -0.568  10.212  21.505  0.00  0.00    +0.000 N 
ATOM     25  C   UNL     1      -0.673  10.568  22.912  0.00  0.00    +0.000 C 
ATOM     26  C   UNL     1      -1.495  11.820  23.140  0.00  0.00    +0.000 C 
ATOM     27  C   UNL     1      -0.930  12.928  22.273  0.00  0.00    +0.000 C 
ATOM     28  C   UNL     1      -1.040  12.550  20.806  0.00  0.00    +0.000 C 
ATOM     29  C   UNL     1      -0.651  11.123  20.466  0.00  0.00    +0.000 C 
ATOM     30  O   UNL     1      -0.491  10.799  19.289  0.00  0.00    +0.000 OA
ENDBRANCH  23  24
ENDBRANCH  22  23
ENDBRANCH  20  22
ENDBRANCH  17  18
ENDBRANCH   7  17
TORSDOF 7
ENDMDL
MODEL 5
REMARK VINA RESULT:      -7.7      2.091      4.529
REMARK  Name = 
REMARK  8 active torsions:
REMARK  status: ('A' for Active; 'I' for Inactive)
REMARK    1  A    between atoms: C_1  and  C_2
REMARK    2  A    between atoms: C_7  and  C_8
REMARK    3  A    between atoms: C_8  and  N_9
REMARK    4  A    between atoms: C_15  and  C_16
REMARK    5  A    between atoms: C_16  and  C_17
REMARK    6  A    between atoms: N_19  and  C_20
REMARK    7  A    between atoms: C_20  and  C_21
REMARK    8  A    between atoms: C_21  and  N_22
REMARK                            x       y       z     vdW  Elec       q    Type
REMARK                         _______ _______ _______ _____ _____    ______ ____
ROOT
ATOM      1  N   UNL     1       5.140   4.869  18.654  0.00  0.00    +0.000 NA
ATOM      2  C   UNL     1       6.518   4.425  18.900  0.00  0.00    +0.000 C 
ATOM      3  C   UNL     1       7.519   4.665  17.771  0.00  0.00    +0.000 C 
ATOM      4  N   UNL     1       7.341   5.920  17.091  0.00  0.00    +0.000 N 
ATOM      5  C   UNL     1       6.114   6.507  16.965  0.00  0.00    +0.000 C 
ATOM      6  O   UNL     1       5.969   7.365  16.086  0.00  0.00    +0.000 OA
ATOM      7  C   UNL     1       5.023   6.201  18.015  0.00  0.00    +0.000 C 
ATOM      8  H   UNL     1       7.999   6.168  16.363  0.00  0.00    +0.000 HD
ENDROOT
BRANCH   1   9
ATOM      9  C   UNL     1       4.207   3.842  18.203  0.00  0.00    +0.000 C 
BRANCH   9  16
ATOM     10  C   UNL     1       1.208   4.086  17.628  0.00  0.00    +0.000 C 
ATOM     11  C   UNL     1       1.761   3.676  18.967  0.00  0.00    +0.000 A 
ATOM     12  C   UNL     1       0.853   3.302  19.971  0.00  0.00    +0.000 A 
ATOM     13  C   UNL     1       1.293   2.797  21.198  0.00  0.00    +0.000 A 
ATOM     14  C   UNL     1       2.651   2.658  21.451  0.00  0.00    +0.000 A 
ATOM     15  C   UNL     1       3.561   3.034  20.477  0.00  0.00    +0.000 A 
ATOM     16  C   UNL     1       3.136   3.547  19.231  0.00  0.00    +0.000 A 
ENDBRANCH   9  16
ENDBRANCH   1   9
BRANCH   7  17
ATOM     17  C   UNL     1       3.613   6.649  17.543  0.00  0.00    +0.000 C 
BRANCH  17  18
ATOM     18  C   UNL     1       2.758   7.358  18.582  0.00  0.00    +0.000 C 
ATOM     19  O   UNL     1       2.605   6.930  19.722  0.00  0.00    +0.000 OA
ATOM     20  N   UNL     1       2.153   8.494  18.133  0.00  0.00    +0.000 N 
ATOM     21  H   UNL     1       2.440   8.869  17.230  0.00  0.00    +0.000 HD
BRANCH  20  22
ATOM     22  C   UNL     1       1.061   9.144  18.820  0.00  0.00    +0.000 C 
BRANCH  22  23
ATOM     23  C   UNL     1       1.229  10.663  18.755  0.00  0.00    +0.000 C 
BRANCH  23  24
ATOM     24  N   UNL     1       0.178  11.366  19.476  0.00  0.00    +0.000 N 
ATOM     25  C   UNL     1      -1.158  11.313  18.902  0.00  0.00    +0.000 C 
ATOM     26  C   UNL     1      -2.050  12.438  19.387  0.00  0.00    +0.000 C 
ATOM     27  C   UNL     1      -2.038  12.437  20.903  0.00  0.00    +0.000 C 
ATOM     28  C   UNL     1      -0.631  12.694  21.415  0.00  0.00    +0.000 C 
ATOM     29  C   UNL     1       0.473  11.935  20.703  0.00  0.00    +0.000 C 
ATOM     30  O   UNL     1       1.604  11.905  21.190  0.00  0.00    +0.000 OA
ENDBRANCH  23  24
ENDBRANCH  22  23
ENDBRANCH  20  22
ENDBRANCH  17  18
ENDBRANCH   7  17
TORSDOF 7
ENDMDL
MODEL 6
REMARK VINA RESULT:      -7.7      1.286      1.680
REMARK  Name = 
REMARK  8 active torsions:
REMARK  status: ('A' for Active; 'I' for Inactive)
REMARK    1  A    between atoms: C_1  and  C_2
REMARK    2  A    between atoms: C_7  and  C_8
REMARK    3  A    between atoms: C_8  and  N_9
REMARK    4  A    between atoms: C_15  and  C_16
REMARK    5  A    between atoms: C_16  and  C_17
REMARK    6  A    between atoms: N_19  and  C_20
REMARK    7  A    between atoms: C_20  and  C_21
REMARK    8  A    between atoms: C_21  and  N_22
REMARK                            x       y       z     vdW  Elec       q    Type
REMARK                         _______ _______ _______ _____ _____    ______ ____
ROOT
ATOM      1  N   UNL     1       3.107   4.036  17.887  0.00  0.00    +0.000 NA
ATOM      2  C   UNL     1       2.387   2.813  17.509  0.00  0.00    +0.000 C 
ATOM      3  C   UNL     1       1.608   2.114  18.622  0.00  0.00    +0.000 C 
ATOM      4  N   UNL     1       0.947   3.016  19.526  0.00  0.00    +0.000 N 
ATOM      5  C   UNL     1       1.447   4.255  19.807  0.00  0.00    +0.000 C 
ATOM      6  O   UNL     1       1.053   4.822  20.832  0.00  0.00    +0.000 OA
ATOM      7  C   UNL     1       2.345   4.957  18.763  0.00  0.00    +0.000 C 
ATOM      8  H   UNL     1       0.371   2.623  20.259  0.00  0.00    +0.000 HD
ENDROOT
BRANCH   1   9
ATOM      9  C   UNL     1       4.527   3.878  18.180  0.00  0.00    +0.000 C 
BRANCH   9  16
ATOM     10  C   UNL     1       7.169   5.381  18.567  0.00  0.00    +0.000 C 
ATOM     11  C   UNL     1       6.608   5.033  17.215  0.00  0.00    +0.000 A 
ATOM     12  C   UNL     1       7.380   5.334  16.081  0.00  0.00    +0.000 A 
ATOM     13  C   UNL     1       6.981   4.935  14.802  0.00  0.00    +0.000 A 
ATOM     14  C   UNL     1       5.798   4.229  14.626  0.00  0.00    +0.000 A 
ATOM     15  C   UNL     1       5.019   3.934  15.731  0.00  0.00    +0.000 A 
ATOM     16  C   UNL     1       5.404   4.329  17.032  0.00  0.00    +0.000 A 
ENDBRANCH   9  16
ENDBRANCH   1   9
BRANCH   7  17
ATOM     17  C   UNL     1       3.107   6.169  19.365  0.00  0.00    +0.000 C 
BRANCH  17  18
ATOM     18  C   UNL     1       2.348   7.487  19.388  0.00  0.00    +0.000 C 
ATOM     19  O   UNL     1       2.282   8.234  18.417  0.00  0.00    +0.000 OA
ATOM     20  N   UNL     1       1.770   7.782  20.588  0.00  0.00    +0.000 N 
ATOM     21  H   UNL     1       1.738   7.054  21.299  0.00  0.00    +0.000 HD
BRANCH  20  22
ATOM     22  C   UNL     1       1.286   9.097  20.939  0.00  0.00    +0.000 C 
BRANCH  22  23
ATOM     23  C   UNL     1      -0.203   9.214  20.607  0.00  0.00    +0.000 C 
BRANCH  23  24
ATOM     24  N   UNL     1      -0.568  10.555  20.173  0.00  0.00    +0.000 N 
ATOM     25  C   UNL     1      -0.699  11.566  21.211  0.00  0.00    +0.000 C 
ATOM     26  C   UNL     1      -1.547  12.744  20.777  0.00  0.00    +0.000 C 
ATOM     27  C   UNL     1      -0.989  13.280  19.473  0.00  0.00    +0.000 C 
ATOM     28  C   UNL     1      -1.071  12.215  18.393  0.00  0.00    +0.000 C 
ATOM     29  C   UNL     1      -0.652  10.819  18.817  0.00  0.00    +0.000 C 
ATOM     30  O   UNL     1      -0.470   9.952  17.962  0.00  0.00    +0.000 OA
ENDBRANCH  23  24
ENDBRANCH  22  23
ENDBRANCH  20  22
ENDBRANCH  17  18
ENDBRANCH   7  17
TORSDOF 7
ENDMDL
MODEL 7
REMARK VINA RESULT:      -7.7      2.239      4.772
REMARK  Name = 
REMARK  8 active torsions:
REMARK  status: ('A' for Active; 'I' for Inactive)
REMARK    1  A    between atoms: C_1  and  C_2
REMARK    2  A    between atoms: C_7  and  C_8
REMARK    3  A    between atoms: C_8  and  N_9
REMARK    4  A    between atoms: C_15  and  C_16
REMARK    5  A    between atoms: C_16  and  C_17
REMARK    6  A    between atoms: N_19  and  C_20
REMARK    7  A    between atoms: C_20  and  C_21
REMARK    8  A    between atoms: C_21  and  N_22
REMARK                            x       y       z     vdW  Elec       q    Type
REMARK                         _______ _______ _______ _____ _____    ______ ____
ROOT
ATOM      1  N   UNL     1       5.076   4.666  18.345  0.00  0.00    +0.000 NA
ATOM      2  C   UNL     1       6.503   4.317  18.328  0.00  0.00    +0.000 C 
ATOM      3  C   UNL     1       7.262   4.630  17.040  0.00  0.00    +0.000 C 
ATOM      4  N   UNL     1       6.880   5.874  16.427  0.00  0.00    +0.000 N 
ATOM      5  C   UNL     1       5.615   6.377  16.536  0.00  0.00    +0.000 C 
ATOM      6  O   UNL     1       5.255   7.227  15.714  0.00  0.00    +0.000 OA
ATOM      7  C   UNL     1       4.757   5.990  17.761  0.00  0.00    +0.000 C 
ATOM      8  H   UNL     1       7.376   6.171  15.596  0.00  0.00    +0.000 HD
ENDROOT
BRANCH   1   9
ATOM      9  C   UNL     1       4.148   3.580  18.053  0.00  0.00    +0.000 C 
BRANCH   9  16
ATOM     10  C   UNL     1       1.119   3.827  17.660  0.00  0.00    +0.000 C 
ATOM     11  C   UNL     1       1.755   3.499  18.983  0.00  0.00    +0.000 A 
ATOM     12  C   UNL     1       0.912   3.203  20.067  0.00  0.00    +0.000 A 
ATOM     13  C   UNL     1       1.427   2.774  21.293  0.00  0.00    +0.000 A 
ATOM     14  C   UNL     1       2.798   2.633  21.467  0.00  0.00    +0.000 A 
ATOM     15  C   UNL     1       3.644   2.932  20.412  0.00  0.00    +0.000 A 
ATOM     16  C   UNL     1       3.144   3.368  19.166  0.00  0.00    +0.000 A 
ENDBRANCH   9  16
ENDBRANCH   1   9
BRANCH   7  17
ATOM     17  C   UNL     1       3.257   6.344  17.562  0.00  0.00    +0.000 C 
BRANCH  17  18
ATOM     18  C   UNL     1       2.621   7.184  18.659  0.00  0.00    +0.000 C 
ATOM     19  O   UNL     1       2.393   6.748  19.783  0.00  0.00    +0.000 OA
ATOM     20  N   UNL     1       2.300   8.454  18.279  0.00  0.00    +0.000 N 
ATOM     21  H   UNL     1       2.651   8.793  17.386  0.00  0.00    +0.000 HD
BRANCH  20  22
ATOM     22  C   UNL     1       1.412   9.312  19.030  0.00  0.00    +0.000 C 
BRANCH  22  23
ATOM     23  C   UNL     1       0.806  10.373  18.110  0.00  0.00    +0.000 C 
BRANCH  23  24
ATOM     24  N   UNL     1      -0.417  10.944  18.657  0.00  0.00    +0.000 N 
ATOM     25  C   UNL     1      -0.270  11.837  19.796  0.00  0.00    +0.000 C 
ATOM     26  C   UNL     1      -1.546  11.973  20.602  0.00  0.00    +0.000 C 
ATOM     27  C   UNL     1      -2.666  12.368  19.660  0.00  0.00    +0.000 C 
ATOM     28  C   UNL     1      -2.879  11.284  18.617  0.00  0.00    +0.000 C 
ATOM     29  C   UNL     1      -1.615  10.708  18.005  0.00  0.00    +0.000 C 
ATOM     30  O   UNL     1      -1.693   9.998  17.002  0.00  0.00    +0.000 OA
ENDBRANCH  23  24
ENDBRANCH  22  23
ENDBRANCH  20  22
ENDBRANCH  17  18
ENDBRANCH   7  17
TORSDOF 7
ENDMDL
MODEL 8
REMARK VINA RESULT:      -7.6      2.324      4.781
REMARK  Name = 
REMARK  8 active torsions:
REMARK  status: ('A' for Active; 'I' for Inactive)
REMARK    1  A    between atoms: C_1  and  C_2
REMARK    2  A    between atoms: C_7  and  C_8
REMARK    3  A    between atoms: C_8  and  N_9
REMARK    4  A    between atoms: C_15  and  C_16
REMARK    5  A    between atoms: C_16  and  C_17
REMARK    6  A    between atoms: N_19  and  C_20
REMARK    7  A    between atoms: C_20  and  C_21
REMARK    8  A    between atoms: C_21  and  N_22
REMARK                            x       y       z     vdW  Elec       q    Type
REMARK                         _______ _______ _______ _____ _____    ______ ____
ROOT
ATOM      1  N   UNL     1       5.068   4.743  18.306  0.00  0.00    +0.000 NA
ATOM      2  C   UNL     1       6.489   4.373  18.338  0.00  0.00    +0.000 C 
ATOM      3  C   UNL     1       7.287   4.636  17.062  0.00  0.00    +0.000 C 
ATOM      4  N   UNL     1       6.940   5.865  16.401  0.00  0.00    +0.000 N 
ATOM      5  C   UNL     1       5.680   6.388  16.460  0.00  0.00    +0.000 C 
ATOM      6  O   UNL     1       5.354   7.218  15.603  0.00  0.00    +0.000 OA
ATOM      7  C   UNL     1       4.784   6.053  17.673  0.00  0.00    +0.000 C 
ATOM      8  H   UNL     1       7.462   6.129  15.575  0.00  0.00    +0.000 HD
ENDROOT
BRANCH   1   9
ATOM      9  C   UNL     1       4.131   3.662  18.022  0.00  0.00    +0.000 C 
BRANCH   9  16
ATOM     10  C   UNL     1       1.104   3.938  17.639  0.00  0.00    +0.000 C 
ATOM     11  C   UNL     1       1.741   3.606  18.961  0.00  0.00    +0.000 A 
ATOM     12  C   UNL     1       0.899   3.321  20.048  0.00  0.00    +0.000 A 
ATOM     13  C   UNL     1       1.414   2.889  21.274  0.00  0.00    +0.000 A 
ATOM     14  C   UNL     1       2.784   2.735  21.442  0.00  0.00    +0.000 A 
ATOM     15  C   UNL     1       3.630   3.023  20.384  0.00  0.00    +0.000 A 
ATOM     16  C   UNL     1       3.129   3.462  19.139  0.00  0.00    +0.000 A 
ENDBRANCH   9  16
ENDBRANCH   1   9
BRANCH   7  17
ATOM     17  C   UNL     1       3.295   6.421  17.423  0.00  0.00    +0.000 C 
BRANCH  17  18
ATOM     18  C   UNL     1       2.647   7.316  18.467  0.00  0.00    +0.000 C 
ATOM     19  O   UNL     1       2.489   6.972  19.634  0.00  0.00    +0.000 OA
ATOM     20  N   UNL     1       2.232   8.525  17.991  0.00  0.00    +0.000 N 
ATOM     21  H   UNL     1       2.527   8.803  17.057  0.00  0.00    +0.000 HD
BRANCH  20  22
ATOM     22  C   UNL     1       1.319   9.392  18.700  0.00  0.00    +0.000 C 
BRANCH  22  23
ATOM     23  C   UNL     1       1.670  10.856  18.432  0.00  0.00    +0.000 C 
BRANCH  23  24
ATOM     24  N   UNL     1       0.606  11.763  18.837  0.00  0.00    +0.000 N 
ATOM     25  C   UNL     1      -0.528  11.173  19.532  0.00  0.00    +0.000 C 
ATOM     26  C   UNL     1      -1.772  12.035  19.463  0.00  0.00    +0.000 C 
ATOM     27  C   UNL     1      -1.416  13.425  19.952  0.00  0.00    +0.000 C 
ATOM     28  C   UNL     1      -0.362  14.043  19.048  0.00  0.00    +0.000 C 
ATOM     29  C   UNL     1       0.779  13.123  18.651  0.00  0.00    +0.000 C 
ATOM     30  O   UNL     1       1.783  13.595  18.116  0.00  0.00    +0.000 OA
ENDBRANCH  23  24
ENDBRANCH  22  23
ENDBRANCH  20  22
ENDBRANCH  17  18
ENDBRANCH   7  17
TORSDOF 7
ENDMDL
MODEL 9
REMARK VINA RESULT:      -7.6      1.118      1.324
REMARK  Name = 
REMARK  8 active torsions:
REMARK  status: ('A' for Active; 'I' for Inactive)
REMARK    1  A    between atoms: C_1  and  C_2
REMARK    2  A    between atoms: C_7  and  C_8
REMARK    3  A    between atoms: C_8  and  N_9
REMARK    4  A    between atoms: C_15  and  C_16
REMARK    5  A    between atoms: C_16  and  C_17
REMARK    6  A    between atoms: N_19  and  C_20
REMARK    7  A    between atoms: C_20  and  C_21
REMARK    8  A    between atoms: C_21  and  N_22
REMARK                            x       y       z     vdW  Elec       q    Type
REMARK                         _______ _______ _______ _____ _____    ______ ____
ROOT
ATOM      1  N   UNL     1       3.023   3.865  18.422  0.00  0.00    +0.000 NA
ATOM      2  C   UNL     1       2.228   2.632  18.476  0.00  0.00    +0.000 C 
ATOM      3  C   UNL     1       1.463   2.375  19.774  0.00  0.00    +0.000 C 
ATOM      4  N   UNL     1       0.887   3.558  20.354  0.00  0.00    +0.000 N 
ATOM      5  C   UNL     1       1.461   4.790  20.208  0.00  0.00    +0.000 C 
ATOM      6  O   UNL     1       1.139   5.678  21.005  0.00  0.00    +0.000 OA
ATOM      7  C   UNL     1       2.347   5.063  18.972  0.00  0.00    +0.000 C 
ATOM      8  H   UNL     1       0.325   3.457  21.189  0.00  0.00    +0.000 HD
ENDROOT
BRANCH   1   9
ATOM      9  C   UNL     1       4.445   3.723  18.715  0.00  0.00    +0.000 C 
BRANCH   9  16
ATOM     10  C   UNL     1       6.913   5.480  19.172  0.00  0.00    +0.000 C 
ATOM     11  C   UNL     1       6.440   5.061  17.807  0.00  0.00    +0.000 A 
ATOM     12  C   UNL     1       7.223   5.419  16.697  0.00  0.00    +0.000 A 
ATOM     13  C   UNL     1       6.914   4.966  15.411  0.00  0.00    +0.000 A 
ATOM     14  C   UNL     1       5.812   4.146  15.204  0.00  0.00    +0.000 A 
ATOM     15  C   UNL     1       5.023   3.792  16.286  0.00  0.00    +0.000 A 
ATOM     16  C   UNL     1       5.318   4.241  17.592  0.00  0.00    +0.000 A 
ENDBRANCH   9  16
ENDBRANCH   1   9
BRANCH   7  17
ATOM     17  C   UNL     1       3.193   6.356  19.132  0.00  0.00    +0.000 C 
BRANCH  17  18
ATOM     18  C   UNL     1       2.630   7.605  18.475  0.00  0.00    +0.000 C 
ATOM     19  O   UNL     1       2.997   8.000  17.372  0.00  0.00    +0.000 OA
ATOM     20  N   UNL     1       1.702   8.266  19.225  0.00  0.00    +0.000 N 
ATOM     21  H   UNL     1       1.338   7.805  20.057  0.00  0.00    +0.000 HD
BRANCH  20  22
ATOM     22  C   UNL     1       1.277   9.621  18.958  0.00  0.00    +0.000 C 
BRANCH  22  23
ATOM     23  C   UNL     1       0.727  10.259  20.235  0.00  0.00    +0.000 C 
BRANCH  23  24
ATOM     24  N   UNL     1      -0.496  11.012  19.994  0.00  0.00    +0.000 N 
ATOM     25  C   UNL     1      -1.192  10.747  18.744  0.00  0.00    +0.000 C 
ATOM     26  C   UNL     1      -2.116  11.876  18.337  0.00  0.00    +0.000 C 
ATOM     27  C   UNL     1      -3.044  12.177  19.498  0.00  0.00    +0.000 C 
ATOM     28  C   UNL     1      -2.240  12.634  20.703  0.00  0.00    +0.000 C 
ATOM     29  C   UNL     1      -0.984  11.833  20.995  0.00  0.00    +0.000 C 
ATOM     30  O   UNL     1      -0.401  11.984  22.069  0.00  0.00    +0.000 OA
ENDBRANCH  23  24
ENDBRANCH  22  23
ENDBRANCH  20  22
ENDBRANCH  17  18
ENDBRANCH   7  17
TORSDOF 7
ENDMDL
