MODEL 1
REMARK VINA RESULT:      -7.5      0.000      0.000
REMARK  Name = 
REMARK  6 active torsions:
REMARK  status: ('A' for Active; 'I' for Inactive)
REMARK    1  A    between atoms: C_1  and  C_2
REMARK    2  A    between atoms: C_6  and  C_7
REMARK    3  A    between atoms: N_9  and  C_10
REMARK    4  A    between atoms: N_13  and  C_14
REMARK    5  A    between atoms: C_14  and  C_15
REMARK    6  A    between atoms: C_20  and  C_21
REMARK                            x       y       z     vdW  Elec       q    Type
REMARK                         _______ _______ _______ _____ _____    ______ ____
ROOT
ATOM      1  C   UNL     1       7.743   7.299  18.437  0.00  0.00    +0.000 C 
ATOM      2  C   UNL     1       7.606   6.979  16.953  0.00  0.00    +0.000 C 
ATOM      3  C   UNL     1       6.283   6.239  16.778  0.00  0.00    +0.000 C 
ATOM      4  N   UNL     1       6.147   5.030  17.624  0.00  0.00    +0.000 NA
ATOM      5  C   UNL     1       6.572   5.224  19.023  0.00  0.00    +0.000 C 
ATOM      6  C   UNL     1       7.903   5.977  19.174  0.00  0.00    +0.000 C 
ENDROOT
BRANCH   1   9
ATOM      7  C   UNL     1       8.524   9.616  18.299  0.00  0.00    +0.000 C 
ATOM      8  O   UNL     1       7.498   9.942  17.704  0.00  0.00    +0.000 OA
ATOM      9  N   UNL     1       8.740   8.306  18.720  0.00  0.00    +0.000 N 
ATOM     10  H   UNL     1       9.650   8.071  19.102  0.00  0.00    +0.000 HD
BRANCH   7  16
ATOM     11  C   UNL     1       9.219  11.049  21.132  0.00  0.00    +0.000 C 
ATOM     12  C   UNL     1       9.899  11.190  19.815  0.00  0.00    +0.000 A 
ATOM     13  C   UNL     1      11.032  11.999  19.530  0.00  0.00    +0.000 A 
ATOM     14  C   UNL     1      11.326  11.810  18.203  0.00  0.00    +0.000 A 
ATOM     15  O   UNL     1      10.450  10.944  17.638  0.00  0.00    +0.000 OA
ATOM     16  C   UNL     1       9.570  10.558  18.621  0.00  0.00    +0.000 A 
ENDBRANCH   7  16
ENDBRANCH   1   9
BRANCH   4  17
ATOM     17  C   UNL     1       4.737   4.596  17.543  0.00  0.00    +0.000 C 
BRANCH  17  18
ATOM     18  C   UNL     1       3.832   5.032  18.678  0.00  0.00    +0.000 A 
ATOM     19  C   UNL     1       3.259   6.319  18.633  0.00  0.00    +0.000 A 
ATOM     20  C   UNL     1       2.293   6.706  19.561  0.00  0.00    +0.000 A 
ATOM     21  C   UNL     1       1.873   5.809  20.538  0.00  0.00    +0.000 A 
ATOM     22  C   UNL     1       2.470   4.553  20.633  0.00  0.00    +0.000 A 
ATOM     23  C   UNL     1       3.472   4.169  19.726  0.00  0.00    +0.000 A 
BRANCH  23  24
ATOM     24  C   UNL     1       4.115   2.902  19.922  0.00  0.00    +0.000 C 
ATOM     25  N   UNL     1       4.691   1.900  20.063  0.00  0.00    +0.000 NA
ENDBRANCH  23  24
ENDBRANCH  17  18
ENDBRANCH   4  17
TORSDOF 5
ENDMDL
MODEL 2
REMARK VINA RESULT:      -7.2      4.233      5.946
REMARK  Name = 
REMARK  6 active torsions:
REMARK  status: ('A' for Active; 'I' for Inactive)
REMARK    1  A    between atoms: C_1  and  C_2
REMARK    2  A    between atoms: C_6  and  C_7
REMARK    3  A    between atoms: N_9  and  C_10
REMARK    4  A    between atoms: N_13  and  C_14
REMARK    5  A    between atoms: C_14  and  C_15
REMARK    6  A    between atoms: C_20  and  C_21
REMARK                            x       y       z     vdW  Elec       q    Type
REMARK                         _______ _______ _______ _____ _____    ______ ____
ROOT
ATOM      1  C   UNL     1       5.066   5.560  17.017  0.00  0.00    +0.000 C 
ATOM      2  C   UNL     1       5.985   5.693  18.226  0.00  0.00    +0.000 C 
ATOM      3  C   UNL     1       5.221   5.143  19.427  0.00  0.00    +0.000 C 
ATOM      4  N   UNL     1       3.906   5.784  19.656  0.00  0.00    +0.000 NA
ATOM      5  C   UNL     1       3.100   5.957  18.432  0.00  0.00    +0.000 C 
ATOM      6  C   UNL     1       3.891   6.505  17.234  0.00  0.00    +0.000 C 
ENDROOT
BRANCH   1   9
ATOM      7  C   UNL     1       6.192   4.537  15.099  0.00  0.00    +0.000 C 
ATOM      8  O   UNL     1       5.996   3.415  15.564  0.00  0.00    +0.000 OA
ATOM      9  N   UNL     1       5.753   5.686  15.753  0.00  0.00    +0.000 N 
ATOM     10  H   UNL     1       6.042   6.586  15.383  0.00  0.00    +0.000 HD
BRANCH   7  16
ATOM     11  C   UNL     1       5.620   3.216  12.185  0.00  0.00    +0.000 C 
ATOM     12  C   UNL     1       6.657   4.209  12.580  0.00  0.00    +0.000 A 
ATOM     13  C   UNL     1       7.628   4.804  11.729  0.00  0.00    +0.000 A 
ATOM     14  C   UNL     1       8.359   5.664  12.509  0.00  0.00    +0.000 A 
ATOM     15  O   UNL     1       7.916   5.642  13.790  0.00  0.00    +0.000 OA
ATOM     16  C   UNL     1       6.871   4.751  13.843  0.00  0.00    +0.000 A 
ENDBRANCH   7  16
ENDBRANCH   1   9
BRANCH   4  17
ATOM     17  C   UNL     1       3.191   4.972  20.662  0.00  0.00    +0.000 C 
BRANCH  17  18
ATOM     18  C   UNL     1       2.315   3.857  20.129  0.00  0.00    +0.000 A 
ATOM     19  C   UNL     1       0.976   4.146  19.797  0.00  0.00    +0.000 A 
ATOM     20  C   UNL     1       0.178   3.202  19.150  0.00  0.00    +0.000 A 
ATOM     21  C   UNL     1       0.710   1.962  18.811  0.00  0.00    +0.000 A 
ATOM     22  C   UNL     1       2.013   1.638  19.184  0.00  0.00    +0.000 A 
ATOM     23  C   UNL     1       2.812   2.568  19.870  0.00  0.00    +0.000 A 
BRANCH  23  24
ATOM     24  C   UNL     1       4.113   2.154  20.308  0.00  0.00    +0.000 C 
ATOM     25  N   UNL     1       5.166   1.770  20.623  0.00  0.00    +0.000 NA
ENDBRANCH  23  24
ENDBRANCH  17  18
ENDBRANCH   4  17
TORSDOF 5
ENDMDL
MODEL 3
REMARK VINA RESULT:      -7.1      1.007      1.983
REMARK  Name = 
REMARK  6 active torsions:
REMARK  status: ('A' for Active; 'I' for Inactive)
REMARK    1  A    between atoms: C_1  and  C_2
REMARK    2  A    between atoms: C_6  and  C_7
REMARK    3  A    between atoms: N_9  and  C_10
REMARK    4  A    between atoms: N_13  and  C_14
REMARK    5  A    between atoms: C_14  and  C_15
REMARK    6  A    between atoms: C_20  and  C_21
REMARK                            x       y       z     vdW  Elec       q    Type
REMARK                         _______ _______ _______ _____ _____    ______ ____
ROOT
ATOM      1  C   UNL     1       7.585   7.154  18.314  0.00  0.00    +0.000 C 
ATOM      2  C   UNL     1       7.619   6.698  16.860  0.00  0.00    +0.000 C 
ATOM      3  C   UNL     1       6.289   6.003  16.582  0.00  0.00    +0.000 C 
ATOM      4  N   UNL     1       5.980   4.889  17.509  0.00  0.00    +0.000 NA
ATOM      5  C   UNL     1       6.236   5.198  18.928  0.00  0.00    +0.000 C 
ATOM      6  C   UNL     1       7.577   5.904  19.183  0.00  0.00    +0.000 C 
ENDROOT
BRANCH   1   9
ATOM      7  C   UNL     1       8.400   9.462  18.242  0.00  0.00    +0.000 C 
ATOM      8  O   UNL     1       7.386   9.817  17.645  0.00  0.00    +0.000 OA
ATOM      9  N   UNL     1       8.593   8.139  18.633  0.00  0.00    +0.000 N 
ATOM     10  H   UNL     1       9.496   7.882  19.019  0.00  0.00    +0.000 HD
BRANCH   7  16
ATOM     11  C   UNL     1       9.095  10.801  21.121  0.00  0.00    +0.000 C 
ATOM     12  C   UNL     1       9.785  10.973  19.813  0.00  0.00    +0.000 A 
ATOM     13  C   UNL     1      10.930  11.776  19.559  0.00  0.00    +0.000 A 
ATOM     14  C   UNL     1      11.230  11.623  18.228  0.00  0.00    +0.000 A 
ATOM     15  O   UNL     1      10.346  10.785  17.633  0.00  0.00    +0.000 OA
ATOM     16  C   UNL     1       9.456  10.381  18.598  0.00  0.00    +0.000 A 
ENDBRANCH   7  16
ENDBRANCH   1   9
BRANCH   4  17
ATOM     17  C   UNL     1       4.570   4.511  17.284  0.00  0.00    +0.000 C 
BRANCH  17  18
ATOM     18  C   UNL     1       3.714   4.334  18.523  0.00  0.00    +0.000 A 
ATOM     19  C   UNL     1       3.692   3.077  19.158  0.00  0.00    +0.000 A 
ATOM     20  C   UNL     1       3.057   2.906  20.388  0.00  0.00    +0.000 A 
ATOM     21  C   UNL     1       2.448   3.992  21.008  0.00  0.00    +0.000 A 
ATOM     22  C   UNL     1       2.410   5.229  20.367  0.00  0.00    +0.000 A 
ATOM     23  C   UNL     1       3.013   5.400  19.111  0.00  0.00    +0.000 A 
BRANCH  23  24
ATOM     24  C   UNL     1       2.869   6.668  18.455  0.00  0.00    +0.000 C 
ATOM     25  N   UNL     1       2.802   7.683  17.888  0.00  0.00    +0.000 NA
ENDBRANCH  23  24
ENDBRANCH  17  18
ENDBRANCH   4  17
TORSDOF 5
ENDMDL
MODEL 4
REMARK VINA RESULT:      -7.0      4.306      7.699
REMARK  Name = 
REMARK  6 active torsions:
REMARK  status: ('A' for Active; 'I' for Inactive)
REMARK    1  A    between atoms: C_1  and  C_2
REMARK    2  A    between atoms: C_6  and  C_7
REMARK    3  A    between atoms: N_9  and  C_10
REMARK    4  A    between atoms: N_13  and  C_14
REMARK    5  A    between atoms: C_14  and  C_15
REMARK    6  A    between atoms: C_20  and  C_21
REMARK                            x       y       z     vdW  Elec       q    Type
REMARK                         _______ _______ _______ _____ _____    ______ ____
ROOT
ATOM      1  C   UNL     1       1.858   8.095  19.799  0.00  0.00    +0.000 C 
ATOM      2  C   UNL     1       1.591   6.675  20.287  0.00  0.00    +0.000 C 
ATOM      3  C   UNL     1       2.893   5.896  20.121  0.00  0.00    +0.000 C 
ATOM      4  N   UNL     1       3.443   5.919  18.745  0.00  0.00    +0.000 NA
ATOM      5  C   UNL     1       3.431   7.252  18.114  0.00  0.00    +0.000 C 
ATOM      6  C   UNL     1       2.113   8.020  18.300  0.00  0.00    +0.000 C 
ENDROOT
BRANCH   1   9
ATOM      7  C   UNL     1       0.960   9.620  21.491  0.00  0.00    +0.000 C 
ATOM      8  O   UNL     1       1.887   9.347  22.251  0.00  0.00    +0.000 OA
ATOM      9  N   UNL     1       0.860   9.048  20.225  0.00  0.00    +0.000 N 
ATOM     10  H   UNL     1       0.017   9.223  19.687  0.00  0.00    +0.000 HD
BRANCH   7  16
ATOM     11  C   UNL     1      -0.866  11.492  19.560  0.00  0.00    +0.000 C 
ATOM     12  C   UNL     1      -0.880  11.376  21.044  0.00  0.00    +0.000 A 
ATOM     13  C   UNL     1      -1.732  12.078  21.940  0.00  0.00    +0.000 A 
ATOM     14  C   UNL     1      -1.410  11.651  23.204  0.00  0.00    +0.000 A 
ATOM     15  O   UNL     1      -0.411  10.736  23.159  0.00  0.00    +0.000 OA
ATOM     16  C   UNL     1      -0.079  10.561  21.837  0.00  0.00    +0.000 A 
ENDBRANCH   7  16
ENDBRANCH   1   9
BRANCH   4  17
ATOM     17  C   UNL     1       4.812   5.366  18.812  0.00  0.00    +0.000 C 
BRANCH  17  18
ATOM     18  C   UNL     1       5.449   4.982  17.492  0.00  0.00    +0.000 A 
ATOM     19  C   UNL     1       4.757   4.103  16.635  0.00  0.00    +0.000 A 
ATOM     20  C   UNL     1       5.218   3.849  15.343  0.00  0.00    +0.000 A 
ATOM     21  C   UNL     1       6.369   4.482  14.883  0.00  0.00    +0.000 A 
ATOM     22  C   UNL     1       7.097   5.308  15.737  0.00  0.00    +0.000 A 
ATOM     23  C   UNL     1       6.661   5.539  17.052  0.00  0.00    +0.000 A 
BRANCH  23  24
ATOM     24  C   UNL     1       7.493   6.326  17.916  0.00  0.00    +0.000 C 
ATOM     25  N   UNL     1       8.117   6.993  18.638  0.00  0.00    +0.000 NA
ENDBRANCH  23  24
ENDBRANCH  17  18
ENDBRANCH   4  17
TORSDOF 5
ENDMDL
MODEL 5
REMARK VINA RESULT:      -7.0      4.157      7.213
REMARK  Name = 
REMARK  6 active torsions:
REMARK  status: ('A' for Active; 'I' for Inactive)
REMARK    1  A    between atoms: C_1  and  C_2
REMARK    2  A    between atoms: C_6  and  C_7
REMARK    3  A    between atoms: N_9  and  C_10
REMARK    4  A    between atoms: N_13  and  C_14
REMARK    5  A    between atoms: C_14  and  C_15
REMARK    6  A    between atoms: C_20  and  C_21
REMARK                            x       y       z     vdW  Elec       q    Type
REMARK                         _______ _______ _______ _____ _____    ______ ____
ROOT
ATOM      1  C   UNL     1       2.241   7.214  19.818  0.00  0.00    +0.000 C 
ATOM      2  C   UNL     1       1.870   5.838  20.359  0.00  0.00    +0.000 C 
ATOM      3  C   UNL     1       3.049   4.914  20.068  0.00  0.00    +0.000 C 
ATOM      4  N   UNL     1       3.444   4.863  18.641  0.00  0.00    +0.000 NA
ATOM      5  C   UNL     1       3.513   6.184  17.989  0.00  0.00    +0.000 C 
ATOM      6  C   UNL     1       2.319   7.100  18.301  0.00  0.00    +0.000 C 
ENDROOT
BRANCH   1   9
ATOM      7  C   UNL     1       1.272   9.451  19.591  0.00  0.00    +0.000 C 
ATOM      8  O   UNL     1       1.830   9.599  18.505  0.00  0.00    +0.000 OA
ATOM      9  N   UNL     1       1.410   8.279  20.330  0.00  0.00    +0.000 N 
ATOM     10  H   UNL     1       1.022   8.257  21.268  0.00  0.00    +0.000 HD
BRANCH   7  16
ATOM     11  C   UNL     1      -1.624  10.549  18.605  0.00  0.00    +0.000 C 
ATOM     12  C   UNL     1      -0.815  10.959  19.786  0.00  0.00    +0.000 A 
ATOM     13  C   UNL     1      -1.167  11.938  20.755  0.00  0.00    +0.000 A 
ATOM     14  C   UNL     1      -0.142  11.976  21.666  0.00  0.00    +0.000 A 
ATOM     15  O   UNL     1       0.830  11.093  21.328  0.00  0.00    +0.000 OA
ATOM     16  C   UNL     1       0.425  10.464  20.176  0.00  0.00    +0.000 A 
ENDBRANCH   7  16
ENDBRANCH   1   9
BRANCH   4  17
ATOM     17  C   UNL     1       4.740   4.157  18.570  0.00  0.00    +0.000 C 
BRANCH  17  18
ATOM     18  C   UNL     1       5.523   4.314  17.283  0.00  0.00    +0.000 A 
ATOM     19  C   UNL     1       4.932   3.896  16.074  0.00  0.00    +0.000 A 
ATOM     20  C   UNL     1       5.538   4.169  14.848  0.00  0.00    +0.000 A 
ATOM     21  C   UNL     1       6.736   4.877  14.810  0.00  0.00    +0.000 A 
ATOM     22  C   UNL     1       7.363   5.247  15.998  0.00  0.00    +0.000 A 
ATOM     23  C   UNL     1       6.780   4.942  17.239  0.00  0.00    +0.000 A 
BRANCH  23  24
ATOM     24  C   UNL     1       7.509   5.266  18.431  0.00  0.00    +0.000 C 
ATOM     25  N   UNL     1       8.123   5.471  19.398  0.00  0.00    +0.000 NA
ENDBRANCH  23  24
ENDBRANCH  17  18
ENDBRANCH   4  17
TORSDOF 5
ENDMDL
MODEL 6
REMARK VINA RESULT:      -6.9      5.314      7.029
REMARK  Name = 
REMARK  6 active torsions:
REMARK  status: ('A' for Active; 'I' for Inactive)
REMARK    1  A    between atoms: C_1  and  C_2
REMARK    2  A    between atoms: C_6  and  C_7
REMARK    3  A    between atoms: N_9  and  C_10
REMARK    4  A    between atoms: N_13  and  C_14
REMARK    5  A    between atoms: C_14  and  C_15
REMARK    6  A    between atoms: C_20  and  C_21
REMARK                            x       y       z     vdW  Elec       q    Type
REMARK                         _______ _______ _______ _____ _____    ______ ____
ROOT
ATOM      1  C   UNL     1       1.450  10.099  19.128  0.00  0.00    +0.000 C 
ATOM      2  C   UNL     1       0.660   9.307  20.164  0.00  0.00    +0.000 C 
ATOM      3  C   UNL     1       1.515   8.102  20.548  0.00  0.00    +0.000 C 
ATOM      4  N   UNL     1       1.929   7.261  19.400  0.00  0.00    +0.000 NA
ATOM      5  C   UNL     1       2.419   8.027  18.239  0.00  0.00    +0.000 C 
ATOM      6  C   UNL     1       1.546   9.239  17.876  0.00  0.00    +0.000 C 
ENDROOT
BRANCH   1   9
ATOM      7  C   UNL     1       1.214  12.407  19.910  0.00  0.00    +0.000 C 
ATOM      8  O   UNL     1       1.858  12.146  20.924  0.00  0.00    +0.000 OA
ATOM      9  N   UNL     1       0.961  11.444  18.936  0.00  0.00    +0.000 N 
ATOM     10  H   UNL     1       0.330  11.686  18.178  0.00  0.00    +0.000 HD
BRANCH   7  16
ATOM     11  C   UNL     1       2.573  14.891  18.311  0.00  0.00    +0.000 C 
ATOM     12  C   UNL     1       1.237  14.809  18.962  0.00  0.00    +0.000 A 
ATOM     13  C   UNL     1       0.253  15.834  19.005  0.00  0.00    +0.000 A 
ATOM     14  C   UNL     1      -0.821  15.320  19.688  0.00  0.00    +0.000 A 
ATOM     15  O   UNL     1      -0.572  14.047  20.081  0.00  0.00    +0.000 OA
ATOM     16  C   UNL     1       0.689  13.725  19.640  0.00  0.00    +0.000 A 
ENDBRANCH   7  16
ENDBRANCH   1   9
BRANCH   4  17
ATOM     17  C   UNL     1       2.953   6.318  19.895  0.00  0.00    +0.000 C 
BRANCH  17  18
ATOM     18  C   UNL     1       2.585   4.848  19.868  0.00  0.00    +0.000 A 
ATOM     19  C   UNL     1       1.283   4.468  20.246  0.00  0.00    +0.000 A 
ATOM     20  C   UNL     1       0.843   3.154  20.081  0.00  0.00    +0.000 A 
ATOM     21  C   UNL     1       1.693   2.206  19.521  0.00  0.00    +0.000 A 
ATOM     22  C   UNL     1       3.003   2.551  19.196  0.00  0.00    +0.000 A 
ATOM     23  C   UNL     1       3.467   3.861  19.395  0.00  0.00    +0.000 A 
BRANCH  23  24
ATOM     24  C   UNL     1       4.848   4.142  19.127  0.00  0.00    +0.000 C 
ATOM     25  N   UNL     1       5.979   4.367  18.971  0.00  0.00    +0.000 NA
ENDBRANCH  23  24
ENDBRANCH  17  18
ENDBRANCH   4  17
TORSDOF 5
ENDMDL
MODEL 7
REMARK VINA RESULT:      -6.9      5.725      8.195
REMARK  Name = 
REMARK  6 active torsions:
REMARK  status: ('A' for Active; 'I' for Inactive)
REMARK    1  A    between atoms: C_1  and  C_2
REMARK    2  A    between atoms: C_6  and  C_7
REMARK    3  A    between atoms: N_9  and  C_10
REMARK    4  A    between atoms: N_13  and  C_14
REMARK    5  A    between atoms: C_14  and  C_15
REMARK    6  A    between atoms: C_20  and  C_21
REMARK                            x       y       z     vdW  Elec       q    Type
REMARK                         _______ _______ _______ _____ _____    ______ ____
ROOT
ATOM      1  C   UNL     1       0.603  10.296  19.956  0.00  0.00    +0.000 C 
ATOM      2  C   UNL     1       0.689   8.930  20.629  0.00  0.00    +0.000 C 
ATOM      3  C   UNL     1       1.878   8.204  20.007  0.00  0.00    +0.000 C 
ATOM      4  N   UNL     1       1.820   8.095  18.531  0.00  0.00    +0.000 NA
ATOM      5  C   UNL     1       1.430   9.344  17.851  0.00  0.00    +0.000 C 
ATOM      6  C   UNL     1       0.235  10.062  18.498  0.00  0.00    +0.000 C 
ENDROOT
BRANCH   1   9
ATOM      7  C   UNL     1       0.377  12.334  21.293  0.00  0.00    +0.000 C 
ATOM      8  O   UNL     1       1.590  12.526  21.234  0.00  0.00    +0.000 OA
ATOM      9  N   UNL     1      -0.221  11.241  20.673  0.00  0.00    +0.000 N 
ATOM     10  H   UNL     1      -1.206  11.071  20.851  0.00  0.00    +0.000 HD
BRANCH   7  16
ATOM     11  C   UNL     1      -1.093  15.032  20.232  0.00  0.00    +0.000 C 
ATOM     12  C   UNL     1      -1.165  14.387  21.571  0.00  0.00    +0.000 A 
ATOM     13  C   UNL     1      -1.927  14.832  22.685  0.00  0.00    +0.000 A 
ATOM     14  C   UNL     1      -1.709  13.931  23.697  0.00  0.00    +0.000 A 
ATOM     15  O   UNL     1      -0.858  12.956  23.292  0.00  0.00    +0.000 OA
ATOM     16  C   UNL     1      -0.519  13.229  21.989  0.00  0.00    +0.000 A 
ENDBRANCH   7  16
ENDBRANCH   1   9
BRANCH   4  17
ATOM     17  C   UNL     1       3.144   7.622  18.075  0.00  0.00    +0.000 C 
BRANCH  17  18
ATOM     18  C   UNL     1       3.276   6.135  17.815  0.00  0.00    +0.000 A 
ATOM     19  C   UNL     1       2.194   5.292  18.136  0.00  0.00    +0.000 A 
ATOM     20  C   UNL     1       2.199   3.947  17.766  0.00  0.00    +0.000 A 
ATOM     21  C   UNL     1       3.278   3.429  17.056  0.00  0.00    +0.000 A 
ATOM     22  C   UNL     1       4.381   4.234  16.781  0.00  0.00    +0.000 A 
ATOM     23  C   UNL     1       4.402   5.579  17.184  0.00  0.00    +0.000 A 
BRANCH  23  24
ATOM     24  C   UNL     1       5.597   6.340  16.955  0.00  0.00    +0.000 C 
ATOM     25  N   UNL     1       6.547   6.997  16.813  0.00  0.00    +0.000 NA
ENDBRANCH  23  24
ENDBRANCH  17  18
ENDBRANCH   4  17
TORSDOF 5
ENDMDL
MODEL 8
REMARK VINA RESULT:      -6.9      4.116      6.846
REMARK  Name = 
REMARK  6 active torsions:
REMARK  status: ('A' for Active; 'I' for Inactive)
REMARK    1  A    between atoms: C_1  and  C_2
REMARK    2  A    between atoms: C_6  and  C_7
REMARK    3  A    between atoms: N_9  and  C_10
REMARK    4  A    between atoms: N_13  and  C_14
REMARK    5  A    between atoms: C_14  and  C_15
REMARK    6  A    between atoms: C_20  and  C_21
REMARK                            x       y       z     vdW  Elec       q    Type
REMARK                         _______ _______ _______ _____ _____    ______ ____
ROOT
ATOM      1  C   UNL     1       2.377   6.963  19.081  0.00  0.00    +0.000 C 
ATOM      2  C   UNL     1       2.476   6.071  20.313  0.00  0.00    +0.000 C 
ATOM      3  C   UNL     1       3.585   5.058  20.040  0.00  0.00    +0.000 C 
ATOM      4  N   UNL     1       3.399   4.273  18.798  0.00  0.00    +0.000 NA
ATOM      5  C   UNL     1       2.992   5.080  17.632  0.00  0.00    +0.000 C 
ATOM      6  C   UNL     1       1.879   6.096  17.932  0.00  0.00    +0.000 C 
ENDROOT
BRANCH   1   9
ATOM      7  C   UNL     1       1.700   9.203  18.363  0.00  0.00    +0.000 C 
ATOM      8  O   UNL     1       2.343   9.080  17.322  0.00  0.00    +0.000 OA
ATOM      9  N   UNL     1       1.646   8.187  19.313  0.00  0.00    +0.000 N 
ATOM     10  H   UNL     1       1.196   8.387  20.201  0.00  0.00    +0.000 HD
BRANCH   7  16
ATOM     11  C   UNL     1      -1.383   9.941  17.644  0.00  0.00    +0.000 C 
ATOM     12  C   UNL     1      -0.372  10.744  18.386  0.00  0.00    +0.000 A 
ATOM     13  C   UNL     1      -0.566  12.032  18.955  0.00  0.00    +0.000 A 
ATOM     14  C   UNL     1       0.620  12.381  19.552  0.00  0.00    +0.000 A 
ATOM     15  O   UNL     1       1.543  11.401  19.388  0.00  0.00    +0.000 OA
ATOM     16  C   UNL     1       0.943  10.393  18.673  0.00  0.00    +0.000 A 
ENDBRANCH   7  16
ENDBRANCH   1   9
BRANCH   4  17
ATOM     17  C   UNL     1       4.663   3.553  18.541  0.00  0.00    +0.000 C 
BRANCH  17  18
ATOM     18  C   UNL     1       5.513   4.069  17.397  0.00  0.00    +0.000 A 
ATOM     19  C   UNL     1       5.170   3.705  16.080  0.00  0.00    +0.000 A 
ATOM     20  C   UNL     1       5.814   4.284  14.986  0.00  0.00    +0.000 A 
ATOM     21  C   UNL     1       6.798   5.245  15.192  0.00  0.00    +0.000 A 
ATOM     22  C   UNL     1       7.190   5.574  16.488  0.00  0.00    +0.000 A 
ATOM     23  C   UNL     1       6.575   4.968  17.595  0.00  0.00    +0.000 A 
BRANCH  23  24
ATOM     24  C   UNL     1       7.075   5.275  18.904  0.00  0.00    +0.000 C 
ATOM     25  N   UNL     1       7.427   5.553  19.978  0.00  0.00    +0.000 NA
ENDBRANCH  23  24
ENDBRANCH  17  18
ENDBRANCH   4  17
TORSDOF 5
ENDMDL
MODEL 9
REMARK VINA RESULT:      -6.9      5.558      8.128
REMARK  Name = 
REMARK  6 active torsions:
REMARK  status: ('A' for Active; 'I' for Inactive)
REMARK    1  A    between atoms: C_1  and  C_2
REMARK    2  A    between atoms: C_6  and  C_7
REMARK    3  A    between atoms: N_9  and  C_10
REMARK    4  A    between atoms: N_13  and  C_14
REMARK    5  A    between atoms: C_14  and  C_15
REMARK    6  A    between atoms: C_20  and  C_21
REMARK                            x       y       z     vdW  Elec       q    Type
REMARK                         _______ _______ _______ _____ _____    ______ ____
ROOT
ATOM      1  C   UNL     1       0.639  10.306  19.856  0.00  0.00    +0.000 C 
ATOM      2  C   UNL     1       0.667   8.953  20.559  0.00  0.00    +0.000 C 
ATOM      3  C   UNL     1       1.858   8.184  19.994  0.00  0.00    +0.000 C 
ATOM      4  N   UNL     1       1.846   8.044  18.519  0.00  0.00    +0.000 NA
ATOM      5  C   UNL     1       1.511   9.288  17.800  0.00  0.00    +0.000 C 
ATOM      6  C   UNL     1       0.314  10.049  18.391  0.00  0.00    +0.000 C 
ENDROOT
BRANCH   1   9
ATOM      7  C   UNL     1       0.424  12.288  21.277  0.00  0.00    +0.000 C 
ATOM      8  O   UNL     1       1.647  12.369  21.374  0.00  0.00    +0.000 OA
ATOM      9  N   UNL     1      -0.184  11.286  20.525  0.00  0.00    +0.000 N 
ATOM     10  H   UNL     1      -1.194  11.200  20.573  0.00  0.00    +0.000 HD
BRANCH   7  16
ATOM     11  C   UNL     1      -2.083  11.731  23.270  0.00  0.00    +0.000 C 
ATOM     12  C   UNL     1      -1.550  13.028  22.768  0.00  0.00    +0.000 A 
ATOM     13  C   UNL     1      -2.042  14.323  23.082  0.00  0.00    +0.000 A 
ATOM     14  C   UNL     1      -1.244  15.219  22.416  0.00  0.00    +0.000 A 
ATOM     15  O   UNL     1      -0.291  14.572  21.703  0.00  0.00    +0.000 OA
ATOM     16  C   UNL     1      -0.471  13.226  21.913  0.00  0.00    +0.000 A 
ENDBRANCH   7  16
ENDBRANCH   1   9
BRANCH   4  17
ATOM     17  C   UNL     1       3.171   7.529  18.117  0.00  0.00    +0.000 C 
BRANCH  17  18
ATOM     18  C   UNL     1       3.264   6.040  17.852  0.00  0.00    +0.000 A 
ATOM     19  C   UNL     1       2.190   5.214  18.241  0.00  0.00    +0.000 A 
ATOM     20  C   UNL     1       2.151   3.869  17.873  0.00  0.00    +0.000 A 
ATOM     21  C   UNL     1       3.176   3.333  17.100  0.00  0.00    +0.000 A 
ATOM     22  C   UNL     1       4.274   4.121  16.757  0.00  0.00    +0.000 A 
ATOM     23  C   UNL     1       4.340   5.466  17.155  0.00  0.00    +0.000 A 
BRANCH  23  24
ATOM     24  C   UNL     1       5.531   6.207  16.852  0.00  0.00    +0.000 C 
ATOM     25  N   UNL     1       6.491   6.837  16.662  0.00  0.00    +0.000 NA
ENDBRANCH  23  24
ENDBRANCH  17  18
ENDBRANCH   4  17
TORSDOF 5
ENDMDL
