MODEL 1
REMARK VINA RESULT:      -7.9      0.000      0.000
REMARK  Name = 
REMARK  7 active torsions:
REMARK  status: ('A' for Active; 'I' for Inactive)
REMARK    1  A    between atoms: C_1  and  C_2
REMARK    2  A    between atoms: C_7  and  C_8
REMARK    3  A    between atoms: C_8  and  N_9
REMARK    4  A    between atoms: C_10  and  C_12
REMARK    5  A    between atoms: C_17  and  C_18
REMARK    6  A    between atoms: C_18  and  C_19
REMARK    7  A    between atoms: C_18  and  C_20
REMARK                            x       y       z     vdW  Elec       q    Type
REMARK                         _______ _______ _______ _____ _____    ______ ____
ROOT
ATOM      1  N   UNL     1       2.228   6.859  20.309  0.00  0.00    +0.000 N 
ATOM      2  C   UNL     1       1.754   8.062  19.823  0.00  0.00    +0.000 C 
ATOM      3  O   UNL     1       2.003   8.428  18.675  0.00  0.00    +0.000 OA
ATOM      4  H   UNL     1       2.151   6.618  21.286  0.00  0.00    +0.000 HD
ENDROOT
BRANCH   2   5
ATOM      5  C   UNL     1       0.918   8.957  20.699  0.00  0.00    +0.000 A 
ATOM      6  C   UNL     1       1.056   8.726  22.087  0.00  0.00    +0.000 A 
ATOM      7  C   UNL     1       0.373   9.483  23.047  0.00  0.00    +0.000 A 
ATOM      8  C   UNL     1      -0.468  10.497  22.598  0.00  0.00    +0.000 A 
ATOM      9  N   UNL     1      -1.243  11.368  23.310  0.00  0.00    +0.000 NA
ATOM     10  C   UNL     1      -1.825  12.105  22.386  0.00  0.00    +0.000 A 
ATOM     11  O   UNL     1      -1.481  11.772  21.090  0.00  0.00    +0.000 OA
ATOM     12  C   UNL     1      -0.601  10.721  21.234  0.00  0.00    +0.000 A 
ATOM     13  C   UNL     1       0.068   9.985  20.239  0.00  0.00    +0.000 A 
BRANCH  10  14
ATOM     14  C   UNL     1      -2.821  13.204  22.600  0.00  0.00    +0.000 C 
ATOM     15  C   UNL     1      -3.506  13.561  21.280  0.00  0.00    +0.000 C 
ATOM     16  C   UNL     1      -3.890  12.786  23.621  0.00  0.00    +0.000 C 
ENDBRANCH  10  14
ENDBRANCH   2   5
BRANCH   1  17
ATOM     17  C   UNL     1       3.095   6.031  19.476  0.00  0.00    +0.000 C 
BRANCH  17  24
ATOM     18  C   UNL     1       3.958   4.278  17.121  0.00  0.00    +0.000 C 
ATOM     19  C   UNL     1       2.891   3.862  18.097  0.00  0.00    +0.000 A 
ATOM     20  C   UNL     1       2.243   2.631  17.886  0.00  0.00    +0.000 A 
ATOM     21  C   UNL     1       1.208   2.210  18.720  0.00  0.00    +0.000 A 
ATOM     22  C   UNL     1       0.794   3.019  19.770  0.00  0.00    +0.000 A 
ATOM     23  C   UNL     1       1.427   4.241  19.994  0.00  0.00    +0.000 A 
ATOM     24  C   UNL     1       2.491   4.676  19.180  0.00  0.00    +0.000 A 
ENDBRANCH  17  24
ENDBRANCH   1  17
TORSDOF 4
ENDMDL
MODEL 2
REMARK VINA RESULT:      -7.8      2.375      4.010
REMARK  Name = 
REMARK  7 active torsions:
REMARK  status: ('A' for Active; 'I' for Inactive)
REMARK    1  A    between atoms: C_1  and  C_2
REMARK    2  A    between atoms: C_7  and  C_8
REMARK    3  A    between atoms: C_8  and  N_9
REMARK    4  A    between atoms: C_10  and  C_12
REMARK    5  A    between atoms: C_17  and  C_18
REMARK    6  A    between atoms: C_18  and  C_19
REMARK    7  A    between atoms: C_18  and  C_20
REMARK                            x       y       z     vdW  Elec       q    Type
REMARK                         _______ _______ _______ _____ _____    ______ ____
ROOT
ATOM      1  N   UNL     1       4.249   5.621  19.243  0.00  0.00    +0.000 N 
ATOM      2  C   UNL     1       2.919   5.829  18.935  0.00  0.00    +0.000 C 
ATOM      3  O   UNL     1       2.237   4.942  18.424  0.00  0.00    +0.000 OA
ATOM      4  H   UNL     1       4.850   6.380  19.526  0.00  0.00    +0.000 HD
ENDROOT
BRANCH   2   5
ATOM      5  C   UNL     1       2.275   7.161  19.217  0.00  0.00    +0.000 A 
ATOM      6  C   UNL     1       2.239   8.048  18.117  0.00  0.00    +0.000 A 
ATOM      7  C   UNL     1       1.654   9.318  18.193  0.00  0.00    +0.000 A 
ATOM      8  C   UNL     1       1.093   9.704  19.406  0.00  0.00    +0.000 A 
ATOM      9  N   UNL     1       0.473  10.871  19.751  0.00  0.00    +0.000 NA
ATOM     10  C   UNL     1       0.140  10.696  21.013  0.00  0.00    +0.000 A 
ATOM     11  O   UNL     1       0.506   9.469  21.534  0.00  0.00    +0.000 OA
ATOM     12  C   UNL     1       1.130   8.830  20.485  0.00  0.00    +0.000 A 
ATOM     13  C   UNL     1       1.705   7.546  20.448  0.00  0.00    +0.000 A 
BRANCH  10  14
ATOM     14  C   UNL     1      -0.538  11.681  21.915  0.00  0.00    +0.000 C 
ATOM     15  C   UNL     1      -1.604  12.459  21.143  0.00  0.00    +0.000 C 
ATOM     16  C   UNL     1      -1.202  10.971  23.105  0.00  0.00    +0.000 C 
ENDBRANCH  10  14
ENDBRANCH   2   5
BRANCH   1  17
ATOM     17  C   UNL     1       4.883   4.350  18.901  0.00  0.00    +0.000 C 
BRANCH  17  24
ATOM     18  C   UNL     1       7.747   5.366  18.551  0.00  0.00    +0.000 C 
ATOM     19  C   UNL     1       6.917   4.862  17.402  0.00  0.00    +0.000 A 
ATOM     20  C   UNL     1       7.477   4.899  16.112  0.00  0.00    +0.000 A 
ATOM     21  C   UNL     1       6.743   4.498  14.996  0.00  0.00    +0.000 A 
ATOM     22  C   UNL     1       5.432   4.066  15.150  0.00  0.00    +0.000 A 
ATOM     23  C   UNL     1       4.862   4.022  16.422  0.00  0.00    +0.000 A 
ATOM     24  C   UNL     1       5.593   4.399  17.567  0.00  0.00    +0.000 A 
ENDBRANCH  17  24
ENDBRANCH   1  17
TORSDOF 4
ENDMDL
MODEL 3
REMARK VINA RESULT:      -7.8      2.870      8.849
REMARK  Name = 
REMARK  7 active torsions:
REMARK  status: ('A' for Active; 'I' for Inactive)
REMARK    1  A    between atoms: C_1  and  C_2
REMARK    2  A    between atoms: C_7  and  C_8
REMARK    3  A    between atoms: C_8  and  N_9
REMARK    4  A    between atoms: C_10  and  C_12
REMARK    5  A    between atoms: C_17  and  C_18
REMARK    6  A    between atoms: C_18  and  C_19
REMARK    7  A    between atoms: C_18  and  C_20
REMARK                            x       y       z     vdW  Elec       q    Type
REMARK                         _______ _______ _______ _____ _____    ______ ____
ROOT
ATOM      1  N   UNL     1       0.802   9.774  18.467  0.00  0.00    +0.000 N 
ATOM      2  C   UNL     1       1.325   8.958  19.450  0.00  0.00    +0.000 C 
ATOM      3  O   UNL     1       1.111   9.177  20.641  0.00  0.00    +0.000 OA
ATOM      4  H   UNL     1       1.088   9.689  17.503  0.00  0.00    +0.000 HD
ENDROOT
BRANCH   2   5
ATOM      5  C   UNL     1       2.181   7.776  19.078  0.00  0.00    +0.000 A 
ATOM      6  C   UNL     1       2.135   6.698  19.991  0.00  0.00    +0.000 A 
ATOM      7  C   UNL     1       2.848   5.509  19.789  0.00  0.00    +0.000 A 
ATOM      8  C   UNL     1       3.626   5.406  18.640  0.00  0.00    +0.000 A 
ATOM      9  N   UNL     1       4.413   4.376  18.208  0.00  0.00    +0.000 NA
ATOM     10  C   UNL     1       4.913   4.812  17.071  0.00  0.00    +0.000 A 
ATOM     11  O   UNL     1       4.503   6.083  16.717  0.00  0.00    +0.000 OA
ATOM     12  C   UNL     1       3.669   6.467  17.745  0.00  0.00    +0.000 A 
ATOM     13  C   UNL     1       2.966   7.674  17.910  0.00  0.00    +0.000 A 
BRANCH  10  14
ATOM     14  C   UNL     1       5.882   4.100  16.176  0.00  0.00    +0.000 C 
ATOM     15  C   UNL     1       5.569   4.402  14.711  0.00  0.00    +0.000 C 
ATOM     16  C   UNL     1       7.326   4.530  16.478  0.00  0.00    +0.000 C 
ENDBRANCH  10  14
ENDBRANCH   2   5
BRANCH   1  17
ATOM     17  C   UNL     1       0.032  10.959  18.840  0.00  0.00    +0.000 C 
BRANCH  17  24
ATOM     18  C   UNL     1      -2.233  12.672  19.976  0.00  0.00    +0.000 C 
ATOM     19  C   UNL     1      -2.435  11.705  18.841  0.00  0.00    +0.000 A 
ATOM     20  C   UNL     1      -3.732  11.564  18.313  0.00  0.00    +0.000 A 
ATOM     21  C   UNL     1      -3.999  10.647  17.296  0.00  0.00    +0.000 A 
ATOM     22  C   UNL     1      -2.978   9.846  16.802  0.00  0.00    +0.000 A 
ATOM     23  C   UNL     1      -1.687   9.975  17.313  0.00  0.00    +0.000 A 
ATOM     24  C   UNL     1      -1.389  10.912  18.322  0.00  0.00    +0.000 A 
ENDBRANCH  17  24
ENDBRANCH   1  17
TORSDOF 4
ENDMDL
MODEL 4
REMARK VINA RESULT:      -7.7      1.124      1.424
REMARK  Name = 
REMARK  7 active torsions:
REMARK  status: ('A' for Active; 'I' for Inactive)
REMARK    1  A    between atoms: C_1  and  C_2
REMARK    2  A    between atoms: C_7  and  C_8
REMARK    3  A    between atoms: C_8  and  N_9
REMARK    4  A    between atoms: C_10  and  C_12
REMARK    5  A    between atoms: C_17  and  C_18
REMARK    6  A    between atoms: C_18  and  C_19
REMARK    7  A    between atoms: C_18  and  C_20
REMARK                            x       y       z     vdW  Elec       q    Type
REMARK                         _______ _______ _______ _____ _____    ______ ____
ROOT
ATOM      1  N   UNL     1       2.417   7.183  18.885  0.00  0.00    +0.000 N 
ATOM      2  C   UNL     1       1.934   8.462  18.689  0.00  0.00    +0.000 C 
ATOM      3  O   UNL     1       2.085   9.042  17.615  0.00  0.00    +0.000 OA
ATOM      4  H   UNL     1       2.426   6.757  19.799  0.00  0.00    +0.000 HD
ENDROOT
BRANCH   2   5
ATOM      5  C   UNL     1       1.211   9.177  19.799  0.00  0.00    +0.000 A 
ATOM      6  C   UNL     1       1.417   8.635  21.088  0.00  0.00    +0.000 A 
ATOM      7  C   UNL     1       0.842   9.189  22.239  0.00  0.00    +0.000 A 
ATOM      8  C   UNL     1       0.041  10.316  22.087  0.00  0.00    +0.000 A 
ATOM      9  N   UNL     1      -0.634  11.042  23.027  0.00  0.00    +0.000 NA
ATOM     10  C   UNL     1      -1.224  11.993  22.333  0.00  0.00    +0.000 A 
ATOM     11  O   UNL     1      -0.980  11.943  20.974  0.00  0.00    +0.000 OA
ATOM     12  C   UNL     1      -0.160  10.846  20.819  0.00  0.00    +0.000 A 
ATOM     13  C   UNL     1       0.401  10.321  19.640  0.00  0.00    +0.000 A 
BRANCH  10  14
ATOM     14  C   UNL     1      -2.134  13.063  22.855  0.00  0.00    +0.000 C 
ATOM     15  C   UNL     1      -3.260  12.441  23.682  0.00  0.00    +0.000 C 
ATOM     16  C   UNL     1      -1.363  14.061  23.731  0.00  0.00    +0.000 C 
ENDBRANCH  10  14
ENDBRANCH   2   5
BRANCH   1  17
ATOM     17  C   UNL     1       3.179   6.524  17.826  0.00  0.00    +0.000 C 
BRANCH  17  24
ATOM     18  C   UNL     1       5.345   4.563  16.920  0.00  0.00    +0.000 C 
ATOM     19  C   UNL     1       3.998   4.115  17.420  0.00  0.00    +0.000 A 
ATOM     20  C   UNL     1       3.721   2.735  17.431  0.00  0.00    +0.000 A 
ATOM     21  C   UNL     1       2.474   2.254  17.830  0.00  0.00    +0.000 A 
ATOM     22  C   UNL     1       1.480   3.146  18.212  0.00  0.00    +0.000 A 
ATOM     23  C   UNL     1       1.739   4.516  18.208  0.00  0.00    +0.000 A 
ATOM     24  C   UNL     1       2.999   5.023  17.832  0.00  0.00    +0.000 A 
ENDBRANCH  17  24
ENDBRANCH   1  17
TORSDOF 4
ENDMDL
MODEL 5
REMARK VINA RESULT:      -7.6      1.353      1.551
REMARK  Name = 
REMARK  7 active torsions:
REMARK  status: ('A' for Active; 'I' for Inactive)
REMARK    1  A    between atoms: C_1  and  C_2
REMARK    2  A    between atoms: C_7  and  C_8
REMARK    3  A    between atoms: C_8  and  N_9
REMARK    4  A    between atoms: C_10  and  C_12
REMARK    5  A    between atoms: C_17  and  C_18
REMARK    6  A    between atoms: C_18  and  C_19
REMARK    7  A    between atoms: C_18  and  C_20
REMARK                            x       y       z     vdW  Elec       q    Type
REMARK                         _______ _______ _______ _____ _____    ______ ____
ROOT
ATOM      1  N   UNL     1       1.881   7.299  20.543  0.00  0.00    +0.000 N 
ATOM      2  C   UNL     1       1.467   8.494  19.987  0.00  0.00    +0.000 C 
ATOM      3  O   UNL     1       1.676   8.752  18.803  0.00  0.00    +0.000 OA
ATOM      4  H   UNL     1       1.844   7.140  21.539  0.00  0.00    +0.000 HD
ENDROOT
BRANCH   2   5
ATOM      5  C   UNL     1       0.750   9.514  20.831  0.00  0.00    +0.000 A 
ATOM      6  C   UNL     1       0.083   8.987  21.961  0.00  0.00    +0.000 A 
ATOM      7  C   UNL     1      -0.613   9.795  22.869  0.00  0.00    +0.000 A 
ATOM      8  C   UNL     1      -0.638  11.166  22.632  0.00  0.00    +0.000 A 
ATOM      9  N   UNL     1      -1.238  12.165  23.345  0.00  0.00    +0.000 NA
ATOM     10  C   UNL     1      -0.940  13.259  22.675  0.00  0.00    +0.000 A 
ATOM     11  O   UNL     1      -0.171  13.045  21.546  0.00  0.00    +0.000 OA
ATOM     12  C   UNL     1       0.018  11.680  21.521  0.00  0.00    +0.000 A 
ATOM     13  C   UNL     1       0.729  10.903  20.588  0.00  0.00    +0.000 A 
BRANCH  10  14
ATOM     14  C   UNL     1      -1.375  14.659  22.987  0.00  0.00    +0.000 C 
ATOM     15  C   UNL     1      -2.721  14.954  22.324  0.00  0.00    +0.000 C 
ATOM     16  C   UNL     1      -1.507  14.868  24.503  0.00  0.00    +0.000 C 
ENDBRANCH  10  14
ENDBRANCH   2   5
BRANCH   1  17
ATOM     17  C   UNL     1       2.638   6.346  19.735  0.00  0.00    +0.000 C 
BRANCH  17  24
ATOM     18  C   UNL     1       1.511   4.513  17.561  0.00  0.00    +0.000 C 
ATOM     19  C   UNL     1       1.704   4.064  18.984  0.00  0.00    +0.000 A 
ATOM     20  C   UNL     1       1.312   2.757  19.326  0.00  0.00    +0.000 A 
ATOM     21  C   UNL     1       1.414   2.294  20.638  0.00  0.00    +0.000 A 
ATOM     22  C   UNL     1       1.896   3.136  21.631  0.00  0.00    +0.000 A 
ATOM     23  C   UNL     1       2.291   4.434  21.309  0.00  0.00    +0.000 A 
ATOM     24  C   UNL     1       2.220   4.914  19.986  0.00  0.00    +0.000 A 
ENDBRANCH  17  24
ENDBRANCH   1  17
TORSDOF 4
ENDMDL
MODEL 6
REMARK VINA RESULT:      -7.6      1.112      1.641
REMARK  Name = 
REMARK  7 active torsions:
REMARK  status: ('A' for Active; 'I' for Inactive)
REMARK    1  A    between atoms: C_1  and  C_2
REMARK    2  A    between atoms: C_7  and  C_8
REMARK    3  A    between atoms: C_8  and  N_9
REMARK    4  A    between atoms: C_10  and  C_12
REMARK    5  A    between atoms: C_17  and  C_18
REMARK    6  A    between atoms: C_18  and  C_19
REMARK    7  A    between atoms: C_18  and  C_20
REMARK                            x       y       z     vdW  Elec       q    Type
REMARK                         _______ _______ _______ _____ _____    ______ ____
ROOT
ATOM      1  N   UNL     1       2.340   6.946  20.094  0.00  0.00    +0.000 N 
ATOM      2  C   UNL     1       2.007   8.035  19.313  0.00  0.00    +0.000 C 
ATOM      3  O   UNL     1       2.416   8.141  18.158  0.00  0.00    +0.000 OA
ATOM      4  H   UNL     1       2.132   6.920  21.080  0.00  0.00    +0.000 HD
ENDROOT
BRANCH   2   5
ATOM      5  C   UNL     1       1.133   9.128  19.870  0.00  0.00    +0.000 A 
ATOM      6  C   UNL     1       0.407   9.859  18.902  0.00  0.00    +0.000 A 
ATOM      7  C   UNL     1      -0.474  10.893  19.245  0.00  0.00    +0.000 A 
ATOM      8  C   UNL     1      -0.626  11.197  20.594  0.00  0.00    +0.000 A 
ATOM      9  N   UNL     1      -1.405  12.146  21.194  0.00  0.00    +0.000 NA
ATOM     10  C   UNL     1      -1.164  11.991  22.479  0.00  0.00    +0.000 A 
ATOM     11  O   UNL     1      -0.262  10.987  22.773  0.00  0.00    +0.000 OA
ATOM     12  C   UNL     1       0.088  10.476  21.542  0.00  0.00    +0.000 A 
ATOM     13  C   UNL     1       0.980   9.430  21.239  0.00  0.00    +0.000 A 
BRANCH  10  14
ATOM     14  C   UNL     1      -1.725  12.800  23.609  0.00  0.00    +0.000 C 
ATOM     15  C   UNL     1      -1.253  14.251  23.505  0.00  0.00    +0.000 C 
ATOM     16  C   UNL     1      -3.260  12.771  23.596  0.00  0.00    +0.000 C 
ENDBRANCH  10  14
ENDBRANCH   2   5
BRANCH   1  17
ATOM     17  C   UNL     1       3.246   5.927  19.569  0.00  0.00    +0.000 C 
BRANCH  17  24
ATOM     18  C   UNL     1       3.887   4.191  17.133  0.00  0.00    +0.000 C 
ATOM     19  C   UNL     1       2.835   3.820  18.143  0.00  0.00    +0.000 A 
ATOM     20  C   UNL     1       2.096   2.642  17.927  0.00  0.00    +0.000 A 
ATOM     21  C   UNL     1       1.070   2.267  18.794  0.00  0.00    +0.000 A 
ATOM     22  C   UNL     1       0.757   3.070  19.883  0.00  0.00    +0.000 A 
ATOM     23  C   UNL     1       1.482   4.240  20.111  0.00  0.00    +0.000 A 
ATOM     24  C   UNL     1       2.538   4.626  19.263  0.00  0.00    +0.000 A 
ENDBRANCH  17  24
ENDBRANCH   1  17
TORSDOF 4
ENDMDL
MODEL 7
REMARK VINA RESULT:      -7.6      2.090      3.612
REMARK  Name = 
REMARK  7 active torsions:
REMARK  status: ('A' for Active; 'I' for Inactive)
REMARK    1  A    between atoms: C_1  and  C_2
REMARK    2  A    between atoms: C_7  and  C_8
REMARK    3  A    between atoms: C_8  and  N_9
REMARK    4  A    between atoms: C_10  and  C_12
REMARK    5  A    between atoms: C_17  and  C_18
REMARK    6  A    between atoms: C_18  and  C_19
REMARK    7  A    between atoms: C_18  and  C_20
REMARK                            x       y       z     vdW  Elec       q    Type
REMARK                         _______ _______ _______ _____ _____    ______ ____
ROOT
ATOM      1  N   UNL     1       4.140   5.964  19.545  0.00  0.00    +0.000 N 
ATOM      2  C   UNL     1       2.769   6.022  19.696  0.00  0.00    +0.000 C 
ATOM      3  O   UNL     1       2.091   4.998  19.764  0.00  0.00    +0.000 OA
ATOM      4  H   UNL     1       4.684   6.789  19.345  0.00  0.00    +0.000 HD
ENDROOT
BRANCH   2   5
ATOM      5  C   UNL     1       2.071   7.354  19.776  0.00  0.00    +0.000 A 
ATOM      6  C   UNL     1       2.095   8.110  18.582  0.00  0.00    +0.000 A 
ATOM      7  C   UNL     1       1.474   9.360  18.469  0.00  0.00    +0.000 A 
ATOM      8  C   UNL     1       0.813   9.860  19.587  0.00  0.00    +0.000 A 
ATOM      9  N   UNL     1       0.138  11.037  19.749  0.00  0.00    +0.000 NA
ATOM     10  C   UNL     1      -0.284  10.993  20.996  0.00  0.00    +0.000 A 
ATOM     11  O   UNL     1       0.073   9.847  21.679  0.00  0.00    +0.000 OA
ATOM     12  C   UNL     1       0.791   9.115  20.759  0.00  0.00    +0.000 A 
ATOM     13  C   UNL     1       1.400   7.856  20.911  0.00  0.00    +0.000 A 
BRANCH  10  14
ATOM     14  C   UNL     1      -1.054  12.051  21.728  0.00  0.00    +0.000 C 
ATOM     15  C   UNL     1      -2.229  12.533  20.877  0.00  0.00    +0.000 C 
ATOM     16  C   UNL     1      -1.590  11.514  23.063  0.00  0.00    +0.000 C 
ENDBRANCH  10  14
ENDBRANCH   2   5
BRANCH   1  17
ATOM     17  C   UNL     1       4.800   4.669  19.398  0.00  0.00    +0.000 C 
BRANCH  17  24
ATOM     18  C   UNL     1       3.287   3.588  16.969  0.00  0.00    +0.000 C 
ATOM     19  C   UNL     1       4.733   3.999  16.910  0.00  0.00    +0.000 A 
ATOM     20  C   UNL     1       5.418   3.840  15.691  0.00  0.00    +0.000 A 
ATOM     21  C   UNL     1       6.774   4.150  15.581  0.00  0.00    +0.000 A 
ATOM     22  C   UNL     1       7.469   4.611  16.691  0.00  0.00    +0.000 A 
ATOM     23  C   UNL     1       6.804   4.776  17.906  0.00  0.00    +0.000 A 
ATOM     24  C   UNL     1       5.430   4.493  18.034  0.00  0.00    +0.000 A 
ENDBRANCH  17  24
ENDBRANCH   1  17
TORSDOF 4
ENDMDL
MODEL 8
REMARK VINA RESULT:      -7.5      3.367      9.714
REMARK  Name = 
REMARK  7 active torsions:
REMARK  status: ('A' for Active; 'I' for Inactive)
REMARK    1  A    between atoms: C_1  and  C_2
REMARK    2  A    between atoms: C_7  and  C_8
REMARK    3  A    between atoms: C_8  and  N_9
REMARK    4  A    between atoms: C_10  and  C_12
REMARK    5  A    between atoms: C_17  and  C_18
REMARK    6  A    between atoms: C_18  and  C_19
REMARK    7  A    between atoms: C_18  and  C_20
REMARK                            x       y       z     vdW  Elec       q    Type
REMARK                         _______ _______ _______ _____ _____    ______ ____
ROOT
ATOM      1  N   UNL     1       2.667   7.124  19.417  0.00  0.00    +0.000 N 
ATOM      2  C   UNL     1       3.294   5.894  19.461  0.00  0.00    +0.000 C 
ATOM      3  O   UNL     1       3.031   5.075  20.341  0.00  0.00    +0.000 OA
ATOM      4  H   UNL     1       2.977   7.851  18.792  0.00  0.00    +0.000 HD
ENDROOT
BRANCH   2   5
ATOM      5  C   UNL     1       4.325   5.531  18.425  0.00  0.00    +0.000 A 
ATOM      6  C   UNL     1       5.653   5.466  18.905  0.00  0.00    +0.000 A 
ATOM      7  C   UNL     1       6.734   5.119  18.085  0.00  0.00    +0.000 A 
ATOM      8  C   UNL     1       6.470   4.831  16.750  0.00  0.00    +0.000 A 
ATOM      9  N   UNL     1       7.326   4.474  15.747  0.00  0.00    +0.000 NA
ATOM     10  C   UNL     1       6.545   4.323  14.698  0.00  0.00    +0.000 A 
ATOM     11  O   UNL     1       5.206   4.560  14.945  0.00  0.00    +0.000 OA
ATOM     12  C   UNL     1       5.164   4.895  16.281  0.00  0.00    +0.000 A 
ATOM     13  C   UNL     1       4.052   5.237  17.072  0.00  0.00    +0.000 A 
BRANCH  10  14
ATOM     14  C   UNL     1       6.961   3.969  13.302  0.00  0.00    +0.000 C 
ATOM     15  C   UNL     1       5.741   3.575  12.470  0.00  0.00    +0.000 C 
ATOM     16  C   UNL     1       7.669   5.152  12.624  0.00  0.00    +0.000 C 
ENDBRANCH  10  14
ENDBRANCH   2   5
BRANCH   1  17
ATOM     17  C   UNL     1       1.721   7.494  20.467  0.00  0.00    +0.000 C 
BRANCH  17  24
ATOM     18  C   UNL     1      -0.106   8.894  22.482  0.00  0.00    +0.000 C 
ATOM     19  C   UNL     1       0.220   9.480  21.134  0.00  0.00    +0.000 A 
ATOM     20  C   UNL     1      -0.377  10.705  20.782  0.00  0.00    +0.000 A 
ATOM     21  C   UNL     1      -0.161  11.277  19.528  0.00  0.00    +0.000 A 
ATOM     22  C   UNL     1       0.643  10.626  18.602  0.00  0.00    +0.000 A 
ATOM     23  C   UNL     1       1.243   9.413  18.936  0.00  0.00    +0.000 A 
ATOM     24  C   UNL     1       1.059   8.828  20.205  0.00  0.00    +0.000 A 
ENDBRANCH  17  24
ENDBRANCH   1  17
TORSDOF 4
ENDMDL
MODEL 9
REMARK VINA RESULT:      -7.5      2.596      9.103
REMARK  Name = 
REMARK  7 active torsions:
REMARK  status: ('A' for Active; 'I' for Inactive)
REMARK    1  A    between atoms: C_1  and  C_2
REMARK    2  A    between atoms: C_7  and  C_8
REMARK    3  A    between atoms: C_8  and  N_9
REMARK    4  A    between atoms: C_10  and  C_12
REMARK    5  A    between atoms: C_17  and  C_18
REMARK    6  A    between atoms: C_18  and  C_19
REMARK    7  A    between atoms: C_18  and  C_20
REMARK                            x       y       z     vdW  Elec       q    Type
REMARK                         _______ _______ _______ _____ _____    ______ ____
ROOT
ATOM      1  N   UNL     1       1.450   8.983  19.246  0.00  0.00    +0.000 N 
ATOM      2  C   UNL     1       1.735   7.764  19.830  0.00  0.00    +0.000 C 
ATOM      3  O   UNL     1       1.387   7.513  20.983  0.00  0.00    +0.000 OA
ATOM      4  H   UNL     1       1.853   9.250  18.361  0.00  0.00    +0.000 HD
ENDROOT
BRANCH   2   5
ATOM      5  C   UNL     1       2.490   6.713  19.060  0.00  0.00    +0.000 A 
ATOM      6  C   UNL     1       2.218   5.381  19.451  0.00  0.00    +0.000 A 
ATOM      7  C   UNL     1       2.812   4.278  18.825  0.00  0.00    +0.000 A 
ATOM      8  C   UNL     1       3.700   4.522  17.782  0.00  0.00    +0.000 A 
ATOM      9  N   UNL     1       4.410   3.642  17.015  0.00  0.00    +0.000 NA
ATOM     10  C   UNL     1       5.083   4.412  16.186  0.00  0.00    +0.000 A 
ATOM     11  O   UNL     1       4.862   5.765  16.357  0.00  0.00    +0.000 OA
ATOM     12  C   UNL     1       3.964   5.831  17.401  0.00  0.00    +0.000 A 
ATOM     13  C   UNL     1       3.387   6.965  18.002  0.00  0.00    +0.000 A 
BRANCH  10  14
ATOM     14  C   UNL     1       6.062   3.976  15.139  0.00  0.00    +0.000 C 
ATOM     15  C   UNL     1       5.402   3.987  13.760  0.00  0.00    +0.000 C 
ATOM     16  C   UNL     1       7.288   4.901  15.114  0.00  0.00    +0.000 C 
ENDBRANCH  10  14
ENDBRANCH   2   5
BRANCH   1  17
ATOM     17  C   UNL     1       0.780  10.022  20.024  0.00  0.00    +0.000 C 
BRANCH  17  24
ATOM     18  C   UNL     1      -1.128  12.042  21.304  0.00  0.00    +0.000 C 
ATOM     19  C   UNL     1      -1.330  11.498  19.915  0.00  0.00    +0.000 A 
ATOM     20  C   UNL     1      -2.468  11.914  19.200  0.00  0.00    +0.000 A 
ATOM     21  C   UNL     1      -2.745  11.407  17.930  0.00  0.00    +0.000 A 
ATOM     22  C   UNL     1      -1.897  10.467  17.361  0.00  0.00    +0.000 A 
ATOM     23  C   UNL     1      -0.764  10.046  18.057  0.00  0.00    +0.000 A 
ATOM     24  C   UNL     1      -0.451  10.562  19.330  0.00  0.00    +0.000 A 
ENDBRANCH  17  24
ENDBRANCH   1  17
TORSDOF 4
ENDMDL
