MODEL 1
REMARK VINA RESULT:      -6.9      0.000      0.000
REMARK  Name = 
REMARK  10 active torsions:
REMARK  status: ('A' for Active; 'I' for Inactive)
REMARK    1  A    between atoms: C_1  and  N_2
REMARK    2  A    between atoms: N_2  and  C_3
REMARK    3  A    between atoms: N_2  and  C_4
REMARK    4  A    between atoms: C_4  and  C_5
REMARK    5  A    between atoms: C_5  and  N_6
REMARK    6  A    between atoms: C_7  and  C_9
REMARK    7  A    between atoms: C_12  and  N_13
REMARK    8  A    between atoms: N_13  and  C_25
REMARK    9  A    between atoms: C_14  and  C_16
REMARK   10  A    between atoms: C_20  and  N_21
REMARK                            x       y       z     vdW  Elec       q    Type
REMARK                         _______ _______ _______ _____ _____    ______ ____
ROOT
ATOM      1  N   UNL     1       2.852   5.559  18.227  0.00  0.00    +0.000 N 
ATOM      2  C   UNL     1       3.022   6.940  17.916  0.00  0.00    +0.000 C 
ATOM      3  O   UNL     1       3.710   7.372  16.995  0.00  0.00    +0.000 OA
ENDROOT
BRANCH   2   4
ATOM      4  C   UNL     1       2.247   7.993  18.651  0.00  0.00    +0.000 A 
ATOM      5  C   UNL     1       2.273   8.152  20.031  0.00  0.00    +0.000 A 
ATOM      6  C   UNL     1       1.296   8.921  20.670  0.00  0.00    +0.000 A 
ATOM      7 CL   UNL     1       1.215   8.862  22.398  0.00  0.00    +0.000 Cl
ATOM      8  C   UNL     1       0.366   9.680  19.935  0.00  0.00    +0.000 A 
ATOM      9  C   UNL     1       0.470   9.645  18.534  0.00  0.00    +0.000 A 
ATOM     10 CL   UNL     1      -0.584  10.600  17.548  0.00  0.00    +0.000 Cl
ATOM     11  C   UNL     1       1.394   8.817  17.899  0.00  0.00    +0.000 A 
BRANCH   8  12
ATOM     12  N   UNL     1      -0.771  10.235  20.558  0.00  0.00    +0.000 N 
ATOM     13  H   UNL     1      -1.028  11.156  20.214  0.00  0.00    +0.000 HD
ATOM     14  H   UNL     1      -1.551   9.587  20.647  0.00  0.00    +0.000 HD
ENDBRANCH   8  12
ENDBRANCH   2   4
BRANCH   1  18
ATOM     15  C   UNL     1       6.589   4.846  17.963  0.00  0.00    +0.000 C 
ATOM     16  C   UNL     1       5.628   4.273  19.017  0.00  0.00    +0.000 C 
ATOM     17  C   UNL     1       4.426   3.556  18.424  0.00  0.00    +0.000 C 
ATOM     18  C   UNL     1       3.603   4.476  17.495  0.00  0.00    +0.000 C 
ATOM     19  C   UNL     1       4.562   4.872  16.355  0.00  0.00    +0.000 C 
ATOM     20  C   UNL     1       5.849   5.557  16.821  0.00  0.00    +0.000 C 
BRANCH  15  22
ATOM     21  N   UNL     1       7.708   7.030  18.010  0.00  0.00    +0.000 N 
ATOM     22  C   UNL     1       7.539   5.828  18.660  0.00  0.00    +0.000 C 
ATOM     23  O   UNL     1       8.100   5.578  19.724  0.00  0.00    +0.000 OA
ATOM     24  H   UNL     1       7.543   7.079  17.012  0.00  0.00    +0.000 HD
BRANCH  21  25
ATOM     25  C   UNL     1       8.493   8.087  18.613  0.00  0.00    +0.000 C 
BRANCH  25  26
ATOM     26  C   UNL     1       8.185   9.468  18.013  0.00  0.00    +0.000 C 
BRANCH  26  28
ATOM     27  C   UNL     1       8.776  11.830  17.855  0.00  0.00    +0.000 C 
ATOM     28  N   UNL     1       9.198  10.506  18.318  0.00  0.00    +0.000 NA
ATOM     29  C   UNL     1       9.428  10.541  19.766  0.00  0.00    +0.000 C 
ENDBRANCH  26  28
ENDBRANCH  25  26
ENDBRANCH  21  25
ENDBRANCH  15  22
ENDBRANCH   1  18
BRANCH   1  30
ATOM     30  C   UNL     1       1.616   5.142  18.910  0.00  0.00    +0.000 C 
ATOM     31  C   UNL     1       1.191   3.760  19.318  0.00  0.00    +0.000 C 
ATOM     32  C   UNL     1       1.661   4.721  20.366  0.00  0.00    +0.000 C 
ENDBRANCH   1  30
TORSDOF 8
ENDMDL
MODEL 2
REMARK VINA RESULT:      -6.7      0.709      1.764
REMARK  Name = 
REMARK  10 active torsions:
REMARK  status: ('A' for Active; 'I' for Inactive)
REMARK    1  A    between atoms: C_1  and  N_2
REMARK    2  A    between atoms: N_2  and  C_3
REMARK    3  A    between atoms: N_2  and  C_4
REMARK    4  A    between atoms: C_4  and  C_5
REMARK    5  A    between atoms: C_5  and  N_6
REMARK    6  A    between atoms: C_7  and  C_9
REMARK    7  A    between atoms: C_12  and  N_13
REMARK    8  A    between atoms: N_13  and  C_25
REMARK    9  A    between atoms: C_14  and  C_16
REMARK   10  A    between atoms: C_20  and  N_21
REMARK                            x       y       z     vdW  Elec       q    Type
REMARK                         _______ _______ _______ _____ _____    ______ ____
ROOT
ATOM      1  N   UNL     1       3.098   5.419  17.803  0.00  0.00    +0.000 N 
ATOM      2  C   UNL     1       3.330   6.824  17.735  0.00  0.00    +0.000 C 
ATOM      3  O   UNL     1       4.210   7.357  17.063  0.00  0.00    +0.000 OA
ENDROOT
BRANCH   2   4
ATOM      4  C   UNL     1       2.405   7.789  18.415  0.00  0.00    +0.000 A 
ATOM      5  C   UNL     1       1.916   8.944  17.818  0.00  0.00    +0.000 A 
ATOM      6  C   UNL     1       1.336   9.949  18.598  0.00  0.00    +0.000 A 
ATOM      7 CL   UNL     1       0.995  11.470  17.845  0.00  0.00    +0.000 Cl
ATOM      8  C   UNL     1       1.086   9.758  19.969  0.00  0.00    +0.000 A 
ATOM      9  C   UNL     1       1.428   8.510  20.518  0.00  0.00    +0.000 A 
ATOM     10 CL   UNL     1       1.093   8.157  22.180  0.00  0.00    +0.000 Cl
ATOM     11  C   UNL     1       2.076   7.539  19.757  0.00  0.00    +0.000 A 
BRANCH   8  12
ATOM     12  N   UNL     1       0.756  10.845  20.805  0.00  0.00    +0.000 N 
ATOM     13  H   UNL     1      -0.123  10.736  21.304  0.00  0.00    +0.000 HD
ATOM     14  H   UNL     1       1.527  11.172  21.381  0.00  0.00    +0.000 HD
ENDBRANCH   8  12
ENDBRANCH   2   4
BRANCH   1  18
ATOM     15  C   UNL     1       6.895   5.069  17.802  0.00  0.00    +0.000 C 
ATOM     16  C   UNL     1       5.921   4.390  18.779  0.00  0.00    +0.000 C 
ATOM     17  C   UNL     1       4.839   3.572  18.093  0.00  0.00    +0.000 C 
ATOM     18  C   UNL     1       3.999   4.424  17.116  0.00  0.00    +0.000 C 
ATOM     19  C   UNL     1       4.994   4.929  16.053  0.00  0.00    +0.000 C 
ATOM     20  C   UNL     1       6.173   5.725  16.617  0.00  0.00    +0.000 C 
BRANCH  15  22
ATOM     21  N   UNL     1       7.810   7.342  17.942  0.00  0.00    +0.000 N 
ATOM     22  C   UNL     1       7.694   6.125  18.575  0.00  0.00    +0.000 C 
ATOM     23  O   UNL     1       8.186   5.917  19.681  0.00  0.00    +0.000 OA
ATOM     24  H   UNL     1       7.723   7.385  16.934  0.00  0.00    +0.000 HD
BRANCH  21  25
ATOM     25  C   UNL     1       8.446   8.460  18.608  0.00  0.00    +0.000 C 
BRANCH  25  26
ATOM     26  C   UNL     1       8.337   9.766  17.806  0.00  0.00    +0.000 C 
BRANCH  26  28
ATOM     27  C   UNL     1       8.851  12.151  17.853  0.00  0.00    +0.000 C 
ATOM     28  N   UNL     1       9.318  10.806  18.197  0.00  0.00    +0.000 NA
ATOM     29  C   UNL     1       9.554  10.723  19.643  0.00  0.00    +0.000 C 
ENDBRANCH  26  28
ENDBRANCH  25  26
ENDBRANCH  21  25
ENDBRANCH  15  22
ENDBRANCH   1  18
BRANCH   1  30
ATOM     30  C   UNL     1       1.739   4.949  18.124  0.00  0.00    +0.000 C 
ATOM     31  C   UNL     1       1.206   3.545  18.110  0.00  0.00    +0.000 C 
ATOM     32  C   UNL     1       1.480   4.211  19.422  0.00  0.00    +0.000 C 
ENDBRANCH   1  30
TORSDOF 8
ENDMDL
MODEL 3
REMARK VINA RESULT:      -6.6      1.257      2.041
REMARK  Name = 
REMARK  10 active torsions:
REMARK  status: ('A' for Active; 'I' for Inactive)
REMARK    1  A    between atoms: C_1  and  N_2
REMARK    2  A    between atoms: N_2  and  C_3
REMARK    3  A    between atoms: N_2  and  C_4
REMARK    4  A    between atoms: C_4  and  C_5
REMARK    5  A    between atoms: C_5  and  N_6
REMARK    6  A    between atoms: C_7  and  C_9
REMARK    7  A    between atoms: C_12  and  N_13
REMARK    8  A    between atoms: N_13  and  C_25
REMARK    9  A    between atoms: C_14  and  C_16
REMARK   10  A    between atoms: C_20  and  N_21
REMARK                            x       y       z     vdW  Elec       q    Type
REMARK                         _______ _______ _______ _____ _____    ______ ____
ROOT
ATOM      1  N   UNL     1       2.918   5.090  18.967  0.00  0.00    +0.000 N 
ATOM      2  C   UNL     1       3.118   6.359  18.350  0.00  0.00    +0.000 C 
ATOM      3  O   UNL     1       3.852   6.562  17.385  0.00  0.00    +0.000 OA
ENDROOT
BRANCH   2   4
ATOM      4  C   UNL     1       2.327   7.557  18.782  0.00  0.00    +0.000 A 
ATOM      5  C   UNL     1       2.167   8.701  18.009  0.00  0.00    +0.000 A 
ATOM      6  C   UNL     1       1.704   9.885  18.590  0.00  0.00    +0.000 A 
ATOM      7 CL   UNL     1       1.784  11.337  17.652  0.00  0.00    +0.000 Cl
ATOM      8  C   UNL     1       1.239   9.916  19.918  0.00  0.00    +0.000 A 
ATOM      9  C   UNL     1       1.243   8.703  20.630  0.00  0.00    +0.000 A 
ATOM     10 CL   UNL     1       0.625   8.628  22.244  0.00  0.00    +0.000 Cl
ATOM     11  C   UNL     1       1.777   7.541  20.074  0.00  0.00    +0.000 A 
BRANCH   8  12
ATOM     12  N   UNL     1       1.028  11.141  20.585  0.00  0.00    +0.000 N 
ATOM     13  H   UNL     1       1.859  11.523  21.028  0.00  0.00    +0.000 HD
ATOM     14  H   UNL     1       0.490  11.816  20.047  0.00  0.00    +0.000 HD
ENDBRANCH   8  12
ENDBRANCH   2   4
BRANCH   1  18
ATOM     15  C   UNL     1       6.292   4.729  17.228  0.00  0.00    +0.000 C 
ATOM     16  C   UNL     1       6.053   4.766  18.746  0.00  0.00    +0.000 C 
ATOM     17  C   UNL     1       5.060   3.724  19.233  0.00  0.00    +0.000 C 
ATOM     18  C   UNL     1       3.685   3.864  18.543  0.00  0.00    +0.000 C 
ATOM     19  C   UNL     1       3.955   3.633  17.043  0.00  0.00    +0.000 C 
ATOM     20  C   UNL     1       4.987   4.585  16.432  0.00  0.00    +0.000 C 
BRANCH  15  22
ATOM     21  N   UNL     1       6.957   7.032  17.754  0.00  0.00    +0.000 N 
ATOM     22  C   UNL     1       7.011   6.021  16.821  0.00  0.00    +0.000 C 
ATOM     23  O   UNL     1       7.607   6.150  15.754  0.00  0.00    +0.000 OA
ATOM     24  H   UNL     1       6.200   7.043  18.426  0.00  0.00    +0.000 HD
BRANCH  21  25
ATOM     25  C   UNL     1       7.685   8.266  17.544  0.00  0.00    +0.000 C 
BRANCH  25  26
ATOM     26  C   UNL     1       8.547   8.658  18.754  0.00  0.00    +0.000 C 
BRANCH  26  28
ATOM     27  C   UNL     1       8.440  10.898  17.793  0.00  0.00    +0.000 C 
ATOM     28  N   UNL     1       9.214   9.976  18.627  0.00  0.00    +0.000 NA
ATOM     29  C   UNL     1       9.393  10.553  19.964  0.00  0.00    +0.000 C 
ENDBRANCH  26  28
ENDBRANCH  25  26
ENDBRANCH  21  25
ENDBRANCH  15  22
ENDBRANCH   1  18
BRANCH   1  30
ATOM     30  C   UNL     1       1.648   4.848  19.672  0.00  0.00    +0.000 C 
ATOM     31  C   UNL     1       0.935   3.545  19.898  0.00  0.00    +0.000 C 
ATOM     32  C   UNL     1       1.654   4.193  21.040  0.00  0.00    +0.000 C 
ENDBRANCH   1  30
TORSDOF 8
ENDMDL
MODEL 4
REMARK VINA RESULT:      -6.6      1.262      1.382
REMARK  Name = 
REMARK  10 active torsions:
REMARK  status: ('A' for Active; 'I' for Inactive)
REMARK    1  A    between atoms: C_1  and  N_2
REMARK    2  A    between atoms: N_2  and  C_3
REMARK    3  A    between atoms: N_2  and  C_4
REMARK    4  A    between atoms: C_4  and  C_5
REMARK    5  A    between atoms: C_5  and  N_6
REMARK    6  A    between atoms: C_7  and  C_9
REMARK    7  A    between atoms: C_12  and  N_13
REMARK    8  A    between atoms: N_13  and  C_25
REMARK    9  A    between atoms: C_14  and  C_16
REMARK   10  A    between atoms: C_20  and  N_21
REMARK                            x       y       z     vdW  Elec       q    Type
REMARK                         _______ _______ _______ _____ _____    ______ ____
ROOT
ATOM      1  N   UNL     1       2.977   5.207  19.299  0.00  0.00    +0.000 N 
ATOM      2  C   UNL     1       3.016   6.461  18.623  0.00  0.00    +0.000 C 
ATOM      3  O   UNL     1       3.502   6.643  17.509  0.00  0.00    +0.000 OA
ENDROOT
BRANCH   2   4
ATOM      4  C   UNL     1       2.336   7.667  19.201  0.00  0.00    +0.000 A 
ATOM      5  C   UNL     1       1.619   7.656  20.391  0.00  0.00    +0.000 A 
ATOM      6  C   UNL     1       0.751   8.707  20.700  0.00  0.00    +0.000 A 
ATOM      7 CL   UNL     1      -0.313   8.514  22.051  0.00  0.00    +0.000 Cl
ATOM      8  C   UNL     1       0.698   9.869  19.908  0.00  0.00    +0.000 A 
ATOM      9  C   UNL     1       1.564   9.936  18.803  0.00  0.00    +0.000 A 
ATOM     10 CL   UNL     1       1.621  11.353  17.812  0.00  0.00    +0.000 Cl
ATOM     11  C   UNL     1       2.372   8.855  18.452  0.00  0.00    +0.000 A 
BRANCH   8  12
ATOM     12  N   UNL     1      -0.350  10.802  20.058  0.00  0.00    +0.000 N 
ATOM     13  H   UNL     1      -0.042  11.742  20.292  0.00  0.00    +0.000 HD
ATOM     14  H   UNL     1      -1.047  10.761  19.319  0.00  0.00    +0.000 HD
ENDBRANCH   8  12
ENDBRANCH   2   4
BRANCH   1  18
ATOM     15  C   UNL     1       6.146   4.792  17.220  0.00  0.00    +0.000 C 
ATOM     16  C   UNL     1       6.055   4.751  18.754  0.00  0.00    +0.000 C 
ATOM     17  C   UNL     1       5.061   3.729  19.280  0.00  0.00    +0.000 C 
ATOM     18  C   UNL     1       3.635   3.973  18.737  0.00  0.00    +0.000 C 
ATOM     19  C   UNL     1       3.748   3.819  17.207  0.00  0.00    +0.000 C 
ATOM     20  C   UNL     1       4.765   4.756  16.550  0.00  0.00    +0.000 C 
BRANCH  15  22
ATOM     21  N   UNL     1       6.750   7.123  17.691  0.00  0.00    +0.000 N 
ATOM     22  C   UNL     1       6.889   6.071  16.815  0.00  0.00    +0.000 C 
ATOM     23  O   UNL     1       7.571   6.156  15.797  0.00  0.00    +0.000 OA
ATOM     24  H   UNL     1       5.940   7.158  18.297  0.00  0.00    +0.000 HD
BRANCH  21  25
ATOM     25  C   UNL     1       7.486   8.354  17.485  0.00  0.00    +0.000 C 
BRANCH  25  26
ATOM     26  C   UNL     1       8.497   8.634  18.608  0.00  0.00    +0.000 C 
BRANCH  26  28
ATOM     27  C   UNL     1       8.360  10.913  17.750  0.00  0.00    +0.000 C 
ATOM     28  N   UNL     1       9.162   9.956  18.515  0.00  0.00    +0.000 NA
ATOM     29  C   UNL     1       9.388  10.475  19.869  0.00  0.00    +0.000 C 
ENDBRANCH  26  28
ENDBRANCH  25  26
ENDBRANCH  21  25
ENDBRANCH  15  22
ENDBRANCH   1  18
BRANCH   1  30
ATOM     30  C   UNL     1       1.909   4.978  20.288  0.00  0.00    +0.000 C 
ATOM     31  C   UNL     1       0.913   3.855  20.347  0.00  0.00    +0.000 C 
ATOM     32  C   UNL     1       2.053   3.875  21.317  0.00  0.00    +0.000 C 
ENDBRANCH   1  30
TORSDOF 8
ENDMDL
MODEL 5
REMARK VINA RESULT:      -6.4      0.868      1.035
REMARK  Name = 
REMARK  10 active torsions:
REMARK  status: ('A' for Active; 'I' for Inactive)
REMARK    1  A    between atoms: C_1  and  N_2
REMARK    2  A    between atoms: N_2  and  C_3
REMARK    3  A    between atoms: N_2  and  C_4
REMARK    4  A    between atoms: C_4  and  C_5
REMARK    5  A    between atoms: C_5  and  N_6
REMARK    6  A    between atoms: C_7  and  C_9
REMARK    7  A    between atoms: C_12  and  N_13
REMARK    8  A    between atoms: N_13  and  C_25
REMARK    9  A    between atoms: C_14  and  C_16
REMARK   10  A    between atoms: C_20  and  N_21
REMARK                            x       y       z     vdW  Elec       q    Type
REMARK                         _______ _______ _______ _____ _____    ______ ____
ROOT
ATOM      1  N   UNL     1       2.769   5.979  18.769  0.00  0.00    +0.000 N 
ATOM      2  C   UNL     1       2.690   7.331  18.324  0.00  0.00    +0.000 C 
ATOM      3  O   UNL     1       3.054   7.727  17.219  0.00  0.00    +0.000 OA
ENDROOT
BRANCH   2   4
ATOM      4  C   UNL     1       2.026   8.379  19.165  0.00  0.00    +0.000 A 
ATOM      5  C   UNL     1       1.522   8.145  20.439  0.00  0.00    +0.000 A 
ATOM      6  C   UNL     1       0.641   9.058  21.026  0.00  0.00    +0.000 A 
ATOM      7 CL   UNL     1      -0.163   8.589  22.486  0.00  0.00    +0.000 Cl
ATOM      8  C   UNL     1       0.366  10.301  20.425  0.00  0.00    +0.000 A 
ATOM      9  C   UNL     1       1.027  10.593  19.219  0.00  0.00    +0.000 A 
ATOM     10 CL   UNL     1       0.807  12.124  18.443  0.00  0.00    +0.000 Cl
ATOM     11  C   UNL     1       1.845   9.650  18.597  0.00  0.00    +0.000 A 
BRANCH   8  12
ATOM     12  N   UNL     1      -0.710  11.098  20.867  0.00  0.00    +0.000 N 
ATOM     13  H   UNL     1      -0.826  11.121  21.877  0.00  0.00    +0.000 HD
ATOM     14  H   UNL     1      -0.760  12.010  20.419  0.00  0.00    +0.000 HD
ENDBRANCH   8  12
ENDBRANCH   2   4
BRANCH   1  18
ATOM     15  C   UNL     1       6.440   5.202  18.093  0.00  0.00    +0.000 C 
ATOM     16  C   UNL     1       5.585   4.623  19.232  0.00  0.00    +0.000 C 
ATOM     17  C   UNL     1       4.312   3.943  18.755  0.00  0.00    +0.000 C 
ATOM     18  C   UNL     1       3.414   4.898  17.939  0.00  0.00    +0.000 C 
ATOM     19  C   UNL     1       4.255   5.302  16.712  0.00  0.00    +0.000 C 
ATOM     20  C   UNL     1       5.598   5.952  17.052  0.00  0.00    +0.000 C 
BRANCH  15  22
ATOM     21  N   UNL     1       7.695   7.308  17.994  0.00  0.00    +0.000 N 
ATOM     22  C   UNL     1       7.479   6.149  18.705  0.00  0.00    +0.000 C 
ATOM     23  O   UNL     1       8.069   5.910  19.755  0.00  0.00    +0.000 OA
ATOM     24  H   UNL     1       7.490   7.325  17.003  0.00  0.00    +0.000 HD
BRANCH  21  25
ATOM     25  C   UNL     1       8.570   8.338  18.515  0.00  0.00    +0.000 C 
BRANCH  25  26
ATOM     26  C   UNL     1       8.282   9.721  17.911  0.00  0.00    +0.000 C 
BRANCH  26  28
ATOM     27  C   UNL     1       9.367  10.475  19.961  0.00  0.00    +0.000 C 
ATOM     28  N   UNL     1       8.957  10.844  18.605  0.00  0.00    +0.000 NA
ATOM     29  C   UNL     1      10.134  11.249  17.828  0.00  0.00    +0.000 C 
ENDBRANCH  26  28
ENDBRANCH  25  26
ENDBRANCH  21  25
ENDBRANCH  15  22
ENDBRANCH   1  18
BRANCH   1  30
ATOM     30  C   UNL     1       1.817   5.524  19.797  0.00  0.00    +0.000 C 
ATOM     31  C   UNL     1       1.292   4.138  20.040  0.00  0.00    +0.000 C 
ATOM     32  C   UNL     1       2.308   4.713  20.979  0.00  0.00    +0.000 C 
ENDBRANCH   1  30
TORSDOF 8
ENDMDL
MODEL 6
REMARK VINA RESULT:      -6.3      7.566     10.807
REMARK  Name = 
REMARK  10 active torsions:
REMARK  status: ('A' for Active; 'I' for Inactive)
REMARK    1  A    between atoms: C_1  and  N_2
REMARK    2  A    between atoms: N_2  and  C_3
REMARK    3  A    between atoms: N_2  and  C_4
REMARK    4  A    between atoms: C_4  and  C_5
REMARK    5  A    between atoms: C_5  and  N_6
REMARK    6  A    between atoms: C_7  and  C_9
REMARK    7  A    between atoms: C_12  and  N_13
REMARK    8  A    between atoms: N_13  and  C_25
REMARK    9  A    between atoms: C_14  and  C_16
REMARK   10  A    between atoms: C_20  and  N_21
REMARK                            x       y       z     vdW  Elec       q    Type
REMARK                         _______ _______ _______ _____ _____    ______ ____
ROOT
ATOM      1  N   UNL     1      -0.594  13.245  21.116  0.00  0.00    +0.000 N 
ATOM      2  C   UNL     1      -1.112  12.637  22.296  0.00  0.00    +0.000 C 
ATOM      3  O   UNL     1      -0.792  11.526  22.711  0.00  0.00    +0.000 OA
ENDROOT
BRANCH   2   4
ATOM      4  C   UNL     1      -2.033  13.392  23.208  0.00  0.00    +0.000 A 
ATOM      5  C   UNL     1      -3.419  13.363  23.108  0.00  0.00    +0.000 A 
ATOM      6  C   UNL     1      -4.193  14.325  23.762  0.00  0.00    +0.000 A 
ATOM      7 CL   UNL     1      -5.880  14.406  23.385  0.00  0.00    +0.000 Cl
ATOM      8  C   UNL     1      -3.616  15.242  24.660  0.00  0.00    +0.000 A 
ATOM      9  C   UNL     1      -2.231  15.140  24.883  0.00  0.00    +0.000 A 
ATOM     10 CL   UNL     1      -1.444  16.179  26.022  0.00  0.00    +0.000 Cl
ATOM     11  C   UNL     1      -1.450  14.231  24.172  0.00  0.00    +0.000 A 
BRANCH   8  12
ATOM     12  N   UNL     1      -4.335  16.369  25.109  0.00  0.00    +0.000 N 
ATOM     13  H   UNL     1      -5.197  16.146  25.600  0.00  0.00    +0.000 HD
ATOM     14  H   UNL     1      -3.760  17.071  25.568  0.00  0.00    +0.000 HD
ENDBRANCH   8  12
ENDBRANCH   2   4
BRANCH   1  18
ATOM     15  C   UNL     1      -1.283  10.995  18.115  0.00  0.00    +0.000 C 
ATOM     16  C   UNL     1      -1.071  12.517  18.078  0.00  0.00    +0.000 C 
ATOM     17  C   UNL     1       0.234  12.968  18.715  0.00  0.00    +0.000 C 
ATOM     18  C   UNL     1       0.347  12.519  20.188  0.00  0.00    +0.000 C 
ATOM     19  C   UNL     1       0.316  10.978  20.150  0.00  0.00    +0.000 C 
ATOM     20  C   UNL     1      -0.927  10.387  19.479  0.00  0.00    +0.000 C 
BRANCH  15  22
ATOM     21  N   UNL     1      -3.509  11.816  17.490  0.00  0.00    +0.000 N 
ATOM     22  C   UNL     1      -2.751  10.705  17.781  0.00  0.00    +0.000 C 
ATOM     23  O   UNL     1      -3.221   9.570  17.758  0.00  0.00    +0.000 OA
ATOM     24  H   UNL     1      -3.223  12.718  17.849  0.00  0.00    +0.000 HD
BRANCH  21  25
ATOM     25  C   UNL     1      -4.883  11.674  17.053  0.00  0.00    +0.000 C 
BRANCH  25  26
ATOM     26  C   UNL     1      -5.846  12.591  17.824  0.00  0.00    +0.000 C 
BRANCH  26  28
ATOM     27  C   UNL     1      -6.621  10.453  18.707  0.00  0.00    +0.000 C 
ATOM     28  N   UNL     1      -6.620  11.906  18.887  0.00  0.00    +0.000 NA
ATOM     29  C   UNL     1      -6.038  12.240  20.193  0.00  0.00    +0.000 C 
ENDBRANCH  26  28
ENDBRANCH  25  26
ENDBRANCH  21  25
ENDBRANCH  15  22
ENDBRANCH   1  18
BRANCH   1  30
ATOM     30  C   UNL     1      -0.576  14.715  21.036  0.00  0.00    +0.000 C 
ATOM     31  C   UNL     1      -0.439  15.586  19.820  0.00  0.00    +0.000 C 
ATOM     32  C   UNL     1      -1.775  15.459  20.484  0.00  0.00    +0.000 C 
ENDBRANCH   1  30
TORSDOF 8
ENDMDL
MODEL 7
REMARK VINA RESULT:      -5.9      1.206      2.130
REMARK  Name = 
REMARK  10 active torsions:
REMARK  status: ('A' for Active; 'I' for Inactive)
REMARK    1  A    between atoms: C_1  and  N_2
REMARK    2  A    between atoms: N_2  and  C_3
REMARK    3  A    between atoms: N_2  and  C_4
REMARK    4  A    between atoms: C_4  and  C_5
REMARK    5  A    between atoms: C_5  and  N_6
REMARK    6  A    between atoms: C_7  and  C_9
REMARK    7  A    between atoms: C_12  and  N_13
REMARK    8  A    between atoms: N_13  and  C_25
REMARK    9  A    between atoms: C_14  and  C_16
REMARK   10  A    between atoms: C_20  and  N_21
REMARK                            x       y       z     vdW  Elec       q    Type
REMARK                         _______ _______ _______ _____ _____    ______ ____
ROOT
ATOM      1  N   UNL     1       2.818   5.457  19.287  0.00  0.00    +0.000 N 
ATOM      2  C   UNL     1       2.792   6.782  18.762  0.00  0.00    +0.000 C 
ATOM      3  O   UNL     1       3.415   7.156  17.771  0.00  0.00    +0.000 OA
ENDROOT
BRANCH   2   4
ATOM      4  C   UNL     1       1.877   7.820  19.340  0.00  0.00    +0.000 A 
ATOM      5  C   UNL     1       1.164   8.736  18.576  0.00  0.00    +0.000 A 
ATOM      6  C   UNL     1       0.598   9.864  19.177  0.00  0.00    +0.000 A 
ATOM      7 CL   UNL     1      -0.038  11.102  18.147  0.00  0.00    +0.000 Cl
ATOM      8  C   UNL     1       0.591  10.023  20.575  0.00  0.00    +0.000 A 
ATOM      9  C   UNL     1       1.162   8.994  21.343  0.00  0.00    +0.000 A 
ATOM     10 CL   UNL     1       1.138   9.068  23.072  0.00  0.00    +0.000 Cl
ATOM     11  C   UNL     1       1.795   7.908  20.739  0.00  0.00    +0.000 A 
BRANCH   8  12
ATOM     12  N   UNL     1       0.267  11.264  21.163  0.00  0.00    +0.000 N 
ATOM     13  H   UNL     1       0.089  11.219  22.162  0.00  0.00    +0.000 HD
ATOM     14  H   UNL     1       0.878  12.027  20.879  0.00  0.00    +0.000 HD
ENDBRANCH   8  12
ENDBRANCH   2   4
BRANCH   1  18
ATOM     15  C   UNL     1       6.204   5.696  17.551  0.00  0.00    +0.000 C 
ATOM     16  C   UNL     1       5.969   5.511  19.059  0.00  0.00    +0.000 C 
ATOM     17  C   UNL     1       5.099   4.312  19.398  0.00  0.00    +0.000 C 
ATOM     18  C   UNL     1       3.714   4.387  18.717  0.00  0.00    +0.000 C 
ATOM     19  C   UNL     1       4.002   4.383  17.203  0.00  0.00    +0.000 C 
ATOM     20  C   UNL     1       4.920   5.514  16.731  0.00  0.00    +0.000 C 
BRANCH  15  22
ATOM     21  N   UNL     1       7.861   7.420  18.106  0.00  0.00    +0.000 N 
ATOM     22  C   UNL     1       6.775   7.101  17.322  0.00  0.00    +0.000 C 
ATOM     23  O   UNL     1       6.316   7.884  16.494  0.00  0.00    +0.000 OA
ATOM     24  H   UNL     1       7.992   6.939  18.987  0.00  0.00    +0.000 HD
BRANCH  21  25
ATOM     25  C   UNL     1       8.562   8.672  17.915  0.00  0.00    +0.000 C 
BRANCH  25  26
ATOM     26  C   UNL     1       8.808   9.420  19.235  0.00  0.00    +0.000 C 
BRANCH  26  28
ATOM     27  C   UNL     1       9.162  11.559  18.116  0.00  0.00    +0.000 C 
ATOM     28  N   UNL     1       9.679  10.613  19.108  0.00  0.00    +0.000 NA
ATOM     29  C   UNL     1       9.779  11.275  20.414  0.00  0.00    +0.000 C 
ENDBRANCH  26  28
ENDBRANCH  25  26
ENDBRANCH  21  25
ENDBRANCH  15  22
ENDBRANCH   1  18
BRANCH   1  30
ATOM     30  C   UNL     1       1.651   4.985  20.052  0.00  0.00    +0.000 C 
ATOM     31  C   UNL     1       1.042   3.613  20.079  0.00  0.00    +0.000 C 
ATOM     32  C   UNL     1       1.848   4.079  21.251  0.00  0.00    +0.000 C 
ENDBRANCH   1  30
TORSDOF 8
ENDMDL
MODEL 8
REMARK VINA RESULT:      -5.9      3.277      4.986
REMARK  Name = 
REMARK  10 active torsions:
REMARK  status: ('A' for Active; 'I' for Inactive)
REMARK    1  A    between atoms: C_1  and  N_2
REMARK    2  A    between atoms: N_2  and  C_3
REMARK    3  A    between atoms: N_2  and  C_4
REMARK    4  A    between atoms: C_4  and  C_5
REMARK    5  A    between atoms: C_5  and  N_6
REMARK    6  A    between atoms: C_7  and  C_9
REMARK    7  A    between atoms: C_12  and  N_13
REMARK    8  A    between atoms: N_13  and  C_25
REMARK    9  A    between atoms: C_14  and  C_16
REMARK   10  A    between atoms: C_20  and  N_21
REMARK                            x       y       z     vdW  Elec       q    Type
REMARK                         _______ _______ _______ _____ _____    ______ ____
ROOT
ATOM      1  N   UNL     1       2.891   4.479  19.482  0.00  0.00    +0.000 N 
ATOM      2  C   UNL     1       3.373   5.820  19.520  0.00  0.00    +0.000 C 
ATOM      3  O   UNL     1       4.554   6.143  19.419  0.00  0.00    +0.000 OA
ENDROOT
BRANCH   2   4
ATOM      4  C   UNL     1       2.421   6.977  19.572  0.00  0.00    +0.000 A 
ATOM      5  C   UNL     1       2.282   7.913  18.554  0.00  0.00    +0.000 A 
ATOM      6  C   UNL     1       1.633   9.126  18.797  0.00  0.00    +0.000 A 
ATOM      7 CL   UNL     1       1.727  10.357  17.583  0.00  0.00    +0.000 Cl
ATOM      8  C   UNL     1       0.967   9.370  20.012  0.00  0.00    +0.000 A 
ATOM      9  C   UNL     1       0.969   8.337  20.966  0.00  0.00    +0.000 A 
ATOM     10 CL   UNL     1       0.118   8.518  22.462  0.00  0.00    +0.000 Cl
ATOM     11  C   UNL     1       1.683   7.159  20.753  0.00  0.00    +0.000 A 
BRANCH   8  12
ATOM     12  N   UNL     1       0.548  10.671  20.362  0.00  0.00    +0.000 N 
ATOM     13  H   UNL     1       0.438  10.820  21.361  0.00  0.00    +0.000 HD
ATOM     14  H   UNL     1       1.053  11.411  19.881  0.00  0.00    +0.000 HD
ENDBRANCH   8  12
ENDBRANCH   2   4
BRANCH   1  18
ATOM     15  C   UNL     1       5.507   3.505  16.884  0.00  0.00    +0.000 C 
ATOM     16  C   UNL     1       5.749   4.358  18.140  0.00  0.00    +0.000 C 
ATOM     17  C   UNL     1       5.317   3.680  19.431  0.00  0.00    +0.000 C 
ATOM     18  C   UNL     1       3.821   3.295  19.412  0.00  0.00    +0.000 C 
ATOM     19  C   UNL     1       3.671   2.296  18.247  0.00  0.00    +0.000 C 
ATOM     20  C   UNL     1       4.127   2.833  16.889  0.00  0.00    +0.000 C 
BRANCH  15  22
ATOM     21  N   UNL     1       6.471   3.928  14.667  0.00  0.00    +0.000 N 
ATOM     22  C   UNL     1       5.642   4.411  15.654  0.00  0.00    +0.000 C 
ATOM     23  O   UNL     1       5.048   5.481  15.540  0.00  0.00    +0.000 OA
ATOM     24  H   UNL     1       7.196   3.266  14.912  0.00  0.00    +0.000 HD
BRANCH  21  25
ATOM     25  C   UNL     1       6.603   4.631  13.408  0.00  0.00    +0.000 C 
BRANCH  25  26
ATOM     26  C   UNL     1       6.657   3.680  12.202  0.00  0.00    +0.000 C 
BRANCH  26  28
ATOM     27  C   UNL     1       4.360   3.322  11.464  0.00  0.00    +0.000 C 
ATOM     28  N   UNL     1       5.524   2.727  12.124  0.00  0.00    +0.000 NA
ATOM     29  C   UNL     1       5.951   1.533  11.386  0.00  0.00    +0.000 C 
ENDBRANCH  26  28
ENDBRANCH  25  26
ENDBRANCH  21  25
ENDBRANCH  15  22
ENDBRANCH   1  18
BRANCH   1  30
ATOM     30  C   UNL     1       1.510   4.245  19.028  0.00  0.00    +0.000 C 
ATOM     31  C   UNL     1       0.809   2.937  18.794  0.00  0.00    +0.000 C 
ATOM     32  C   UNL     1       0.465   3.746  20.006  0.00  0.00    +0.000 C 
ENDBRANCH   1  30
TORSDOF 8
ENDMDL
MODEL 9
REMARK VINA RESULT:      -5.9      4.192      9.475
REMARK  Name = 
REMARK  10 active torsions:
REMARK  status: ('A' for Active; 'I' for Inactive)
REMARK    1  A    between atoms: C_1  and  N_2
REMARK    2  A    between atoms: N_2  and  C_3
REMARK    3  A    between atoms: N_2  and  C_4
REMARK    4  A    between atoms: C_4  and  C_5
REMARK    5  A    between atoms: C_5  and  N_6
REMARK    6  A    between atoms: C_7  and  C_9
REMARK    7  A    between atoms: C_12  and  N_13
REMARK    8  A    between atoms: N_13  and  C_25
REMARK    9  A    between atoms: C_14  and  C_16
REMARK   10  A    between atoms: C_20  and  N_21
REMARK                            x       y       z     vdW  Elec       q    Type
REMARK                         _______ _______ _______ _____ _____    ______ ____
ROOT
ATOM      1  N   UNL     1       1.082  10.218  20.144  0.00  0.00    +0.000 N 
ATOM      2  C   UNL     1       1.774   9.769  18.982  0.00  0.00    +0.000 C 
ATOM      3  O   UNL     1       2.214  10.503  18.100  0.00  0.00    +0.000 OA
ENDROOT
BRANCH   2   4
ATOM      4  C   UNL     1       2.127   8.321  18.810  0.00  0.00    +0.000 A 
ATOM      5  C   UNL     1       1.684   7.311  19.654  0.00  0.00    +0.000 A 
ATOM      6  C   UNL     1       2.301   6.056  19.636  0.00  0.00    +0.000 A 
ATOM      7 CL   UNL     1       1.895   4.931  20.886  0.00  0.00    +0.000 Cl
ATOM      8  C   UNL     1       3.268   5.730  18.666  0.00  0.00    +0.000 A 
ATOM      9  C   UNL     1       3.574   6.712  17.707  0.00  0.00    +0.000 A 
ATOM     10 CL   UNL     1       4.698   6.378  16.434  0.00  0.00    +0.000 Cl
ATOM     11  C   UNL     1       3.015   7.987  17.775  0.00  0.00    +0.000 A 
BRANCH   8  12
ATOM     12  N   UNL     1       4.076   4.582  18.804  0.00  0.00    +0.000 N 
ATOM     13  H   UNL     1       3.705   3.754  18.346  0.00  0.00    +0.000 HD
ATOM     14  H   UNL     1       5.064   4.750  18.632  0.00  0.00    +0.000 HD
ENDBRANCH   8  12
ENDBRANCH   2   4
BRANCH   1  18
ATOM     15  C   UNL     1      -1.988  12.221  19.094  0.00  0.00    +0.000 C 
ATOM     16  C   UNL     1      -1.805  11.471  20.424  0.00  0.00    +0.000 C 
ATOM     17  C   UNL     1      -0.556  11.878  21.188  0.00  0.00    +0.000 C 
ATOM     18  C   UNL     1       0.728  11.668  20.355  0.00  0.00    +0.000 C 
ATOM     19  C   UNL     1       0.573  12.585  19.125  0.00  0.00    +0.000 C 
ATOM     20  C   UNL     1      -0.683  12.319  18.292  0.00  0.00    +0.000 C 
BRANCH  15  22
ATOM     21  N   UNL     1      -4.193  12.216  18.017  0.00  0.00    +0.000 N 
ATOM     22  C   UNL     1      -3.053  11.487  18.270  0.00  0.00    +0.000 C 
ATOM     23  O   UNL     1      -2.905  10.342  17.849  0.00  0.00    +0.000 OA
ATOM     24  H   UNL     1      -4.443  12.974  18.640  0.00  0.00    +0.000 HD
BRANCH  21  25
ATOM     25  C   UNL     1      -5.232  11.683  17.160  0.00  0.00    +0.000 C 
BRANCH  25  26
ATOM     26  C   UNL     1      -6.610  12.300  17.446  0.00  0.00    +0.000 C 
BRANCH  26  28
ATOM     27  C   UNL     1      -6.816  10.324  18.861  0.00  0.00    +0.000 C 
ATOM     28  N   UNL     1      -7.351  11.652  18.554  0.00  0.00    +0.000 NA
ATOM     29  C   UNL     1      -7.270  12.503  19.747  0.00  0.00    +0.000 C 
ENDBRANCH  26  28
ENDBRANCH  25  26
ENDBRANCH  21  25
ENDBRANCH  15  22
ENDBRANCH   1  18
BRANCH   1  30
ATOM     30  C   UNL     1       1.130   9.381  21.355  0.00  0.00    +0.000 C 
ATOM     31  C   UNL     1       0.515   9.643  22.700  0.00  0.00    +0.000 C 
ATOM     32  C   UNL     1      -0.103   8.619  21.799  0.00  0.00    +0.000 C 
ENDBRANCH   1  30
TORSDOF 8
ENDMDL
