MODEL 1
REMARK VINA RESULT:      -8.2      0.000      0.000
REMARK  Name = 
REMARK  10 active torsions:
REMARK  status: ('A' for Active; 'I' for Inactive)
REMARK    1  A    between atoms: C_1  and  O_2
REMARK    2  A    between atoms: O_2  and  C_3
REMARK    3  A    between atoms: C_5  and  C_6
REMARK    4  A    between atoms: N_8  and  C_9
REMARK    5  A    between atoms: C_12  and  N_13
REMARK    6  A    between atoms: C_14  and  C_16
REMARK    7  A    between atoms: C_26  and  O_27
REMARK    8  A    between atoms: O_27  and  C_28
REMARK    9  A    between atoms: C_28  and  C_29
REMARK   10  A    between atoms: C_29  and  O_31
REMARK                            x       y       z     vdW  Elec       q    Type
REMARK                         _______ _______ _______ _____ _____    ______ ____
ROOT
ATOM      1  C   UNL     1       2.601   6.562  18.600  0.00  0.00    +0.000 C 
ATOM      2  O   UNL     1       2.041   5.807  19.387  0.00  0.00    +0.000 OA
ATOM      3  N   UNL     1       2.382   7.928  18.472  0.00  0.00    +0.000 N 
ATOM      4  H   UNL     1       2.732   8.388  17.642  0.00  0.00    +0.000 HD
ENDROOT
BRANCH   1   7
ATOM      5  C   UNL     1       5.764   5.958  16.579  0.00  0.00    +0.000 A 
ATOM      6  C   UNL     1       4.739   6.633  17.271  0.00  0.00    +0.000 A 
ATOM      7  C   UNL     1       3.590   5.949  17.673  0.00  0.00    +0.000 A 
ATOM      8  C   UNL     1       3.439   4.602  17.327  0.00  0.00    +0.000 A 
ATOM      9  C   UNL     1       4.407   3.960  16.551  0.00  0.00    +0.000 A 
ATOM     10  C   UNL     1       5.567   4.633  16.147  0.00  0.00    +0.000 A 
BRANCH   5  12
ATOM     11  C   UNL     1       7.599   7.136  17.507  0.00  0.00    +0.000 C 
ATOM     12  O   UNL     1       6.974   6.562  16.354  0.00  0.00    +0.000 OA
ENDBRANCH   5  12
BRANCH  10  13
ATOM     13  O   UNL     1       6.415   3.848  15.400  0.00  0.00    +0.000 OA
BRANCH  13  14
ATOM     14  C   UNL     1       6.773   4.329  14.101  0.00  0.00    +0.000 C 
BRANCH  14  15
ATOM     15  C   UNL     1       5.990   3.597  13.013  0.00  0.00    +0.000 C 
ATOM     16  O   UNL     1       4.785   3.704  12.852  0.00  0.00    +0.000 OA
BRANCH  15  17
ATOM     17  O   UNL     1       6.760   2.801  12.232  0.00  0.00    +0.000 OA
ATOM     18  H   UNL     1       7.390   2.294  12.788  0.00  0.00    +0.000 HD
ENDBRANCH  15  17
ENDBRANCH  14  15
ENDBRANCH  13  14
ENDBRANCH  10  13
ENDBRANCH   1   7
BRANCH   3  19
ATOM     19  C   UNL     1       1.564   8.702  19.329  0.00  0.00    +0.000 A 
ATOM     20  C   UNL     1       1.443   8.435  20.689  0.00  0.00    +0.000 A 
ATOM     21  C   UNL     1       0.624   9.214  21.508  0.00  0.00    +0.000 A 
ATOM     22  C   UNL     1      -0.102  10.287  20.998  0.00  0.00    +0.000 A 
ATOM     23  C   UNL     1       0.015  10.566  19.630  0.00  0.00    +0.000 A 
ATOM     24  C   UNL     1       0.855   9.791  18.805  0.00  0.00    +0.000 A 
BRANCH  22  25
ATOM     25  N   UNL     1      -0.952  11.090  21.798  0.00  0.00    +0.000 N 
ATOM     26  C   UNL     1      -0.679  12.386  22.222  0.00  0.00    +0.000 C 
ATOM     27  O   UNL     1       0.315  13.048  21.940  0.00  0.00    +0.000 OA
ATOM     28  H   UNL     1      -1.803  10.651  22.121  0.00  0.00    +0.000 HD
BRANCH  26  29
ATOM     29  C   UNL     1      -1.669  13.030  23.128  0.00  0.00    +0.000 A 
ATOM     30  C   UNL     1      -2.892  12.365  23.315  0.00  0.00    +0.000 A 
ATOM     31  C   UNL     1      -3.868  12.898  24.153  0.00  0.00    +0.000 A 
ATOM     32  C   UNL     1      -3.625  14.096  24.819  0.00  0.00    +0.000 A 
ATOM     33  C   UNL     1      -2.401  14.750  24.661  0.00  0.00    +0.000 A 
ATOM     34  C   UNL     1      -1.417  14.219  23.819  0.00  0.00    +0.000 A 
ENDBRANCH  26  29
ENDBRANCH  22  25
ENDBRANCH   3  19
TORSDOF 9
ENDMDL
MODEL 2
REMARK VINA RESULT:      -8.2      1.429      2.452
REMARK  Name = 
REMARK  10 active torsions:
REMARK  status: ('A' for Active; 'I' for Inactive)
REMARK    1  A    between atoms: C_1  and  O_2
REMARK    2  A    between atoms: O_2  and  C_3
REMARK    3  A    between atoms: C_5  and  C_6
REMARK    4  A    between atoms: N_8  and  C_9
REMARK    5  A    between atoms: C_12  and  N_13
REMARK    6  A    between atoms: C_14  and  C_16
REMARK    7  A    between atoms: C_26  and  O_27
REMARK    8  A    between atoms: O_27  and  C_28
REMARK    9  A    between atoms: C_28  and  C_29
REMARK   10  A    between atoms: C_29  and  O_31
REMARK                            x       y       z     vdW  Elec       q    Type
REMARK                         _______ _______ _______ _____ _____    ______ ____
ROOT
ATOM      1  C   UNL     1       2.106   6.528  19.839  0.00  0.00    +0.000 C 
ATOM      2  O   UNL     1       1.542   5.928  20.748  0.00  0.00    +0.000 OA
ATOM      3  N   UNL     1       1.951   7.871  19.519  0.00  0.00    +0.000 N 
ATOM      4  H   UNL     1       2.289   8.185  18.620  0.00  0.00    +0.000 HD
ENDROOT
BRANCH   1   7
ATOM      5  C   UNL     1       3.601   3.658  17.845  0.00  0.00    +0.000 A 
ATOM      6  C   UNL     1       2.870   4.352  18.828  0.00  0.00    +0.000 A 
ATOM      7  C   UNL     1       3.022   5.731  18.980  0.00  0.00    +0.000 A 
ATOM      8  C   UNL     1       3.956   6.408  18.188  0.00  0.00    +0.000 A 
ATOM      9  C   UNL     1       4.757   5.704  17.286  0.00  0.00    +0.000 A 
ATOM     10  C   UNL     1       4.609   4.322  17.119  0.00  0.00    +0.000 A 
BRANCH   5  12
ATOM     11  C   UNL     1       3.591   1.412  18.601  0.00  0.00    +0.000 C 
ATOM     12  O   UNL     1       3.319   2.349  17.552  0.00  0.00    +0.000 OA
ENDBRANCH   5  12
BRANCH  10  13
ATOM     13  O   UNL     1       5.469   3.795  16.183  0.00  0.00    +0.000 OA
BRANCH  13  14
ATOM     14  C   UNL     1       6.704   4.486  15.971  0.00  0.00    +0.000 C 
BRANCH  14  15
ATOM     15  C   UNL     1       7.026   4.584  14.481  0.00  0.00    +0.000 C 
ATOM     16  O   UNL     1       7.741   5.444  13.994  0.00  0.00    +0.000 OA
BRANCH  15  17
ATOM     17  O   UNL     1       6.434   3.620  13.734  0.00  0.00    +0.000 OA
ATOM     18  H   UNL     1       6.098   4.004  12.896  0.00  0.00    +0.000 HD
ENDBRANCH  15  17
ENDBRANCH  14  15
ENDBRANCH  13  14
ENDBRANCH  10  13
ENDBRANCH   1   7
BRANCH   3  19
ATOM     19  C   UNL     1       1.211   8.806  20.282  0.00  0.00    +0.000 A 
ATOM     20  C   UNL     1       1.225   8.816  21.672  0.00  0.00    +0.000 A 
ATOM     21  C   UNL     1       0.480   9.748  22.396  0.00  0.00    +0.000 A 
ATOM     22  C   UNL     1      -0.304  10.705  21.755  0.00  0.00    +0.000 A 
ATOM     23  C   UNL     1      -0.322  10.706  20.355  0.00  0.00    +0.000 A 
ATOM     24  C   UNL     1       0.444   9.775  19.622  0.00  0.00    +0.000 A 
BRANCH  22  25
ATOM     25  N   UNL     1      -1.081  11.658  22.459  0.00  0.00    +0.000 N 
ATOM     26  C   UNL     1      -0.712  12.973  22.716  0.00  0.00    +0.000 C 
ATOM     27  O   UNL     1       0.319  13.524  22.344  0.00  0.00    +0.000 OA
ATOM     28  H   UNL     1      -1.954  11.323  22.842  0.00  0.00    +0.000 HD
BRANCH  26  29
ATOM     29  C   UNL     1      -1.638  13.792  23.545  0.00  0.00    +0.000 A 
ATOM     30  C   UNL     1      -1.121  14.971  24.106  0.00  0.00    +0.000 A 
ATOM     31  C   UNL     1      -1.925  15.796  24.889  0.00  0.00    +0.000 A 
ATOM     32  C   UNL     1      -3.256  15.453  25.109  0.00  0.00    +0.000 A 
ATOM     33  C   UNL     1      -3.787  14.297  24.532  0.00  0.00    +0.000 A 
ATOM     34  C   UNL     1      -2.983  13.465  23.746  0.00  0.00    +0.000 A 
ENDBRANCH  26  29
ENDBRANCH  22  25
ENDBRANCH   3  19
TORSDOF 9
ENDMDL
MODEL 3
REMARK VINA RESULT:      -8.0      1.229      2.092
REMARK  Name = 
REMARK  10 active torsions:
REMARK  status: ('A' for Active; 'I' for Inactive)
REMARK    1  A    between atoms: C_1  and  O_2
REMARK    2  A    between atoms: O_2  and  C_3
REMARK    3  A    between atoms: C_5  and  C_6
REMARK    4  A    between atoms: N_8  and  C_9
REMARK    5  A    between atoms: C_12  and  N_13
REMARK    6  A    between atoms: C_14  and  C_16
REMARK    7  A    between atoms: C_26  and  O_27
REMARK    8  A    between atoms: O_27  and  C_28
REMARK    9  A    between atoms: C_28  and  C_29
REMARK   10  A    between atoms: C_29  and  O_31
REMARK                            x       y       z     vdW  Elec       q    Type
REMARK                         _______ _______ _______ _____ _____    ______ ____
ROOT
ATOM      1  C   UNL     1       2.334   6.378  19.433  0.00  0.00    +0.000 C 
ATOM      2  O   UNL     1       1.633   5.705  20.180  0.00  0.00    +0.000 OA
ATOM      3  N   UNL     1       2.275   7.756  19.268  0.00  0.00    +0.000 N 
ATOM      4  H   UNL     1       2.739   8.157  18.465  0.00  0.00    +0.000 HD
ENDROOT
BRANCH   1   7
ATOM      5  C   UNL     1       4.179   3.569  17.656  0.00  0.00    +0.000 A 
ATOM      6  C   UNL     1       3.394   4.248  18.608  0.00  0.00    +0.000 A 
ATOM      7  C   UNL     1       3.324   5.642  18.601  0.00  0.00    +0.000 A 
ATOM      8  C   UNL     1       4.092   6.361  17.680  0.00  0.00    +0.000 A 
ATOM      9  C   UNL     1       4.951   5.693  16.804  0.00  0.00    +0.000 A 
ATOM     10  C   UNL     1       5.025   4.295  16.795  0.00  0.00    +0.000 A 
BRANCH   5  12
ATOM     11  C   UNL     1       3.427   1.524  18.587  0.00  0.00    +0.000 C 
ATOM     12  O   UNL     1       4.102   2.206  17.524  0.00  0.00    +0.000 OA
ENDBRANCH   5  12
BRANCH  10  13
ATOM     13  O   UNL     1       5.912   3.806  15.864  0.00  0.00    +0.000 OA
BRANCH  13  14
ATOM     14  C   UNL     1       5.694   4.177  14.499  0.00  0.00    +0.000 C 
BRANCH  14  15
ATOM     15  C   UNL     1       6.959   4.777  13.888  0.00  0.00    +0.000 C 
ATOM     16  O   UNL     1       7.751   5.469  14.505  0.00  0.00    +0.000 OA
BRANCH  15  17
ATOM     17  O   UNL     1       7.125   4.473  12.578  0.00  0.00    +0.000 OA
ATOM     18  H   UNL     1       7.709   3.690  12.486  0.00  0.00    +0.000 HD
ENDBRANCH  15  17
ENDBRANCH  14  15
ENDBRANCH  13  14
ENDBRANCH  10  13
ENDBRANCH   1   7
BRANCH   3  19
ATOM     19  C   UNL     1       1.477   8.632  20.043  0.00  0.00    +0.000 A 
ATOM     20  C   UNL     1       1.457   8.592  21.433  0.00  0.00    +0.000 A 
ATOM     21  C   UNL     1       0.656   9.465  22.169  0.00  0.00    +0.000 A 
ATOM     22  C   UNL     1      -0.153  10.411  21.543  0.00  0.00    +0.000 A 
ATOM     23  C   UNL     1      -0.137  10.461  20.143  0.00  0.00    +0.000 A 
ATOM     24  C   UNL     1       0.685   9.590  19.399  0.00  0.00    +0.000 A 
BRANCH  22  25
ATOM     25  N   UNL     1      -0.987  11.305  22.259  0.00  0.00    +0.000 N 
ATOM     26  C   UNL     1      -0.722  12.649  22.493  0.00  0.00    +0.000 C 
ATOM     27  O   UNL     1       0.250  13.279  22.087  0.00  0.00    +0.000 OA
ATOM     28  H   UNL     1      -1.818  10.903  22.670  0.00  0.00    +0.000 HD
BRANCH  26  29
ATOM     29  C   UNL     1      -1.689  13.398  23.341  0.00  0.00    +0.000 A 
ATOM     30  C   UNL     1      -2.959  12.826  23.519  0.00  0.00    +0.000 A 
ATOM     31  C   UNL     1      -3.919  13.460  24.304  0.00  0.00    +0.000 A 
ATOM     32  C   UNL     1      -3.613  14.667  24.926  0.00  0.00    +0.000 A 
ATOM     33  C   UNL     1      -2.343  15.230  24.777  0.00  0.00    +0.000 A 
ATOM     34  C   UNL     1      -1.376  14.597  23.988  0.00  0.00    +0.000 A 
ENDBRANCH  26  29
ENDBRANCH  22  25
ENDBRANCH   3  19
TORSDOF 9
ENDMDL
MODEL 4
REMARK VINA RESULT:      -8.0      1.588      1.883
REMARK  Name = 
REMARK  10 active torsions:
REMARK  status: ('A' for Active; 'I' for Inactive)
REMARK    1  A    between atoms: C_1  and  O_2
REMARK    2  A    between atoms: O_2  and  C_3
REMARK    3  A    between atoms: C_5  and  C_6
REMARK    4  A    between atoms: N_8  and  C_9
REMARK    5  A    between atoms: C_12  and  N_13
REMARK    6  A    between atoms: C_14  and  C_16
REMARK    7  A    between atoms: C_26  and  O_27
REMARK    8  A    between atoms: O_27  and  C_28
REMARK    9  A    between atoms: C_28  and  C_29
REMARK   10  A    between atoms: C_29  and  O_31
REMARK                            x       y       z     vdW  Elec       q    Type
REMARK                         _______ _______ _______ _____ _____    ______ ____
ROOT
ATOM      1  C   UNL     1       2.171   6.610  19.926  0.00  0.00    +0.000 C 
ATOM      2  O   UNL     1       1.662   6.032  20.880  0.00  0.00    +0.000 OA
ATOM      3  N   UNL     1       1.951   7.929  19.551  0.00  0.00    +0.000 N 
ATOM      4  H   UNL     1       2.246   8.214  18.626  0.00  0.00    +0.000 HD
ENDROOT
BRANCH   1   7
ATOM      5  C   UNL     1       5.251   4.760  18.684  0.00  0.00    +0.000 A 
ATOM      6  C   UNL     1       4.449   5.693  19.370  0.00  0.00    +0.000 A 
ATOM      7  C   UNL     1       3.091   5.811  19.073  0.00  0.00    +0.000 A 
ATOM      8  C   UNL     1       2.546   5.037  18.042  0.00  0.00    +0.000 A 
ATOM      9  C   UNL     1       3.362   4.187  17.292  0.00  0.00    +0.000 A 
ATOM     10  C   UNL     1       4.725   4.055  17.584  0.00  0.00    +0.000 A 
BRANCH   5  12
ATOM     11  C   UNL     1       7.322   5.644  19.421  0.00  0.00    +0.000 C 
ATOM     12  O   UNL     1       6.531   4.495  19.098  0.00  0.00    +0.000 OA
ENDBRANCH   5  12
BRANCH  10  13
ATOM     13  O   UNL     1       5.373   3.169  16.755  0.00  0.00    +0.000 OA
BRANCH  13  14
ATOM     14  C   UNL     1       5.693   3.626  15.437  0.00  0.00    +0.000 C 
BRANCH  14  15
ATOM     15  C   UNL     1       6.819   4.658  15.475  0.00  0.00    +0.000 C 
ATOM     16  O   UNL     1       7.884   4.483  16.044  0.00  0.00    +0.000 OA
BRANCH  15  17
ATOM     17  O   UNL     1       6.526   5.804  14.814  0.00  0.00    +0.000 OA
ATOM     18  H   UNL     1       6.678   5.685  13.852  0.00  0.00    +0.000 HD
ENDBRANCH  15  17
ENDBRANCH  14  15
ENDBRANCH  13  14
ENDBRANCH  10  13
ENDBRANCH   1   7
BRANCH   3  19
ATOM     19  C   UNL     1       1.199   8.870  20.294  0.00  0.00    +0.000 A 
ATOM     20  C   UNL     1       1.080   8.805  21.678  0.00  0.00    +0.000 A 
ATOM     21  C   UNL     1       0.326   9.745  22.383  0.00  0.00    +0.000 A 
ATOM     22  C   UNL     1      -0.335  10.783  21.730  0.00  0.00    +0.000 A 
ATOM     23  C   UNL     1      -0.218  10.858  20.336  0.00  0.00    +0.000 A 
ATOM     24  C   UNL     1       0.557   9.920  19.625  0.00  0.00    +0.000 A 
BRANCH  22  25
ATOM     25  N   UNL     1      -1.117  11.746  22.413  0.00  0.00    +0.000 N 
ATOM     26  C   UNL     1      -0.725  13.046  22.710  0.00  0.00    +0.000 C 
ATOM     27  O   UNL     1       0.338  13.573  22.396  0.00  0.00    +0.000 OA
ATOM     28  H   UNL     1      -2.016  11.430  22.750  0.00  0.00    +0.000 HD
BRANCH  26  29
ATOM     29  C   UNL     1      -1.666  13.877  23.509  0.00  0.00    +0.000 A 
ATOM     30  C   UNL     1      -3.031  13.559  23.423  0.00  0.00    +0.000 A 
ATOM     31  C   UNL     1      -3.976  14.285  24.146  0.00  0.00    +0.000 A 
ATOM     32  C   UNL     1      -3.560  15.327  24.970  0.00  0.00    +0.000 A 
ATOM     33  C   UNL     1      -2.202  15.632  25.083  0.00  0.00    +0.000 A 
ATOM     34  C   UNL     1      -1.250  14.907  24.358  0.00  0.00    +0.000 A 
ENDBRANCH  26  29
ENDBRANCH  22  25
ENDBRANCH   3  19
TORSDOF 9
ENDMDL
MODEL 5
REMARK VINA RESULT:      -8.0      0.529      1.009
REMARK  Name = 
REMARK  10 active torsions:
REMARK  status: ('A' for Active; 'I' for Inactive)
REMARK    1  A    between atoms: C_1  and  O_2
REMARK    2  A    between atoms: O_2  and  C_3
REMARK    3  A    between atoms: C_5  and  C_6
REMARK    4  A    between atoms: N_8  and  C_9
REMARK    5  A    between atoms: C_12  and  N_13
REMARK    6  A    between atoms: C_14  and  C_16
REMARK    7  A    between atoms: C_26  and  O_27
REMARK    8  A    between atoms: O_27  and  C_28
REMARK    9  A    between atoms: C_28  and  C_29
REMARK   10  A    between atoms: C_29  and  O_31
REMARK                            x       y       z     vdW  Elec       q    Type
REMARK                         _______ _______ _______ _____ _____    ______ ____
ROOT
ATOM      1  C   UNL     1       2.942   6.816  18.519  0.00  0.00    +0.000 C 
ATOM      2  O   UNL     1       2.520   6.100  19.420  0.00  0.00    +0.000 OA
ATOM      3  N   UNL     1       2.526   8.111  18.234  0.00  0.00    +0.000 N 
ATOM      4  H   UNL     1       2.781   8.504  17.338  0.00  0.00    +0.000 HD
ENDROOT
BRANCH   1   7
ATOM      5  C   UNL     1       6.246   6.202  16.742  0.00  0.00    +0.000 A 
ATOM      6  C   UNL     1       5.198   6.873  17.402  0.00  0.00    +0.000 A 
ATOM      7  C   UNL     1       3.980   6.230  17.628  0.00  0.00    +0.000 A 
ATOM      8  C   UNL     1       3.787   4.935  17.136  0.00  0.00    +0.000 A 
ATOM      9  C   UNL     1       4.788   4.309  16.389  0.00  0.00    +0.000 A 
ATOM     10  C   UNL     1       6.017   4.939  16.162  0.00  0.00    +0.000 A 
BRANCH   5  12
ATOM     11  C   UNL     1       7.706   7.908  17.497  0.00  0.00    +0.000 C 
ATOM     12  O   UNL     1       7.504   6.743  16.689  0.00  0.00    +0.000 OA
ENDBRANCH   5  12
BRANCH  10  13
ATOM     13  O   UNL     1       6.887   4.175  15.419  0.00  0.00    +0.000 OA
BRANCH  13  14
ATOM     14  C   UNL     1       7.313   4.709  14.161  0.00  0.00    +0.000 C 
BRANCH  14  15
ATOM     15  C   UNL     1       6.599   4.014  13.004  0.00  0.00    +0.000 C 
ATOM     16  O   UNL     1       5.533   3.430  13.113  0.00  0.00    +0.000 OA
BRANCH  15  17
ATOM     17  O   UNL     1       7.264   4.101  11.826  0.00  0.00    +0.000 OA
ATOM     18  H   UNL     1       6.631   4.263  11.094  0.00  0.00    +0.000 HD
ENDBRANCH  15  17
ENDBRANCH  14  15
ENDBRANCH  13  14
ENDBRANCH  10  13
ENDBRANCH   1   7
BRANCH   3  19
ATOM     19  C   UNL     1       1.633   8.869  19.028  0.00  0.00    +0.000 A 
ATOM     20  C   UNL     1       0.862   9.902  18.507  0.00  0.00    +0.000 A 
ATOM     21  C   UNL     1      -0.006  10.636  19.317  0.00  0.00    +0.000 A 
ATOM     22  C   UNL     1      -0.135  10.362  20.677  0.00  0.00    +0.000 A 
ATOM     23  C   UNL     1       0.635   9.321  21.210  0.00  0.00    +0.000 A 
ATOM     24  C   UNL     1       1.500   8.568  20.390  0.00  0.00    +0.000 A 
BRANCH  22  25
ATOM     25  N   UNL     1      -0.998  11.094  21.530  0.00  0.00    +0.000 N 
ATOM     26  C   UNL     1      -0.703  12.315  22.126  0.00  0.00    +0.000 C 
ATOM     27  O   UNL     1       0.328  12.964  21.978  0.00  0.00    +0.000 OA
ATOM     28  H   UNL     1      -1.880  10.654  21.753  0.00  0.00    +0.000 HD
BRANCH  26  29
ATOM     29  C   UNL     1      -1.716  12.882  23.056  0.00  0.00    +0.000 A 
ATOM     30  C   UNL     1      -2.844  12.092  23.332  0.00  0.00    +0.000 A 
ATOM     31  C   UNL     1      -3.835  12.548  24.198  0.00  0.00    +0.000 A 
ATOM     32  C   UNL     1      -3.700  13.793  24.805  0.00  0.00    +0.000 A 
ATOM     33  C   UNL     1      -2.568  14.574  24.559  0.00  0.00    +0.000 A 
ATOM     34  C   UNL     1      -1.571  14.121  23.688  0.00  0.00    +0.000 A 
ENDBRANCH  26  29
ENDBRANCH  22  25
ENDBRANCH   3  19
TORSDOF 9
ENDMDL
MODEL 6
REMARK VINA RESULT:      -8.0      1.619      2.771
REMARK  Name = 
REMARK  10 active torsions:
REMARK  status: ('A' for Active; 'I' for Inactive)
REMARK    1  A    between atoms: C_1  and  O_2
REMARK    2  A    between atoms: O_2  and  C_3
REMARK    3  A    between atoms: C_5  and  C_6
REMARK    4  A    between atoms: N_8  and  C_9
REMARK    5  A    between atoms: C_12  and  N_13
REMARK    6  A    between atoms: C_14  and  C_16
REMARK    7  A    between atoms: C_26  and  O_27
REMARK    8  A    between atoms: O_27  and  C_28
REMARK    9  A    between atoms: C_28  and  C_29
REMARK   10  A    between atoms: C_29  and  O_31
REMARK                            x       y       z     vdW  Elec       q    Type
REMARK                         _______ _______ _______ _____ _____    ______ ____
ROOT
ATOM      1  C   UNL     1       1.962   6.713  19.990  0.00  0.00    +0.000 C 
ATOM      2  O   UNL     1       1.347   6.150  20.889  0.00  0.00    +0.000 OA
ATOM      3  N   UNL     1       1.835   8.044  19.614  0.00  0.00    +0.000 N 
ATOM      4  H   UNL     1       2.221   8.324  18.723  0.00  0.00    +0.000 HD
ENDROOT
BRANCH   1   7
ATOM      5  C   UNL     1       3.910   3.724  18.677  0.00  0.00    +0.000 A 
ATOM      6  C   UNL     1       3.182   4.554  19.552  0.00  0.00    +0.000 A 
ATOM      7  C   UNL     1       2.916   5.881  19.208  0.00  0.00    +0.000 A 
ATOM      8  C   UNL     1       3.432   6.396  18.014  0.00  0.00    +0.000 A 
ATOM      9  C   UNL     1       4.242   5.603  17.197  0.00  0.00    +0.000 A 
ATOM     10  C   UNL     1       4.511   4.269  17.526  0.00  0.00    +0.000 A 
BRANCH   5  12
ATOM     11  C   UNL     1       4.568   2.008  20.174  0.00  0.00    +0.000 C 
ATOM     12  O   UNL     1       4.008   2.376  18.908  0.00  0.00    +0.000 OA
ENDBRANCH   5  12
BRANCH  10  13
ATOM     13  O   UNL     1       5.314   3.636  16.606  0.00  0.00    +0.000 OA
BRANCH  13  14
ATOM     14  C   UNL     1       5.725   4.397  15.467  0.00  0.00    +0.000 C 
BRANCH  14  15
ATOM     15  C   UNL     1       7.208   4.754  15.555  0.00  0.00    +0.000 C 
ATOM     16  O   UNL     1       7.917   4.488  16.512  0.00  0.00    +0.000 OA
BRANCH  15  17
ATOM     17  O   UNL     1       7.675   5.406  14.463  0.00  0.00    +0.000 OA
ATOM     18  H   UNL     1       8.259   6.145  14.737  0.00  0.00    +0.000 HD
ENDBRANCH  15  17
ENDBRANCH  14  15
ENDBRANCH  13  14
ENDBRANCH  10  13
ENDBRANCH   1   7
BRANCH   3  19
ATOM     19  C   UNL     1       1.063   9.011  20.303  0.00  0.00    +0.000 A 
ATOM     20  C   UNL     1       0.249   9.925  19.643  0.00  0.00    +0.000 A 
ATOM     21  C   UNL     1      -0.496  10.870  20.350  0.00  0.00    +0.000 A 
ATOM     22  C   UNL     1      -0.454  10.935  21.741  0.00  0.00    +0.000 A 
ATOM     23  C   UNL     1       0.362  10.017  22.414  0.00  0.00    +0.000 A 
ATOM     24  C   UNL     1       1.102   9.051  21.702  0.00  0.00    +0.000 A 
BRANCH  22  25
ATOM     25  N   UNL     1      -1.187  11.889  22.489  0.00  0.00    +0.000 N 
ATOM     26  C   UNL     1      -0.775  13.185  22.774  0.00  0.00    +0.000 C 
ATOM     27  O   UNL     1       0.263  13.717  22.394  0.00  0.00    +0.000 OA
ATOM     28  H   UNL     1      -2.061  11.568  22.882  0.00  0.00    +0.000 HD
BRANCH  26  29
ATOM     29  C   UNL     1      -1.659  14.005  23.647  0.00  0.00    +0.000 A 
ATOM     30  C   UNL     1      -1.038  14.964  24.464  0.00  0.00    +0.000 A 
ATOM     31  C   UNL     1      -1.795  15.778  25.305  0.00  0.00    +0.000 A 
ATOM     32  C   UNL     1      -3.180  15.644  25.327  0.00  0.00    +0.000 A 
ATOM     33  C   UNL     1      -3.809  14.713  24.498  0.00  0.00    +0.000 A 
ATOM     34  C   UNL     1      -3.053  13.893  23.652  0.00  0.00    +0.000 A 
ENDBRANCH  26  29
ENDBRANCH  22  25
ENDBRANCH   3  19
TORSDOF 9
ENDMDL
MODEL 7
REMARK VINA RESULT:      -7.9      1.169      2.141
REMARK  Name = 
REMARK  10 active torsions:
REMARK  status: ('A' for Active; 'I' for Inactive)
REMARK    1  A    between atoms: C_1  and  O_2
REMARK    2  A    between atoms: O_2  and  C_3
REMARK    3  A    between atoms: C_5  and  C_6
REMARK    4  A    between atoms: N_8  and  C_9
REMARK    5  A    between atoms: C_12  and  N_13
REMARK    6  A    between atoms: C_14  and  C_16
REMARK    7  A    between atoms: C_26  and  O_27
REMARK    8  A    between atoms: O_27  and  C_28
REMARK    9  A    between atoms: C_28  and  C_29
REMARK   10  A    between atoms: C_29  and  O_31
REMARK                            x       y       z     vdW  Elec       q    Type
REMARK                         _______ _______ _______ _____ _____    ______ ____
ROOT
ATOM      1  C   UNL     1       2.715   7.699  18.186  0.00  0.00    +0.000 C 
ATOM      2  O   UNL     1       2.494   8.629  17.418  0.00  0.00    +0.000 OA
ATOM      3  N   UNL     1       2.309   7.611  19.511  0.00  0.00    +0.000 N 
ATOM      4  H   UNL     1       2.745   6.911  20.095  0.00  0.00    +0.000 HD
ENDROOT
BRANCH   1   7
ATOM      5  C   UNL     1       3.758   4.217  17.074  0.00  0.00    +0.000 A 
ATOM      6  C   UNL     1       3.099   5.245  17.776  0.00  0.00    +0.000 A 
ATOM      7  C   UNL     1       3.521   6.569  17.651  0.00  0.00    +0.000 A 
ATOM      8  C   UNL     1       4.647   6.858  16.873  0.00  0.00    +0.000 A 
ATOM      9  C   UNL     1       5.365   5.827  16.261  0.00  0.00    +0.000 A 
ATOM     10  C   UNL     1       4.947   4.495  16.372  0.00  0.00    +0.000 A 
BRANCH   5  12
ATOM     11  C   UNL     1       2.612   2.499  18.238  0.00  0.00    +0.000 C 
ATOM     12  O   UNL     1       3.237   2.950  17.030  0.00  0.00    +0.000 OA
ENDBRANCH   5  12
BRANCH  10  13
ATOM     13  O   UNL     1       5.762   3.614  15.699  0.00  0.00    +0.000 OA
BRANCH  13  14
ATOM     14  C   UNL     1       6.524   4.137  14.607  0.00  0.00    +0.000 C 
BRANCH  14  15
ATOM     15  C   UNL     1       5.948   3.676  13.269  0.00  0.00    +0.000 C 
ATOM     16  O   UNL     1       4.800   3.886  12.914  0.00  0.00    +0.000 OA
BRANCH  15  17
ATOM     17  O   UNL     1       6.836   2.999  12.500  0.00  0.00    +0.000 OA
ATOM     18  H   UNL     1       7.554   3.601  12.209  0.00  0.00    +0.000 HD
ENDBRANCH  15  17
ENDBRANCH  14  15
ENDBRANCH  13  14
ENDBRANCH  10  13
ENDBRANCH   1   7
BRANCH   3  19
ATOM     19  C   UNL     1       1.450   8.531  20.159  0.00  0.00    +0.000 A 
ATOM     20  C   UNL     1       0.704   9.475  19.462  0.00  0.00    +0.000 A 
ATOM     21  C   UNL     1      -0.130  10.373  20.131  0.00  0.00    +0.000 A 
ATOM     22  C   UNL     1      -0.249  10.359  21.519  0.00  0.00    +0.000 A 
ATOM     23  C   UNL     1       0.497   9.409  22.229  0.00  0.00    +0.000 A 
ATOM     24  C   UNL     1       1.327   8.491  21.554  0.00  0.00    +0.000 A 
BRANCH  22  25
ATOM     25  N   UNL     1      -1.076  11.263  22.229  0.00  0.00    +0.000 N 
ATOM     26  C   UNL     1      -0.773  12.590  22.509  0.00  0.00    +0.000 C 
ATOM     27  O   UNL     1       0.235  13.194  22.155  0.00  0.00    +0.000 OA
ATOM     28  H   UNL     1      -1.936  10.881  22.599  0.00  0.00    +0.000 HD
BRANCH  26  29
ATOM     29  C   UNL     1      -1.744  13.351  23.341  0.00  0.00    +0.000 A 
ATOM     30  C   UNL     1      -3.014  12.781  23.523  0.00  0.00    +0.000 A 
ATOM     31  C   UNL     1      -3.978  13.426  24.295  0.00  0.00    +0.000 A 
ATOM     32  C   UNL     1      -3.674  14.643  24.900  0.00  0.00    +0.000 A 
ATOM     33  C   UNL     1      -2.404  15.204  24.748  0.00  0.00    +0.000 A 
ATOM     34  C   UNL     1      -1.433  14.559  23.973  0.00  0.00    +0.000 A 
ENDBRANCH  26  29
ENDBRANCH  22  25
ENDBRANCH   3  19
TORSDOF 9
ENDMDL
MODEL 8
REMARK VINA RESULT:      -7.9      1.665      2.874
REMARK  Name = 
REMARK  10 active torsions:
REMARK  status: ('A' for Active; 'I' for Inactive)
REMARK    1  A    between atoms: C_1  and  O_2
REMARK    2  A    between atoms: O_2  and  C_3
REMARK    3  A    between atoms: C_5  and  C_6
REMARK    4  A    between atoms: N_8  and  C_9
REMARK    5  A    between atoms: C_12  and  N_13
REMARK    6  A    between atoms: C_14  and  C_16
REMARK    7  A    between atoms: C_26  and  O_27
REMARK    8  A    between atoms: O_27  and  C_28
REMARK    9  A    between atoms: C_28  and  C_29
REMARK   10  A    between atoms: C_29  and  O_31
REMARK                            x       y       z     vdW  Elec       q    Type
REMARK                         _______ _______ _______ _____ _____    ______ ____
ROOT
ATOM      1  C   UNL     1       2.348   8.032  18.656  0.00  0.00    +0.000 C 
ATOM      2  O   UNL     1       2.259   8.977  17.881  0.00  0.00    +0.000 OA
ATOM      3  N   UNL     1       1.840   7.975  19.948  0.00  0.00    +0.000 N 
ATOM      4  H   UNL     1       2.175   7.241  20.557  0.00  0.00    +0.000 HD
ENDROOT
BRANCH   1   7
ATOM      5  C   UNL     1       3.289   4.434  17.867  0.00  0.00    +0.000 A 
ATOM      6  C   UNL     1       2.706   5.543  18.510  0.00  0.00    +0.000 A 
ATOM      7  C   UNL     1       3.098   6.840  18.174  0.00  0.00    +0.000 A 
ATOM      8  C   UNL     1       4.121   7.026  17.239  0.00  0.00    +0.000 A 
ATOM      9  C   UNL     1       4.773   5.924  16.679  0.00  0.00    +0.000 A 
ATOM     10  C   UNL     1       4.384   4.618  17.001  0.00  0.00    +0.000 A 
BRANCH   5  12
ATOM     11  C   UNL     1       1.377   3.112  18.326  0.00  0.00    +0.000 C 
ATOM     12  O   UNL     1       2.779   3.173  18.041  0.00  0.00    +0.000 OA
ENDBRANCH   5  12
BRANCH  10  13
ATOM     13  O   UNL     1       5.124   3.657  16.351  0.00  0.00    +0.000 OA
BRANCH  13  14
ATOM     14  C   UNL     1       5.850   4.070  15.189  0.00  0.00    +0.000 C 
BRANCH  14  15
ATOM     15  C   UNL     1       7.205   4.661  15.575  0.00  0.00    +0.000 C 
ATOM     16  O   UNL     1       7.733   5.593  14.992  0.00  0.00    +0.000 OA
BRANCH  15  17
ATOM     17  O   UNL     1       7.783   4.046  16.636  0.00  0.00    +0.000 OA
ATOM     18  H   UNL     1       8.547   4.573  16.954  0.00  0.00    +0.000 HD
ENDBRANCH  15  17
ENDBRANCH  14  15
ENDBRANCH  13  14
ENDBRANCH  10  13
ENDBRANCH   1   7
BRANCH   3  19
ATOM     19  C   UNL     1       1.013   8.961  20.538  0.00  0.00    +0.000 A 
ATOM     20  C   UNL     1       0.250   9.846  19.783  0.00  0.00    +0.000 A 
ATOM     21  C   UNL     1      -0.552  10.811  20.395  0.00  0.00    +0.000 A 
ATOM     22  C   UNL     1      -0.620  10.925  21.781  0.00  0.00    +0.000 A 
ATOM     23  C   UNL     1       0.142  10.036  22.550  0.00  0.00    +0.000 A 
ATOM     24  C   UNL     1       0.939   9.050  21.934  0.00  0.00    +0.000 A 
BRANCH  22  25
ATOM     25  N   UNL     1      -1.414  11.901  22.434  0.00  0.00    +0.000 N 
ATOM     26  C   UNL     1      -0.989  13.168  22.816  0.00  0.00    +0.000 C 
ATOM     27  O   UNL     1       0.120  13.652  22.617  0.00  0.00    +0.000 OA
ATOM     28  H   UNL     1      -2.353  11.617  22.678  0.00  0.00    +0.000 HD
BRANCH  26  29
ATOM     29  C   UNL     1      -1.957  14.014  23.566  0.00  0.00    +0.000 A 
ATOM     30  C   UNL     1      -1.428  14.888  24.530  0.00  0.00    +0.000 A 
ATOM     31  C   UNL     1      -2.267  15.719  25.270  0.00  0.00    +0.000 A 
ATOM     32  C   UNL     1      -3.640  15.691  25.042  0.00  0.00    +0.000 A 
ATOM     33  C   UNL     1      -4.171  14.846  24.065  0.00  0.00    +0.000 A 
ATOM     34  C   UNL     1      -3.334  14.008  23.321  0.00  0.00    +0.000 A 
ENDBRANCH  26  29
ENDBRANCH  22  25
ENDBRANCH   3  19
TORSDOF 9
ENDMDL
MODEL 9
REMARK VINA RESULT:      -7.9      1.462      2.540
REMARK  Name = 
REMARK  10 active torsions:
REMARK  status: ('A' for Active; 'I' for Inactive)
REMARK    1  A    between atoms: C_1  and  O_2
REMARK    2  A    between atoms: O_2  and  C_3
REMARK    3  A    between atoms: C_5  and  C_6
REMARK    4  A    between atoms: N_8  and  C_9
REMARK    5  A    between atoms: C_12  and  N_13
REMARK    6  A    between atoms: C_14  and  C_16
REMARK    7  A    between atoms: C_26  and  O_27
REMARK    8  A    between atoms: O_27  and  C_28
REMARK    9  A    between atoms: C_28  and  C_29
REMARK   10  A    between atoms: C_29  and  O_31
REMARK                            x       y       z     vdW  Elec       q    Type
REMARK                         _______ _______ _______ _____ _____    ______ ____
ROOT
ATOM      1  C   UNL     1       2.122   6.758  19.754  0.00  0.00    +0.000 C 
ATOM      2  O   UNL     1       1.645   6.224  20.749  0.00  0.00    +0.000 OA
ATOM      3  N   UNL     1       1.870   8.051  19.313  0.00  0.00    +0.000 N 
ATOM      4  H   UNL     1       2.139   8.291  18.369  0.00  0.00    +0.000 HD
ENDROOT
BRANCH   1   7
ATOM      5  C   UNL     1       3.759   3.771  18.067  0.00  0.00    +0.000 A 
ATOM      6  C   UNL     1       3.050   4.538  19.011  0.00  0.00    +0.000 A 
ATOM      7  C   UNL     1       3.039   5.931  18.924  0.00  0.00    +0.000 A 
ATOM      8  C   UNL     1       3.792   6.561  17.927  0.00  0.00    +0.000 A 
ATOM      9  C   UNL     1       4.580   5.804  17.055  0.00  0.00    +0.000 A 
ATOM     10  C   UNL     1       4.593   4.406  17.127  0.00  0.00    +0.000 A 
BRANCH   5  12
ATOM     11  C   UNL     1       2.651   1.859  18.924  0.00  0.00    +0.000 C 
ATOM     12  O   UNL     1       3.617   2.408  18.021  0.00  0.00    +0.000 OA
ENDBRANCH   5  12
BRANCH  10  13
ATOM     13  O   UNL     1       5.412   3.824  16.188  0.00  0.00    +0.000 OA
BRANCH  13  14
ATOM     14  C   UNL     1       5.607   4.537  14.962  0.00  0.00    +0.000 C 
BRANCH  14  15
ATOM     15  C   UNL     1       7.078   4.902  14.772  0.00  0.00    +0.000 C 
ATOM     16  O   UNL     1       7.526   5.423  13.764  0.00  0.00    +0.000 OA
BRANCH  15  17
ATOM     17  O   UNL     1       7.857   4.589  15.836  0.00  0.00    +0.000 OA
ATOM     18  H   UNL     1       7.559   5.088  16.627  0.00  0.00    +0.000 HD
ENDBRANCH  15  17
ENDBRANCH  14  15
ENDBRANCH  13  14
ENDBRANCH  10  13
ENDBRANCH   1   7
BRANCH   3  19
ATOM     19  C   UNL     1       1.115   9.017  20.022  0.00  0.00    +0.000 A 
ATOM     20  C   UNL     1       0.353   9.988  19.382  0.00  0.00    +0.000 A 
ATOM     21  C   UNL     1      -0.377  10.930  20.109  0.00  0.00    +0.000 A 
ATOM     22  C   UNL     1      -0.372  10.934  21.502  0.00  0.00    +0.000 A 
ATOM     23  C   UNL     1       0.390   9.957  22.156  0.00  0.00    +0.000 A 
ATOM     24  C   UNL     1       1.114   8.995  21.423  0.00  0.00    +0.000 A 
BRANCH  22  25
ATOM     25  N   UNL     1      -1.091  11.882  22.270  0.00  0.00    +0.000 N 
ATOM     26  C   UNL     1      -0.634  13.143  22.635  0.00  0.00    +0.000 C 
ATOM     27  O   UNL     1       0.441  13.645  22.320  0.00  0.00    +0.000 OA
ATOM     28  H   UNL     1      -1.992  11.582  22.615  0.00  0.00    +0.000 HD
BRANCH  26  29
ATOM     29  C   UNL     1      -1.513  13.958  23.516  0.00  0.00    +0.000 A 
ATOM     30  C   UNL     1      -2.810  13.473  23.751  0.00  0.00    +0.000 A 
ATOM     31  C   UNL     1      -3.692  14.174  24.571  0.00  0.00    +0.000 A 
ATOM     32  C   UNL     1      -3.280  15.361  25.170  0.00  0.00    +0.000 A 
ATOM     33  C   UNL     1      -1.983  15.836  24.965  0.00  0.00    +0.000 A 
ATOM     34  C   UNL     1      -1.094  15.137  24.142  0.00  0.00    +0.000 A 
ENDBRANCH  26  29
ENDBRANCH  22  25
ENDBRANCH   3  19
TORSDOF 9
ENDMDL
