MODEL 1
REMARK VINA RESULT:      -7.0      0.000      0.000
REMARK  Name = 
REMARK  9 active torsions:
REMARK  status: ('A' for Active; 'I' for Inactive)
REMARK    1  A    between atoms: C_1  and  C_2
REMARK    2  A    between atoms: C_6  and  C_7
REMARK    3  A    between atoms: C_7  and  N_8
REMARK    4  A    between atoms: C_9  and  S_10
REMARK    5  A    between atoms: S_10  and  C_11
REMARK    6  A    between atoms: C_11  and  C_12
REMARK    7  A    between atoms: C_12  and  O_13
REMARK    8  A    between atoms: N_19  and  C_20
REMARK    9  A    between atoms: N_23  and  C_24
REMARK                            x       y       z     vdW  Elec       q    Type
REMARK                         _______ _______ _______ _____ _____    ______ ____
ROOT
ATOM      1  N   UNL     1       2.557   6.215  18.901  0.00  0.00    +0.000 N 
ATOM      2  C   UNL     1       2.303   5.560  20.089  0.00  0.00    +0.000 A 
ATOM      3  N   UNL     1       1.682   6.329  20.956  0.00  0.00    +0.000 NA
ATOM      4  C   UNL     1       1.573   7.524  20.333  0.00  0.00    +0.000 A 
ATOM      5  C   UNL     1       2.128   7.512  19.084  0.00  0.00    +0.000 A 
ATOM      6  C   UNL     1       2.174   8.668  18.253  0.00  0.00    +0.000 A 
ATOM      7  O   UNL     1       2.728   8.686  17.162  0.00  0.00    +0.000 OA
ATOM      8  N   UNL     1       1.551   9.782  18.837  0.00  0.00    +0.000 N 
ATOM      9  C   UNL     1       1.536  11.027  18.097  0.00  0.00    +0.000 C 
ATOM     10  C   UNL     1       0.954   9.817  20.111  0.00  0.00    +0.000 A 
ATOM     11  O   UNL     1       0.430  10.849  20.542  0.00  0.00    +0.000 OA
ATOM     12  N   UNL     1       0.985   8.645  20.862  0.00  0.00    +0.000 N 
ATOM     13  C   UNL     1       0.390   8.597  22.185  0.00  0.00    +0.000 C 
ENDROOT
BRANCH   1  14
ATOM     14  C   UNL     1       3.188   5.672  17.702  0.00  0.00    +0.000 C 
BRANCH  14  20
ATOM     15  C   UNL     1       7.672   8.032  17.516  0.00  0.00    +0.000 C 
ATOM     16  C   UNL     1       6.880   6.760  17.608  0.00  0.00    +0.000 A 
ATOM     17  C   UNL     1       7.513   5.514  17.583  0.00  0.00    +0.000 A 
ATOM     18  C   UNL     1       6.755   4.346  17.620  0.00  0.00    +0.000 A 
ATOM     19  C   UNL     1       5.363   4.416  17.678  0.00  0.00    +0.000 A 
ATOM     20  C   UNL     1       4.703   5.657  17.723  0.00  0.00    +0.000 A 
ATOM     21  C   UNL     1       5.480   6.825  17.685  0.00  0.00    +0.000 A 
ENDBRANCH  14  20
ENDBRANCH   1  14
BRANCH   2  22
ATOM     22  S   UNL     1       2.710   3.907  20.401  0.00  0.00    +0.000 S 
BRANCH  22  23
ATOM     23  C   UNL     1       1.077   3.109  20.193  0.00  0.00    +0.000 C 
BRANCH  23  24
ATOM     24  C   UNL     1       0.885   2.559  18.780  0.00  0.00    +0.000 C 
BRANCH  24  25
ATOM     25  O   UNL     1       1.867   1.579  18.458  0.00  0.00    +0.000 OA
ATOM     26  H   UNL     1       1.481   1.017  17.762  0.00  0.00    +0.000 HD
ENDBRANCH  24  25
ENDBRANCH  23  24
ENDBRANCH  22  23
ENDBRANCH   2  22
TORSDOF 6
ENDMDL
MODEL 2
REMARK VINA RESULT:      -6.9      0.728      1.049
REMARK  Name = 
REMARK  9 active torsions:
REMARK  status: ('A' for Active; 'I' for Inactive)
REMARK    1  A    between atoms: C_1  and  C_2
REMARK    2  A    between atoms: C_6  and  C_7
REMARK    3  A    between atoms: C_7  and  N_8
REMARK    4  A    between atoms: C_9  and  S_10
REMARK    5  A    between atoms: S_10  and  C_11
REMARK    6  A    between atoms: C_11  and  C_12
REMARK    7  A    between atoms: C_12  and  O_13
REMARK    8  A    between atoms: N_19  and  C_20
REMARK    9  A    between atoms: N_23  and  C_24
REMARK                            x       y       z     vdW  Elec       q    Type
REMARK                         _______ _______ _______ _____ _____    ______ ____
ROOT
ATOM      1  N   UNL     1       2.426   6.220  19.021  0.00  0.00    +0.000 N 
ATOM      2  C   UNL     1       2.195   5.642  20.252  0.00  0.00    +0.000 A 
ATOM      3  N   UNL     1       1.663   6.488  21.106  0.00  0.00    +0.000 NA
ATOM      4  C   UNL     1       1.591   7.655  20.426  0.00  0.00    +0.000 A 
ATOM      5  C   UNL     1       2.081   7.548  19.156  0.00  0.00    +0.000 A 
ATOM      6  C   UNL     1       2.151   8.655  18.263  0.00  0.00    +0.000 A 
ATOM      7  O   UNL     1       2.648   8.586  17.147  0.00  0.00    +0.000 OA
ATOM      8  N   UNL     1       1.622   9.832  18.816  0.00  0.00    +0.000 N 
ATOM      9  C   UNL     1       1.641  11.038  18.013  0.00  0.00    +0.000 C 
ATOM     10  C   UNL     1       1.093   9.967  20.114  0.00  0.00    +0.000 A 
ATOM     11  O   UNL     1       0.651  11.049  20.513  0.00  0.00    +0.000 OA
ATOM     12  N   UNL     1       1.096   8.834  20.923  0.00  0.00    +0.000 N 
ATOM     13  C   UNL     1       0.566   8.888  22.274  0.00  0.00    +0.000 C 
ENDROOT
BRANCH   1  14
ATOM     14  C   UNL     1       2.963   5.580  17.824  0.00  0.00    +0.000 C 
BRANCH  14  20
ATOM     15  C   UNL     1       7.704   5.642  19.623  0.00  0.00    +0.000 C 
ATOM     16  C   UNL     1       6.753   5.792  18.471  0.00  0.00    +0.000 A 
ATOM     17  C   UNL     1       7.203   6.203  17.214  0.00  0.00    +0.000 A 
ATOM     18  C   UNL     1       6.297   6.382  16.171  0.00  0.00    +0.000 A 
ATOM     19  C   UNL     1       4.936   6.159  16.382  0.00  0.00    +0.000 A 
ATOM     20  C   UNL     1       4.458   5.728  17.632  0.00  0.00    +0.000 A 
ATOM     21  C   UNL     1       5.384   5.551  18.672  0.00  0.00    +0.000 A 
ENDBRANCH  14  20
ENDBRANCH   1  14
BRANCH   2  22
ATOM     22  S   UNL     1       2.522   3.985  20.632  0.00  0.00    +0.000 S 
BRANCH  22  23
ATOM     23  C   UNL     1       0.904   3.222  20.248  0.00  0.00    +0.000 C 
BRANCH  23  24
ATOM     24  C   UNL     1       0.879   2.609  18.848  0.00  0.00    +0.000 C 
BRANCH  24  25
ATOM     25  O   UNL     1       1.674   1.429  18.775  0.00  0.00    +0.000 OA
ATOM     26  H   UNL     1       1.924   1.206  19.690  0.00  0.00    +0.000 HD
ENDBRANCH  24  25
ENDBRANCH  23  24
ENDBRANCH  22  23
ENDBRANCH   2  22
TORSDOF 6
ENDMDL
MODEL 3
REMARK VINA RESULT:      -6.9      3.364      5.646
REMARK  Name = 
REMARK  9 active torsions:
REMARK  status: ('A' for Active; 'I' for Inactive)
REMARK    1  A    between atoms: C_1  and  C_2
REMARK    2  A    between atoms: C_6  and  C_7
REMARK    3  A    between atoms: C_7  and  N_8
REMARK    4  A    between atoms: C_9  and  S_10
REMARK    5  A    between atoms: S_10  and  C_11
REMARK    6  A    between atoms: C_11  and  C_12
REMARK    7  A    between atoms: C_12  and  O_13
REMARK    8  A    between atoms: N_19  and  C_20
REMARK    9  A    between atoms: N_23  and  C_24
REMARK                            x       y       z     vdW  Elec       q    Type
REMARK                         _______ _______ _______ _____ _____    ______ ____
ROOT
ATOM      1  N   UNL     1       5.326   4.692  17.370  0.00  0.00    +0.000 N 
ATOM      2  C   UNL     1       5.499   6.039  17.610  0.00  0.00    +0.000 A 
ATOM      3  N   UNL     1       4.535   6.539  18.350  0.00  0.00    +0.000 NA
ATOM      4  C   UNL     1       3.692   5.501  18.556  0.00  0.00    +0.000 A 
ATOM      5  C   UNL     1       4.118   4.357  17.944  0.00  0.00    +0.000 A 
ATOM      6  C   UNL     1       3.374   3.143  17.981  0.00  0.00    +0.000 A 
ATOM      7  O   UNL     1       3.712   2.131  17.381  0.00  0.00    +0.000 OA
ATOM      8  N   UNL     1       2.203   3.248  18.747  0.00  0.00    +0.000 N 
ATOM      9  C   UNL     1       1.348   2.084  18.860  0.00  0.00    +0.000 C 
ATOM     10  C   UNL     1       1.750   4.408  19.405  0.00  0.00    +0.000 A 
ATOM     11  O   UNL     1       0.701   4.403  20.056  0.00  0.00    +0.000 OA
ATOM     12  N   UNL     1       2.532   5.553  19.285  0.00  0.00    +0.000 N 
ATOM     13  C   UNL     1       2.136   6.790  19.934  0.00  0.00    +0.000 C 
ENDROOT
BRANCH   1  14
ATOM     14  C   UNL     1       6.211   3.799  16.628  0.00  0.00    +0.000 C 
BRANCH  14  20
ATOM     15  C   UNL     1       4.604   3.203  11.855  0.00  0.00    +0.000 C 
ATOM     16  C   UNL     1       5.582   3.794  12.829  0.00  0.00    +0.000 A 
ATOM     17  C   UNL     1       6.694   4.516  12.386  0.00  0.00    +0.000 A 
ATOM     18  C   UNL     1       7.614   5.014  13.305  0.00  0.00    +0.000 A 
ATOM     19  C   UNL     1       7.432   4.789  14.670  0.00  0.00    +0.000 A 
ATOM     20  C   UNL     1       6.313   4.082  15.143  0.00  0.00    +0.000 A 
ATOM     21  C   UNL     1       5.394   3.587  14.206  0.00  0.00    +0.000 A 
ENDBRANCH  14  20
ENDBRANCH   1  14
BRANCH   2  22
ATOM     22  S   UNL     1       6.846   6.969  17.044  0.00  0.00    +0.000 S 
BRANCH  22  23
ATOM     23  C   UNL     1       7.938   6.913  18.511  0.00  0.00    +0.000 C 
BRANCH  23  24
ATOM     24  C   UNL     1       7.982   5.520  19.138  0.00  0.00    +0.000 C 
BRANCH  24  25
ATOM     25  O   UNL     1       8.055   5.585  20.560  0.00  0.00    +0.000 OA
ATOM     26  H   UNL     1       9.001   5.641  20.787  0.00  0.00    +0.000 HD
ENDBRANCH  24  25
ENDBRANCH  23  24
ENDBRANCH  22  23
ENDBRANCH   2  22
TORSDOF 6
ENDMDL
MODEL 4
REMARK VINA RESULT:      -6.9      1.144      1.198
REMARK  Name = 
REMARK  9 active torsions:
REMARK  status: ('A' for Active; 'I' for Inactive)
REMARK    1  A    between atoms: C_1  and  C_2
REMARK    2  A    between atoms: C_6  and  C_7
REMARK    3  A    between atoms: C_7  and  N_8
REMARK    4  A    between atoms: C_9  and  S_10
REMARK    5  A    between atoms: S_10  and  C_11
REMARK    6  A    between atoms: C_11  and  C_12
REMARK    7  A    between atoms: C_12  and  O_13
REMARK    8  A    between atoms: N_19  and  C_20
REMARK    9  A    between atoms: N_23  and  C_24
REMARK                            x       y       z     vdW  Elec       q    Type
REMARK                         _______ _______ _______ _____ _____    ______ ____
ROOT
ATOM      1  N   UNL     1       2.344   6.937  18.788  0.00  0.00    +0.000 N 
ATOM      2  C   UNL     1       2.269   6.192  19.947  0.00  0.00    +0.000 A 
ATOM      3  N   UNL     1       1.774   6.883  20.949  0.00  0.00    +0.000 NA
ATOM      4  C   UNL     1       1.566   8.119  20.440  0.00  0.00    +0.000 A 
ATOM      5  C   UNL     1       1.935   8.209  19.128  0.00  0.00    +0.000 A 
ATOM      6  C   UNL     1       1.851   9.423  18.388  0.00  0.00    +0.000 A 
ATOM      7  O   UNL     1       2.241   9.532  17.233  0.00  0.00    +0.000 OA
ATOM      8  N   UNL     1       1.310  10.479  19.138  0.00  0.00    +0.000 N 
ATOM      9  C   UNL     1       1.178  11.775  18.504  0.00  0.00    +0.000 C 
ATOM     10  C   UNL     1       0.903  10.410  20.484  0.00  0.00    +0.000 A 
ATOM     11  O   UNL     1       0.438  11.397  21.062  0.00  0.00    +0.000 OA
ATOM     12  N   UNL     1       1.052   9.186  21.131  0.00  0.00    +0.000 N 
ATOM     13  C   UNL     1       0.655   9.030  22.519  0.00  0.00    +0.000 C 
ENDROOT
BRANCH   1  14
ATOM     14  C   UNL     1       2.799   6.495  17.473  0.00  0.00    +0.000 C 
BRANCH  14  20
ATOM     15  C   UNL     1       7.668   7.907  17.560  0.00  0.00    +0.000 C 
ATOM     16  C   UNL     1       6.633   6.835  17.384  0.00  0.00    +0.000 A 
ATOM     17  C   UNL     1       6.994   5.542  16.995  0.00  0.00    +0.000 A 
ATOM     18  C   UNL     1       6.013   4.574  16.790  0.00  0.00    +0.000 A 
ATOM     19  C   UNL     1       4.667   4.895  16.968  0.00  0.00    +0.000 A 
ATOM     20  C   UNL     1       4.278   6.183  17.376  0.00  0.00    +0.000 A 
ATOM     21  C   UNL     1       5.278   7.146  17.579  0.00  0.00    +0.000 A 
ENDBRANCH  14  20
ENDBRANCH   1  14
BRANCH   2  22
ATOM     22  S   UNL     1       2.730   4.528  20.072  0.00  0.00    +0.000 S 
BRANCH  22  23
ATOM     23  C   UNL     1       1.160   3.782  20.644  0.00  0.00    +0.000 C 
BRANCH  23  24
ATOM     24  C   UNL     1       1.398   2.612  21.598  0.00  0.00    +0.000 C 
BRANCH  24  25
ATOM     25  O   UNL     1       2.755   2.550  22.028  0.00  0.00    +0.000 OA
ATOM     26  H   UNL     1       2.995   1.606  22.054  0.00  0.00    +0.000 HD
ENDBRANCH  24  25
ENDBRANCH  23  24
ENDBRANCH  22  23
ENDBRANCH   2  22
TORSDOF 6
ENDMDL
MODEL 5
REMARK VINA RESULT:      -6.7      0.932      1.167
REMARK  Name = 
REMARK  9 active torsions:
REMARK  status: ('A' for Active; 'I' for Inactive)
REMARK    1  A    between atoms: C_1  and  C_2
REMARK    2  A    between atoms: C_6  and  C_7
REMARK    3  A    between atoms: C_7  and  N_8
REMARK    4  A    between atoms: C_9  and  S_10
REMARK    5  A    between atoms: S_10  and  C_11
REMARK    6  A    between atoms: C_11  and  C_12
REMARK    7  A    between atoms: C_12  and  O_13
REMARK    8  A    between atoms: N_19  and  C_20
REMARK    9  A    between atoms: N_23  and  C_24
REMARK                            x       y       z     vdW  Elec       q    Type
REMARK                         _______ _______ _______ _____ _____    ______ ____
ROOT
ATOM      1  N   UNL     1       2.352   6.050  19.124  0.00  0.00    +0.000 N 
ATOM      2  C   UNL     1       2.039   5.558  20.374  0.00  0.00    +0.000 A 
ATOM      3  N   UNL     1       1.534   6.483  21.159  0.00  0.00    +0.000 NA
ATOM      4  C   UNL     1       1.563   7.612  20.415  0.00  0.00    +0.000 A 
ATOM      5  C   UNL     1       2.090   7.402  19.173  0.00  0.00    +0.000 A 
ATOM      6  C   UNL     1       2.265   8.451  18.225  0.00  0.00    +0.000 A 
ATOM      7  O   UNL     1       2.797   8.288  17.135  0.00  0.00    +0.000 OA
ATOM      8  N   UNL     1       1.795   9.689  18.693  0.00  0.00    +0.000 N 
ATOM      9  C   UNL     1       1.921  10.844  17.827  0.00  0.00    +0.000 C 
ATOM     10  C   UNL     1       1.230   9.930  19.959  0.00  0.00    +0.000 A 
ATOM     11  O   UNL     1       0.845  11.058  20.282  0.00  0.00    +0.000 OA
ATOM     12  N   UNL     1       1.128   8.846  20.827  0.00  0.00    +0.000 N 
ATOM     13  C   UNL     1       0.555   9.010  22.151  0.00  0.00    +0.000 C 
ENDROOT
BRANCH   1  14
ATOM     14  C   UNL     1       2.889   5.311  17.985  0.00  0.00    +0.000 C 
BRANCH  14  20
ATOM     15  C   UNL     1       7.139   4.871  15.255  0.00  0.00    +0.000 C 
ATOM     16  C   UNL     1       6.467   5.101  16.576  0.00  0.00    +0.000 A 
ATOM     17  C   UNL     1       7.211   5.213  17.754  0.00  0.00    +0.000 A 
ATOM     18  C   UNL     1       6.564   5.379  18.976  0.00  0.00    +0.000 A 
ATOM     19  C   UNL     1       5.170   5.427  19.029  0.00  0.00    +0.000 A 
ATOM     20  C   UNL     1       4.399   5.335  17.858  0.00  0.00    +0.000 A 
ATOM     21  C   UNL     1       5.065   5.169  16.634  0.00  0.00    +0.000 A 
ENDBRANCH  14  20
ENDBRANCH   1  14
BRANCH   2  22
ATOM     22  S   UNL     1       2.244   3.907  20.855  0.00  0.00    +0.000 S 
BRANCH  22  23
ATOM     23  C   UNL     1       1.005   3.086  19.788  0.00  0.00    +0.000 C 
BRANCH  23  24
ATOM     24  C   UNL     1       1.578   1.854  19.090  0.00  0.00    +0.000 C 
BRANCH  24  25
ATOM     25  O   UNL     1       1.799   2.090  17.702  0.00  0.00    +0.000 OA
ATOM     26  H   UNL     1       0.980   2.488  17.354  0.00  0.00    +0.000 HD
ENDBRANCH  24  25
ENDBRANCH  23  24
ENDBRANCH  22  23
ENDBRANCH   2  22
TORSDOF 6
ENDMDL
MODEL 6
REMARK VINA RESULT:      -6.6      3.035      5.145
REMARK  Name = 
REMARK  9 active torsions:
REMARK  status: ('A' for Active; 'I' for Inactive)
REMARK    1  A    between atoms: C_1  and  C_2
REMARK    2  A    between atoms: C_6  and  C_7
REMARK    3  A    between atoms: C_7  and  N_8
REMARK    4  A    between atoms: C_9  and  S_10
REMARK    5  A    between atoms: S_10  and  C_11
REMARK    6  A    between atoms: C_11  and  C_12
REMARK    7  A    between atoms: C_12  and  O_13
REMARK    8  A    between atoms: N_19  and  C_20
REMARK    9  A    between atoms: N_23  and  C_24
REMARK                            x       y       z     vdW  Elec       q    Type
REMARK                         _______ _______ _______ _____ _____    ______ ____
ROOT
ATOM      1  N   UNL     1       4.782   5.372  16.753  0.00  0.00    +0.000 N 
ATOM      2  C   UNL     1       5.121   4.149  16.212  0.00  0.00    +0.000 A 
ATOM      3  N   UNL     1       4.388   3.172  16.697  0.00  0.00    +0.000 NA
ATOM      4  C   UNL     1       3.587   3.769  17.608  0.00  0.00    +0.000 A 
ATOM      5  C   UNL     1       3.817   5.112  17.702  0.00  0.00    +0.000 A 
ATOM      6  C   UNL     1       3.126   5.947  18.626  0.00  0.00    +0.000 A 
ATOM      7  O   UNL     1       3.372   7.138  18.766  0.00  0.00    +0.000 OA
ATOM      8  N   UNL     1       2.166   5.249  19.375  0.00  0.00    +0.000 N 
ATOM      9  C   UNL     1       1.395   5.982  20.359  0.00  0.00    +0.000 C 
ATOM     10  C   UNL     1       1.893   3.871  19.284  0.00  0.00    +0.000 A 
ATOM     11  O   UNL     1       1.026   3.345  19.990  0.00  0.00    +0.000 OA
ATOM     12  N   UNL     1       2.642   3.133  18.373  0.00  0.00    +0.000 N 
ATOM     13  C   UNL     1       2.421   1.706  18.217  0.00  0.00    +0.000 C 
ENDROOT
BRANCH   1  14
ATOM     14  C   UNL     1       5.348   6.677  16.426  0.00  0.00    +0.000 C 
BRANCH  14  20
ATOM     15  C   UNL     1       8.700  10.159  17.959  0.00  0.00    +0.000 C 
ATOM     16  C   UNL     1       8.122   8.779  18.074  0.00  0.00    +0.000 A 
ATOM     17  C   UNL     1       8.691   7.827  18.924  0.00  0.00    +0.000 A 
ATOM     18  C   UNL     1       8.167   6.538  18.979  0.00  0.00    +0.000 A 
ATOM     19  C   UNL     1       7.077   6.191  18.181  0.00  0.00    +0.000 A 
ATOM     20  C   UNL     1       6.475   7.134  17.329  0.00  0.00    +0.000 A 
ATOM     21  C   UNL     1       7.013   8.429  17.286  0.00  0.00    +0.000 A 
ENDBRANCH  14  20
ENDBRANCH   1  14
BRANCH   2  22
ATOM     22  S   UNL     1       6.340   3.917  15.004  0.00  0.00    +0.000 S 
BRANCH  22  23
ATOM     23  C   UNL     1       5.315   3.886  13.489  0.00  0.00    +0.000 C 
BRANCH  23  24
ATOM     24  C   UNL     1       6.124   3.473  12.260  0.00  0.00    +0.000 C 
BRANCH  24  25
ATOM     25  O   UNL     1       6.033   2.072  12.015  0.00  0.00    +0.000 OA
ATOM     26  H   UNL     1       6.506   1.632  12.745  0.00  0.00    +0.000 HD
ENDBRANCH  24  25
ENDBRANCH  23  24
ENDBRANCH  22  23
ENDBRANCH   2  22
TORSDOF 6
ENDMDL
MODEL 7
REMARK VINA RESULT:      -6.4      3.413      6.030
REMARK  Name = 
REMARK  9 active torsions:
REMARK  status: ('A' for Active; 'I' for Inactive)
REMARK    1  A    between atoms: C_1  and  C_2
REMARK    2  A    between atoms: C_6  and  C_7
REMARK    3  A    between atoms: C_7  and  N_8
REMARK    4  A    between atoms: C_9  and  S_10
REMARK    5  A    between atoms: S_10  and  C_11
REMARK    6  A    between atoms: C_11  and  C_12
REMARK    7  A    between atoms: C_12  and  O_13
REMARK    8  A    between atoms: N_19  and  C_20
REMARK    9  A    between atoms: N_23  and  C_24
REMARK                            x       y       z     vdW  Elec       q    Type
REMARK                         _______ _______ _______ _____ _____    ______ ____
ROOT
ATOM      1  N   UNL     1       5.373   4.776  17.160  0.00  0.00    +0.000 N 
ATOM      2  C   UNL     1       5.489   6.144  17.291  0.00  0.00    +0.000 A 
ATOM      3  N   UNL     1       4.538   6.652  18.043  0.00  0.00    +0.000 NA
ATOM      4  C   UNL     1       3.761   5.594  18.368  0.00  0.00    +0.000 A 
ATOM      5  C   UNL     1       4.214   4.428  17.820  0.00  0.00    +0.000 A 
ATOM      6  C   UNL     1       3.536   3.186  17.985  0.00  0.00    +0.000 A 
ATOM      7  O   UNL     1       3.895   2.150  17.443  0.00  0.00    +0.000 OA
ATOM      8  N   UNL     1       2.400   3.294  18.802  0.00  0.00    +0.000 N 
ATOM      9  C   UNL     1       1.613   2.102  19.045  0.00  0.00    +0.000 C 
ATOM     10  C   UNL     1       1.921   4.477  19.397  0.00  0.00    +0.000 A 
ATOM     11  O   UNL     1       0.907   4.472  20.102  0.00  0.00    +0.000 OA
ATOM     12  N   UNL     1       2.637   5.646  19.152  0.00  0.00    +0.000 N 
ATOM     13  C   UNL     1       2.211   6.908  19.730  0.00  0.00    +0.000 C 
ENDROOT
BRANCH   1  14
ATOM     14  C   UNL     1       6.265   3.872  16.439  0.00  0.00    +0.000 C 
BRANCH  14  20
ATOM     15  C   UNL     1       4.558   3.143  11.720  0.00  0.00    +0.000 C 
ATOM     16  C   UNL     1       5.564   3.750  12.655  0.00  0.00    +0.000 A 
ATOM     17  C   UNL     1       6.679   4.436  12.167  0.00  0.00    +0.000 A 
ATOM     18  C   UNL     1       7.625   4.949  13.051  0.00  0.00    +0.000 A 
ATOM     19  C   UNL     1       7.465   4.774  14.426  0.00  0.00    +0.000 A 
ATOM     20  C   UNL     1       6.344   4.103  14.944  0.00  0.00    +0.000 A 
ATOM     21  C   UNL     1       5.399   3.593  14.041  0.00  0.00    +0.000 A 
ENDBRANCH  14  20
ENDBRANCH   1  14
BRANCH   2  22
ATOM     22  S   UNL     1       6.756   7.091  16.588  0.00  0.00    +0.000 S 
BRANCH  22  23
ATOM     23  C   UNL     1       7.783   7.433  18.063  0.00  0.00    +0.000 C 
BRANCH  23  24
ATOM     24  C   UNL     1       8.272   8.881  18.096  0.00  0.00    +0.000 C 
BRANCH  24  25
ATOM     25  O   UNL     1       9.090   9.135  19.236  0.00  0.00    +0.000 OA
ATOM     26  H   UNL     1       9.678   8.364  19.332  0.00  0.00    +0.000 HD
ENDBRANCH  24  25
ENDBRANCH  23  24
ENDBRANCH  22  23
ENDBRANCH   2  22
TORSDOF 6
ENDMDL
MODEL 8
REMARK VINA RESULT:      -6.4      5.945      8.852
REMARK  Name = 
REMARK  9 active torsions:
REMARK  status: ('A' for Active; 'I' for Inactive)
REMARK    1  A    between atoms: C_1  and  C_2
REMARK    2  A    between atoms: C_6  and  C_7
REMARK    3  A    between atoms: C_7  and  N_8
REMARK    4  A    between atoms: C_9  and  S_10
REMARK    5  A    between atoms: S_10  and  C_11
REMARK    6  A    between atoms: C_11  and  C_12
REMARK    7  A    between atoms: C_12  and  O_13
REMARK    8  A    between atoms: N_19  and  C_20
REMARK    9  A    between atoms: N_23  and  C_24
REMARK                            x       y       z     vdW  Elec       q    Type
REMARK                         _______ _______ _______ _____ _____    ______ ____
ROOT
ATOM      1  N   UNL     1      -2.654  12.204  19.636  0.00  0.00    +0.000 N 
ATOM      2  C   UNL     1      -2.939  11.432  18.529  0.00  0.00    +0.000 A 
ATOM      3  N   UNL     1      -4.222  11.428  18.244  0.00  0.00    +0.000 NA
ATOM      4  C   UNL     1      -4.788  12.179  19.216  0.00  0.00    +0.000 A 
ATOM      5  C   UNL     1      -3.869  12.647  20.112  0.00  0.00    +0.000 A 
ATOM      6  C   UNL     1      -4.232  13.425  21.249  0.00  0.00    +0.000 A 
ATOM      7  O   UNL     1      -3.427  13.791  22.095  0.00  0.00    +0.000 OA
ATOM      8  N   UNL     1      -5.609  13.689  21.309  0.00  0.00    +0.000 N 
ATOM      9  C   UNL     1      -6.113  14.465  22.424  0.00  0.00    +0.000 C 
ATOM     10  C   UNL     1      -6.575  13.238  20.389  0.00  0.00    +0.000 A 
ATOM     11  O   UNL     1      -7.769  13.521  20.527  0.00  0.00    +0.000 OA
ATOM     12  N   UNL     1      -6.126  12.458  19.326  0.00  0.00    +0.000 N 
ATOM     13  C   UNL     1      -7.058  11.955  18.333  0.00  0.00    +0.000 C 
ENDROOT
BRANCH   1  14
ATOM     14  C   UNL     1      -1.343  12.475  20.219  0.00  0.00    +0.000 C 
BRANCH  14  20
ATOM     15  C   UNL     1       1.318   8.220  20.942  0.00  0.00    +0.000 C 
ATOM     16  C   UNL     1       0.453   9.316  21.492  0.00  0.00    +0.000 A 
ATOM     17  C   UNL     1       0.012   9.290  22.818  0.00  0.00    +0.000 A 
ATOM     18  C   UNL     1      -0.830  10.292  23.294  0.00  0.00    +0.000 A 
ATOM     19  C   UNL     1      -1.241  11.321  22.447  0.00  0.00    +0.000 A 
ATOM     20  C   UNL     1      -0.799  11.381  21.114  0.00  0.00    +0.000 A 
ATOM     21  C   UNL     1       0.050  10.365  20.649  0.00  0.00    +0.000 A 
ENDBRANCH  14  20
ENDBRANCH   1  14
BRANCH   2  22
ATOM     22  S   UNL     1      -1.752  10.591  17.591  0.00  0.00    +0.000 S 
BRANCH  22  23
ATOM     23  C   UNL     1      -2.827   9.621  16.472  0.00  0.00    +0.000 C 
BRANCH  23  24
ATOM     24  C   UNL     1      -2.965  10.279  15.099  0.00  0.00    +0.000 C 
BRANCH  24  25
ATOM     25  O   UNL     1      -3.316  11.656  15.209  0.00  0.00    +0.000 OA
ATOM     26  H   UNL     1      -4.274  11.686  15.382  0.00  0.00    +0.000 HD
ENDBRANCH  24  25
ENDBRANCH  23  24
ENDBRANCH  22  23
ENDBRANCH   2  22
TORSDOF 6
ENDMDL
MODEL 9
REMARK VINA RESULT:      -6.4      2.179      5.268
REMARK  Name = 
REMARK  9 active torsions:
REMARK  status: ('A' for Active; 'I' for Inactive)
REMARK    1  A    between atoms: C_1  and  C_2
REMARK    2  A    between atoms: C_6  and  C_7
REMARK    3  A    between atoms: C_7  and  N_8
REMARK    4  A    between atoms: C_9  and  S_10
REMARK    5  A    between atoms: S_10  and  C_11
REMARK    6  A    between atoms: C_11  and  C_12
REMARK    7  A    between atoms: C_12  and  O_13
REMARK    8  A    between atoms: N_19  and  C_20
REMARK    9  A    between atoms: N_23  and  C_24
REMARK                            x       y       z     vdW  Elec       q    Type
REMARK                         _______ _______ _______ _____ _____    ______ ____
ROOT
ATOM      1  N   UNL     1       3.746   6.077  17.535  0.00  0.00    +0.000 N 
ATOM      2  C   UNL     1       2.767   6.887  18.071  0.00  0.00    +0.000 A 
ATOM      3  N   UNL     1       1.928   6.217  18.828  0.00  0.00    +0.000 NA
ATOM      4  C   UNL     1       2.346   4.933  18.744  0.00  0.00    +0.000 A 
ATOM      5  C   UNL     1       3.436   4.794  17.933  0.00  0.00    +0.000 A 
ATOM      6  C   UNL     1       4.030   3.530  17.653  0.00  0.00    +0.000 A 
ATOM      7  O   UNL     1       4.964   3.385  16.876  0.00  0.00    +0.000 OA
ATOM      8  N   UNL     1       3.405   2.475  18.336  0.00  0.00    +0.000 N 
ATOM      9  C   UNL     1       3.908   1.131  18.132  0.00  0.00    +0.000 C 
ATOM     10  C   UNL     1       2.294   2.591  19.193  0.00  0.00    +0.000 A 
ATOM     11  O   UNL     1       1.811   1.600  19.749  0.00  0.00    +0.000 OA
ATOM     12  N   UNL     1       1.766   3.865  19.380  0.00  0.00    +0.000 N 
ATOM     13  C   UNL     1       0.621   4.072  20.249  0.00  0.00    +0.000 C 
ENDROOT
BRANCH   1  14
ATOM     14  C   UNL     1       4.864   6.475  16.685  0.00  0.00    +0.000 C 
BRANCH  14  20
ATOM     15  C   UNL     1       8.487   9.860  17.747  0.00  0.00    +0.000 C 
ATOM     16  C   UNL     1       7.893   8.495  17.939  0.00  0.00    +0.000 A 
ATOM     17  C   UNL     1       8.547   7.525  18.703  0.00  0.00    +0.000 A 
ATOM     18  C   UNL     1       8.002   6.249  18.828  0.00  0.00    +0.000 A 
ATOM     19  C   UNL     1       6.804   5.935  18.185  0.00  0.00    +0.000 A 
ATOM     20  C   UNL     1       6.116   6.897  17.425  0.00  0.00    +0.000 A 
ATOM     21  C   UNL     1       6.678   8.178  17.310  0.00  0.00    +0.000 A 
ENDBRANCH  14  20
ENDBRANCH   1  14
BRANCH   2  22
ATOM     22  S   UNL     1       2.665   8.597  17.818  0.00  0.00    +0.000 S 
BRANCH  22  23
ATOM     23  C   UNL     1       1.377   9.045  19.038  0.00  0.00    +0.000 C 
BRANCH  23  24
ATOM     24  C   UNL     1       0.681  10.357  18.679  0.00  0.00    +0.000 C 
BRANCH  24  25
ATOM     25  O   UNL     1      -0.283  10.176  17.646  0.00  0.00    +0.000 OA
ATOM     26  H   UNL     1       0.053   9.460  17.076  0.00  0.00    +0.000 HD
ENDBRANCH  24  25
ENDBRANCH  23  24
ENDBRANCH  22  23
ENDBRANCH   2  22
TORSDOF 6
ENDMDL
