MODEL 1
REMARK VINA RESULT:      -8.3      0.000      0.000
REMARK  Name = 
REMARK  8 active torsions:
REMARK  status: ('A' for Active; 'I' for Inactive)
REMARK    1  A    between atoms: C_1  and  C_2
REMARK    2  A    between atoms: C_5  and  N_6
REMARK    3  A    between atoms: C_8  and  C_9
REMARK    4  A    between atoms: C_9  and  C_10
REMARK    5  A    between atoms: C_9  and  C_11
REMARK    6  A    between atoms: C_9  and  C_12
REMARK    7  A    between atoms: C_14  and  N_15
REMARK    8  A    between atoms: N_18  and  C_19
REMARK                            x       y       z     vdW  Elec       q    Type
REMARK                         _______ _______ _______ _____ _____    ______ ____
ROOT
ATOM      1  N   UNL     1       2.867   6.294  19.286  0.00  0.00    +0.000 N 
ATOM      2  N   UNL     1       2.316   5.260  19.968  0.00  0.00    +0.000 NA
ATOM      3  C   UNL     1       3.115   4.209  19.730  0.00  0.00    +0.000 A 
ATOM      4  C   UNL     1       4.242   4.586  18.966  0.00  0.00    +0.000 A 
ATOM      5  C   UNL     1       4.048   5.909  18.677  0.00  0.00    +0.000 A 
ENDROOT
BRANCH   1  10
ATOM      6  C   UNL     1       0.208  11.347  18.869  0.00  0.00    +0.000 C 
ATOM      7  C   UNL     1       0.898  10.019  18.980  0.00  0.00    +0.000 A 
ATOM      8  C   UNL     1       0.972   9.346  20.205  0.00  0.00    +0.000 A 
ATOM      9  C   UNL     1       1.605   8.104  20.300  0.00  0.00    +0.000 A 
ATOM     10  C   UNL     1       2.207   7.544  19.170  0.00  0.00    +0.000 A 
ATOM     11  C   UNL     1       2.138   8.214  17.939  0.00  0.00    +0.000 A 
ATOM     12  C   UNL     1       1.474   9.437  17.845  0.00  0.00    +0.000 A 
ENDBRANCH   1  10
BRANCH   5  13
ATOM     13  N   UNL     1       4.941   6.707  17.996  0.00  0.00    +0.000 N 
ATOM     14  C   UNL     1       5.577   6.380  16.782  0.00  0.00    +0.000 C 
ATOM     15  O   UNL     1       6.355   7.234  16.387  0.00  0.00    +0.000 OA
ATOM     16  N   UNL     1       5.155   5.225  16.174  0.00  0.00    +0.000 N 
ATOM     17  H   UNL     1       5.097   7.659  18.313  0.00  0.00    +0.000 HD
ATOM     18  H   UNL     1       4.325   4.765  16.521  0.00  0.00    +0.000 HD
BRANCH  16  19
ATOM     19  C   UNL     1       5.651   4.760  14.937  0.00  0.00    +0.000 A 
ATOM     20  C   UNL     1       4.848   4.037  14.055  0.00  0.00    +0.000 A 
ATOM     21  C   UNL     1       5.376   3.501  12.882  0.00  0.00    +0.000 A 
ATOM     22  C   UNL     1       6.712   3.711  12.573  0.00  0.00    +0.000 A 
ATOM     23 CL   UNL     1       7.363   3.006  11.147  0.00  0.00    +0.000 Cl
ATOM     24  C   UNL     1       7.516   4.478  13.414  0.00  0.00    +0.000 A 
ATOM     25  C   UNL     1       6.984   5.017  14.593  0.00  0.00    +0.000 A 
ENDBRANCH  16  19
ENDBRANCH   5  13
BRANCH   3  26
ATOM     26  C   UNL     1       2.810   2.817  20.264  0.00  0.00    +0.000 C 
ATOM     27  C   UNL     1       2.059   2.864  21.608  0.00  0.00    +0.000 C 
ATOM     28  C   UNL     1       1.940   2.045  19.246  0.00  0.00    +0.000 C 
ATOM     29  C   UNL     1       4.121   2.035  20.467  0.00  0.00    +0.000 C 
ENDBRANCH   3  26
TORSDOF 4
ENDMDL
MODEL 2
REMARK VINA RESULT:      -8.3      0.071      1.252
REMARK  Name = 
REMARK  8 active torsions:
REMARK  status: ('A' for Active; 'I' for Inactive)
REMARK    1  A    between atoms: C_1  and  C_2
REMARK    2  A    between atoms: C_5  and  N_6
REMARK    3  A    between atoms: C_8  and  C_9
REMARK    4  A    between atoms: C_9  and  C_10
REMARK    5  A    between atoms: C_9  and  C_11
REMARK    6  A    between atoms: C_9  and  C_12
REMARK    7  A    between atoms: C_14  and  N_15
REMARK    8  A    between atoms: N_18  and  C_19
REMARK                            x       y       z     vdW  Elec       q    Type
REMARK                         _______ _______ _______ _____ _____    ______ ____
ROOT
ATOM      1  N   UNL     1       2.912   6.254  19.324  0.00  0.00    +0.000 N 
ATOM      2  N   UNL     1       2.384   5.210  20.013  0.00  0.00    +0.000 NA
ATOM      3  C   UNL     1       3.195   4.172  19.762  0.00  0.00    +0.000 A 
ATOM      4  C   UNL     1       4.305   4.565  18.983  0.00  0.00    +0.000 A 
ATOM      5  C   UNL     1       4.089   5.886  18.698  0.00  0.00    +0.000 A 
ENDROOT
BRANCH   1  10
ATOM      6  C   UNL     1       0.158  11.251  18.853  0.00  0.00    +0.000 C 
ATOM      7  C   UNL     1       0.887   9.945  18.975  0.00  0.00    +0.000 A 
ATOM      8  C   UNL     1       1.483   9.346  17.858  0.00  0.00    +0.000 A 
ATOM      9  C   UNL     1       2.171   8.136  17.980  0.00  0.00    +0.000 A 
ATOM     10  C   UNL     1       2.232   7.494  19.220  0.00  0.00    +0.000 A 
ATOM     11  C   UNL     1       1.635   8.088  20.343  0.00  0.00    +0.000 A 
ATOM     12  C   UNL     1       0.980   9.314  20.219  0.00  0.00    +0.000 A 
ENDBRANCH   1  10
BRANCH   5  13
ATOM     13  N   UNL     1       4.961   6.698  18.007  0.00  0.00    +0.000 N 
ATOM     14  C   UNL     1       5.589   6.380  16.787  0.00  0.00    +0.000 C 
ATOM     15  O   UNL     1       6.349   7.246  16.382  0.00  0.00    +0.000 OA
ATOM     16  N   UNL     1       5.180   5.216  16.185  0.00  0.00    +0.000 N 
ATOM     17  H   UNL     1       5.105   7.652  18.320  0.00  0.00    +0.000 HD
ATOM     18  H   UNL     1       4.362   4.744  16.541  0.00  0.00    +0.000 HD
BRANCH  16  19
ATOM     19  C   UNL     1       5.670   4.758  14.944  0.00  0.00    +0.000 A 
ATOM     20  C   UNL     1       4.861   4.045  14.059  0.00  0.00    +0.000 A 
ATOM     21  C   UNL     1       5.383   3.515  12.881  0.00  0.00    +0.000 A 
ATOM     22  C   UNL     1       6.719   3.720  12.569  0.00  0.00    +0.000 A 
ATOM     23 CL   UNL     1       7.363   3.022  11.137  0.00  0.00    +0.000 Cl
ATOM     24  C   UNL     1       7.530   4.477  13.413  0.00  0.00    +0.000 A 
ATOM     25  C   UNL     1       7.004   5.011  14.598  0.00  0.00    +0.000 A 
ENDBRANCH  16  19
ENDBRANCH   5  13
BRANCH   3  26
ATOM     26  C   UNL     1       2.917   2.774  20.297  0.00  0.00    +0.000 C 
ATOM     27  C   UNL     1       4.213   1.970  20.515  0.00  0.00    +0.000 C 
ATOM     28  C   UNL     1       2.170   2.869  21.646  0.00  0.00    +0.000 C 
ATOM     29  C   UNL     1       2.027   2.002  19.307  0.00  0.00    +0.000 C 
ENDBRANCH   3  26
TORSDOF 4
ENDMDL
MODEL 3
REMARK VINA RESULT:      -8.1      3.612      7.557
REMARK  Name = 
REMARK  8 active torsions:
REMARK  status: ('A' for Active; 'I' for Inactive)
REMARK    1  A    between atoms: C_1  and  C_2
REMARK    2  A    between atoms: C_5  and  N_6
REMARK    3  A    between atoms: C_8  and  C_9
REMARK    4  A    between atoms: C_9  and  C_10
REMARK    5  A    between atoms: C_9  and  C_11
REMARK    6  A    between atoms: C_9  and  C_12
REMARK    7  A    between atoms: C_14  and  N_15
REMARK    8  A    between atoms: N_18  and  C_19
REMARK                            x       y       z     vdW  Elec       q    Type
REMARK                         _______ _______ _______ _____ _____    ______ ____
ROOT
ATOM      1  N   UNL     1       4.095   4.788  17.609  0.00  0.00    +0.000 N 
ATOM      2  N   UNL     1       3.911   3.634  18.299  0.00  0.00    +0.000 NA
ATOM      3  C   UNL     1       3.094   3.951  19.314  0.00  0.00    +0.000 A 
ATOM      4  C   UNL     1       2.670   5.297  19.228  0.00  0.00    +0.000 A 
ATOM      5  C   UNL     1       3.340   5.811  18.151  0.00  0.00    +0.000 A 
ENDROOT
BRANCH   1  10
ATOM      6  C   UNL     1       7.852   5.147  13.305  0.00  0.00    +0.000 C 
ATOM      7  C   UNL     1       6.869   5.045  14.434  0.00  0.00    +0.000 A 
ATOM      8  C   UNL     1       5.674   4.330  14.285  0.00  0.00    +0.000 A 
ATOM      9  C   UNL     1       4.768   4.228  15.344  0.00  0.00    +0.000 A 
ATOM     10  C   UNL     1       5.035   4.879  16.551  0.00  0.00    +0.000 A 
ATOM     11  C   UNL     1       6.230   5.598  16.706  0.00  0.00    +0.000 A 
ATOM     12  C   UNL     1       7.146   5.666  15.656  0.00  0.00    +0.000 A 
ENDBRANCH   1  10
BRANCH   5  13
ATOM     13  N   UNL     1       3.179   7.088  17.660  0.00  0.00    +0.000 N 
ATOM     14  C   UNL     1       2.442   8.120  18.275  0.00  0.00    +0.000 C 
ATOM     15  O   UNL     1       2.415   9.158  17.631  0.00  0.00    +0.000 OA
ATOM     16  N   UNL     1       1.966   7.851  19.533  0.00  0.00    +0.000 N 
ATOM     17  H   UNL     1       3.706   7.375  16.841  0.00  0.00    +0.000 HD
ATOM     18  H   UNL     1       2.293   7.025  20.013  0.00  0.00    +0.000 HD
BRANCH  16  19
ATOM     19  C   UNL     1       1.243   8.777  20.315  0.00  0.00    +0.000 A 
ATOM     20  C   UNL     1       1.252   8.720  21.708  0.00  0.00    +0.000 A 
ATOM     21  C   UNL     1       0.457   9.578  22.465  0.00  0.00    +0.000 A 
ATOM     22  C   UNL     1      -0.336  10.520  21.827  0.00  0.00    +0.000 A 
ATOM     23 CL   UNL     1      -1.347  11.542  22.768  0.00  0.00    +0.000 Cl
ATOM     24  C   UNL     1      -0.316  10.631  20.437  0.00  0.00    +0.000 A 
ATOM     25  C   UNL     1       0.484   9.768  19.677  0.00  0.00    +0.000 A 
ENDBRANCH  16  19
ENDBRANCH   5  13
BRANCH   3  26
ATOM     26  C   UNL     1       2.687   2.942  20.378  0.00  0.00    +0.000 C 
ATOM     27  C   UNL     1       2.131   3.626  21.641  0.00  0.00    +0.000 C 
ATOM     28  C   UNL     1       1.601   1.998  19.817  0.00  0.00    +0.000 C 
ATOM     29  C   UNL     1       3.904   2.090  20.783  0.00  0.00    +0.000 C 
ENDBRANCH   3  26
TORSDOF 4
ENDMDL
MODEL 4
REMARK VINA RESULT:      -8.1      0.205      1.329
REMARK  Name = 
REMARK  8 active torsions:
REMARK  status: ('A' for Active; 'I' for Inactive)
REMARK    1  A    between atoms: C_1  and  C_2
REMARK    2  A    between atoms: C_5  and  N_6
REMARK    3  A    between atoms: C_8  and  C_9
REMARK    4  A    between atoms: C_9  and  C_10
REMARK    5  A    between atoms: C_9  and  C_11
REMARK    6  A    between atoms: C_9  and  C_12
REMARK    7  A    between atoms: C_14  and  N_15
REMARK    8  A    between atoms: N_18  and  C_19
REMARK                            x       y       z     vdW  Elec       q    Type
REMARK                         _______ _______ _______ _____ _____    ______ ____
ROOT
ATOM      1  N   UNL     1       2.850   6.289  19.368  0.00  0.00    +0.000 N 
ATOM      2  N   UNL     1       2.288   5.244  20.026  0.00  0.00    +0.000 NA
ATOM      3  C   UNL     1       3.108   4.205  19.813  0.00  0.00    +0.000 A 
ATOM      4  C   UNL     1       4.256   4.599  19.089  0.00  0.00    +0.000 A 
ATOM      5  C   UNL     1       4.056   5.921  18.799  0.00  0.00    +0.000 A 
ENDROOT
BRANCH   1  10
ATOM      6  C   UNL     1       0.128  11.290  18.778  0.00  0.00    +0.000 C 
ATOM      7  C   UNL     1       0.849   9.983  18.931  0.00  0.00    +0.000 A 
ATOM      8  C   UNL     1       1.447   9.358  17.830  0.00  0.00    +0.000 A 
ATOM      9  C   UNL     1       2.128   8.147  17.981  0.00  0.00    +0.000 A 
ATOM     10  C   UNL     1       2.178   7.530  19.234  0.00  0.00    +0.000 A 
ATOM     11  C   UNL     1       1.578   8.150  20.341  0.00  0.00    +0.000 A 
ATOM     12  C   UNL     1       0.930   9.377  20.189  0.00  0.00    +0.000 A 
ENDBRANCH   1  10
BRANCH   5  13
ATOM     13  N   UNL     1       4.962   6.733  18.154  0.00  0.00    +0.000 N 
ATOM     14  C   UNL     1       5.651   6.416  16.966  0.00  0.00    +0.000 C 
ATOM     15  O   UNL     1       6.430   7.283  16.601  0.00  0.00    +0.000 OA
ATOM     16  N   UNL     1       5.272   5.254  16.343  0.00  0.00    +0.000 N 
ATOM     17  H   UNL     1       5.090   7.688  18.475  0.00  0.00    +0.000 HD
ATOM     18  H   UNL     1       4.437   4.781  16.657  0.00  0.00    +0.000 HD
BRANCH  16  19
ATOM     19  C   UNL     1       5.824   4.797  15.127  0.00  0.00    +0.000 A 
ATOM     20  C   UNL     1       7.110   5.161  14.728  0.00  0.00    +0.000 A 
ATOM     21  C   UNL     1       7.606   4.783  13.482  0.00  0.00    +0.000 A 
ATOM     22  C   UNL     1       6.821   4.013  12.636  0.00  0.00    +0.000 A 
ATOM     23 CL   UNL     1       7.425   3.592  11.083  0.00  0.00    +0.000 Cl
ATOM     24  C   UNL     1       5.556   3.592  13.040  0.00  0.00    +0.000 A 
ATOM     25  C   UNL     1       5.058   3.972  14.294  0.00  0.00    +0.000 A 
ENDBRANCH  16  19
ENDBRANCH   5  13
BRANCH   3  26
ATOM     26  C   UNL     1       2.803   2.806  20.329  0.00  0.00    +0.000 C 
ATOM     27  C   UNL     1       2.069   2.837  21.683  0.00  0.00    +0.000 C 
ATOM     28  C   UNL     1       1.916   2.054  19.312  0.00  0.00    +0.000 C 
ATOM     29  C   UNL     1       4.112   2.015  20.505  0.00  0.00    +0.000 C 
ENDBRANCH   3  26
TORSDOF 4
ENDMDL
MODEL 5
REMARK VINA RESULT:      -8.0      3.618      7.579
REMARK  Name = 
REMARK  8 active torsions:
REMARK  status: ('A' for Active; 'I' for Inactive)
REMARK    1  A    between atoms: C_1  and  C_2
REMARK    2  A    between atoms: C_5  and  N_6
REMARK    3  A    between atoms: C_8  and  C_9
REMARK    4  A    between atoms: C_9  and  C_10
REMARK    5  A    between atoms: C_9  and  C_11
REMARK    6  A    between atoms: C_9  and  C_12
REMARK    7  A    between atoms: C_14  and  N_15
REMARK    8  A    between atoms: N_18  and  C_19
REMARK                            x       y       z     vdW  Elec       q    Type
REMARK                         _______ _______ _______ _____ _____    ______ ____
ROOT
ATOM      1  N   UNL     1       3.922   4.847  17.446  0.00  0.00    +0.000 N 
ATOM      2  N   UNL     1       3.610   3.673  18.052  0.00  0.00    +0.000 NA
ATOM      3  C   UNL     1       2.769   3.996  19.045  0.00  0.00    +0.000 A 
ATOM      4  C   UNL     1       2.460   5.375  19.025  0.00  0.00    +0.000 A 
ATOM      5  C   UNL     1       3.223   5.895  18.016  0.00  0.00    +0.000 A 
ENDROOT
BRANCH   1  10
ATOM      6  C   UNL     1       7.916   5.140  13.356  0.00  0.00    +0.000 C 
ATOM      7  C   UNL     1       6.871   5.055  14.429  0.00  0.00    +0.000 A 
ATOM      8  C   UNL     1       5.694   4.323  14.231  0.00  0.00    +0.000 A 
ATOM      9  C   UNL     1       4.729   4.238  15.238  0.00  0.00    +0.000 A 
ATOM     10  C   UNL     1       4.920   4.922  16.442  0.00  0.00    +0.000 A 
ATOM     11  C   UNL     1       6.097   5.658  16.646  0.00  0.00    +0.000 A 
ATOM     12  C   UNL     1       7.071   5.710  15.648  0.00  0.00    +0.000 A 
ENDBRANCH   1  10
BRANCH   5  13
ATOM     13  N   UNL     1       3.191   7.207  17.599  0.00  0.00    +0.000 N 
ATOM     14  C   UNL     1       2.469   8.249  18.215  0.00  0.00    +0.000 C 
ATOM     15  O   UNL     1       2.569   9.324  17.642  0.00  0.00    +0.000 OA
ATOM     16  N   UNL     1       1.863   7.938  19.405  0.00  0.00    +0.000 N 
ATOM     17  H   UNL     1       3.810   7.506  16.851  0.00  0.00    +0.000 HD
ATOM     18  H   UNL     1       2.090   7.063  19.855  0.00  0.00    +0.000 HD
BRANCH  16  19
ATOM     19  C   UNL     1       1.131   8.863  20.181  0.00  0.00    +0.000 A 
ATOM     20  C   UNL     1       0.403   9.895  19.589  0.00  0.00    +0.000 A 
ATOM     21  C   UNL     1      -0.235  10.858  20.368  0.00  0.00    +0.000 A 
ATOM     22  C   UNL     1      -0.168  10.777  21.751  0.00  0.00    +0.000 A 
ATOM     23 CL   UNL     1      -0.920  11.996  22.701  0.00  0.00    +0.000 Cl
ATOM     24  C   UNL     1       0.507   9.721  22.361  0.00  0.00    +0.000 A 
ATOM     25  C   UNL     1       1.148   8.752  21.577  0.00  0.00    +0.000 A 
ENDBRANCH  16  19
ENDBRANCH   5  13
BRANCH   3  26
ATOM     26  C   UNL     1       2.228   2.964  20.023  0.00  0.00    +0.000 C 
ATOM     27  C   UNL     1       3.315   2.458  20.991  0.00  0.00    +0.000 C 
ATOM     28  C   UNL     1       1.083   3.581  20.856  0.00  0.00    +0.000 C 
ATOM     29  C   UNL     1       1.665   1.756  19.251  0.00  0.00    +0.000 C 
ENDBRANCH   3  26
TORSDOF 4
ENDMDL
MODEL 6
REMARK VINA RESULT:      -8.0      3.595      7.513
REMARK  Name = 
REMARK  8 active torsions:
REMARK  status: ('A' for Active; 'I' for Inactive)
REMARK    1  A    between atoms: C_1  and  C_2
REMARK    2  A    between atoms: C_5  and  N_6
REMARK    3  A    between atoms: C_8  and  C_9
REMARK    4  A    between atoms: C_9  and  C_10
REMARK    5  A    between atoms: C_9  and  C_11
REMARK    6  A    between atoms: C_9  and  C_12
REMARK    7  A    between atoms: C_14  and  N_15
REMARK    8  A    between atoms: N_18  and  C_19
REMARK                            x       y       z     vdW  Elec       q    Type
REMARK                         _______ _______ _______ _____ _____    ______ ____
ROOT
ATOM      1  N   UNL     1       4.095   4.789  17.584  0.00  0.00    +0.000 N 
ATOM      2  N   UNL     1       3.919   3.645  18.293  0.00  0.00    +0.000 NA
ATOM      3  C   UNL     1       3.121   3.979  19.317  0.00  0.00    +0.000 A 
ATOM      4  C   UNL     1       2.701   5.324  19.221  0.00  0.00    +0.000 A 
ATOM      5  C   UNL     1       3.352   5.822  18.125  0.00  0.00    +0.000 A 
ENDROOT
BRANCH   1  10
ATOM      6  C   UNL     1       7.853   5.092  13.276  0.00  0.00    +0.000 C 
ATOM      7  C   UNL     1       6.866   5.021  14.405  0.00  0.00    +0.000 A 
ATOM      8  C   UNL     1       7.123   5.655  15.627  0.00  0.00    +0.000 A 
ATOM      9  C   UNL     1       6.195   5.595  16.670  0.00  0.00    +0.000 A 
ATOM     10  C   UNL     1       5.016   4.862  16.509  0.00  0.00    +0.000 A 
ATOM     11  C   UNL     1       4.754   4.222  15.287  0.00  0.00    +0.000 A 
ATOM     12  C   UNL     1       5.670   4.316  14.239  0.00  0.00    +0.000 A 
ENDBRANCH   1  10
BRANCH   5  13
ATOM     13  N   UNL     1       3.187   7.092  17.619  0.00  0.00    +0.000 N 
ATOM     14  C   UNL     1       2.433   8.124  18.214  0.00  0.00    +0.000 C 
ATOM     15  O   UNL     1       2.406   9.155  17.560  0.00  0.00    +0.000 OA
ATOM     16  N   UNL     1       1.942   7.863  19.468  0.00  0.00    +0.000 N 
ATOM     17  H   UNL     1       3.724   7.376  16.805  0.00  0.00    +0.000 HD
ATOM     18  H   UNL     1       2.269   7.044  19.960  0.00  0.00    +0.000 HD
BRANCH  16  19
ATOM     19  C   UNL     1       1.199   8.789  20.231  0.00  0.00    +0.000 A 
ATOM     20  C   UNL     1       0.622   9.917  19.647  0.00  0.00    +0.000 A 
ATOM     21  C   UNL     1      -0.026  10.874  20.426  0.00  0.00    +0.000 A 
ATOM     22  C   UNL     1      -0.121  10.691  21.798  0.00  0.00    +0.000 A 
ATOM     23 CL   UNL     1      -0.881  11.900  22.754  0.00  0.00    +0.000 Cl
ATOM     24  C   UNL     1       0.400   9.543  22.392  0.00  0.00    +0.000 A 
ATOM     25  C   UNL     1       1.051   8.581  21.608  0.00  0.00    +0.000 A 
ENDBRANCH  16  19
ENDBRANCH   5  13
BRANCH   3  26
ATOM     26  C   UNL     1       2.730   2.986  20.402  0.00  0.00    +0.000 C 
ATOM     27  C   UNL     1       2.176   3.688  21.657  0.00  0.00    +0.000 C 
ATOM     28  C   UNL     1       1.648   2.022  19.865  0.00  0.00    +0.000 C 
ATOM     29  C   UNL     1       3.956   2.152  20.815  0.00  0.00    +0.000 C 
ENDBRANCH   3  26
TORSDOF 4
ENDMDL
MODEL 7
REMARK VINA RESULT:      -8.0      3.618      7.580
REMARK  Name = 
REMARK  8 active torsions:
REMARK  status: ('A' for Active; 'I' for Inactive)
REMARK    1  A    between atoms: C_1  and  C_2
REMARK    2  A    between atoms: C_5  and  N_6
REMARK    3  A    between atoms: C_8  and  C_9
REMARK    4  A    between atoms: C_9  and  C_10
REMARK    5  A    between atoms: C_9  and  C_11
REMARK    6  A    between atoms: C_9  and  C_12
REMARK    7  A    between atoms: C_14  and  N_15
REMARK    8  A    between atoms: N_18  and  C_19
REMARK                            x       y       z     vdW  Elec       q    Type
REMARK                         _______ _______ _______ _____ _____    ______ ____
ROOT
ATOM      1  N   UNL     1       4.066   4.787  17.601  0.00  0.00    +0.000 N 
ATOM      2  N   UNL     1       3.892   3.636  18.298  0.00  0.00    +0.000 NA
ATOM      3  C   UNL     1       3.080   3.955  19.316  0.00  0.00    +0.000 A 
ATOM      4  C   UNL     1       2.650   5.298  19.228  0.00  0.00    +0.000 A 
ATOM      5  C   UNL     1       3.310   5.810  18.144  0.00  0.00    +0.000 A 
ENDROOT
BRANCH   1  10
ATOM      6  C   UNL     1       7.868   5.159  13.337  0.00  0.00    +0.000 C 
ATOM      7  C   UNL     1       6.870   5.070  14.454  0.00  0.00    +0.000 A 
ATOM      8  C   UNL     1       7.107   5.697  15.684  0.00  0.00    +0.000 A 
ATOM      9  C   UNL     1       6.168   5.620  16.716  0.00  0.00    +0.000 A 
ATOM     10  C   UNL     1       4.998   4.877  16.537  0.00  0.00    +0.000 A 
ATOM     11  C   UNL     1       4.755   4.245  15.307  0.00  0.00    +0.000 A 
ATOM     12  C   UNL     1       5.682   4.355  14.270  0.00  0.00    +0.000 A 
ENDBRANCH   1  10
BRANCH   5  13
ATOM     13  N   UNL     1       3.140   7.083  17.647  0.00  0.00    +0.000 N 
ATOM     14  C   UNL     1       2.410   8.118  18.266  0.00  0.00    +0.000 C 
ATOM     15  O   UNL     1       2.373   9.152  17.617  0.00  0.00    +0.000 OA
ATOM     16  N   UNL     1       1.952   7.856  19.533  0.00  0.00    +0.000 N 
ATOM     17  H   UNL     1       3.656   7.367  16.820  0.00  0.00    +0.000 HD
ATOM     18  H   UNL     1       2.287   7.033  20.012  0.00  0.00    +0.000 HD
BRANCH  16  19
ATOM     19  C   UNL     1       1.238   8.785  20.319  0.00  0.00    +0.000 A 
ATOM     20  C   UNL     1       1.262   8.732  21.712  0.00  0.00    +0.000 A 
ATOM     21  C   UNL     1       0.476   9.594  22.475  0.00  0.00    +0.000 A 
ATOM     22  C   UNL     1      -0.323  10.535  21.842  0.00  0.00    +0.000 A 
ATOM     23 CL   UNL     1      -1.323  11.561  22.791  0.00  0.00    +0.000 Cl
ATOM     24  C   UNL     1      -0.318  10.640  20.452  0.00  0.00    +0.000 A 
ATOM     25  C   UNL     1       0.474   9.774  19.686  0.00  0.00    +0.000 A 
ENDBRANCH  16  19
ENDBRANCH   5  13
BRANCH   3  26
ATOM     26  C   UNL     1       2.685   2.949  20.388  0.00  0.00    +0.000 C 
ATOM     27  C   UNL     1       3.872   2.068  20.821  0.00  0.00    +0.000 C 
ATOM     28  C   UNL     1       2.151   3.693  21.633  0.00  0.00    +0.000 C 
ATOM     29  C   UNL     1       1.567   2.032  19.860  0.00  0.00    +0.000 C 
ENDBRANCH   3  26
TORSDOF 4
ENDMDL
MODEL 8
REMARK VINA RESULT:      -7.6      4.066      7.454
REMARK  Name = 
REMARK  8 active torsions:
REMARK  status: ('A' for Active; 'I' for Inactive)
REMARK    1  A    between atoms: C_1  and  C_2
REMARK    2  A    between atoms: C_5  and  N_6
REMARK    3  A    between atoms: C_8  and  C_9
REMARK    4  A    between atoms: C_9  and  C_10
REMARK    5  A    between atoms: C_9  and  C_11
REMARK    6  A    between atoms: C_9  and  C_12
REMARK    7  A    between atoms: C_14  and  N_15
REMARK    8  A    between atoms: N_18  and  C_19
REMARK                            x       y       z     vdW  Elec       q    Type
REMARK                         _______ _______ _______ _____ _____    ______ ____
ROOT
ATOM      1  N   UNL     1      -0.367  12.092  18.678  0.00  0.00    +0.000 N 
ATOM      2  N   UNL     1      -1.385  12.228  17.792  0.00  0.00    +0.000 NA
ATOM      3  C   UNL     1      -2.095  11.094  17.888  0.00  0.00    +0.000 A 
ATOM      4  C   UNL     1      -1.588  10.258  18.908  0.00  0.00    +0.000 A 
ATOM      5  C   UNL     1      -0.477  10.904  19.377  0.00  0.00    +0.000 A 
ENDROOT
BRANCH   1  10
ATOM      6  C   UNL     1       3.926  15.873  18.906  0.00  0.00    +0.000 C 
ATOM      7  C   UNL     1       2.805  14.877  18.852  0.00  0.00    +0.000 A 
ATOM      8  C   UNL     1       3.014  13.583  18.361  0.00  0.00    +0.000 A 
ATOM      9  C   UNL     1       1.969  12.656  18.325  0.00  0.00    +0.000 A 
ATOM     10  C   UNL     1       0.690  13.035  18.744  0.00  0.00    +0.000 A 
ATOM     11  C   UNL     1       0.473  14.332  19.235  0.00  0.00    +0.000 A 
ATOM     12  C   UNL     1       1.531  15.240  19.301  0.00  0.00    +0.000 A 
ENDBRANCH   1  10
BRANCH   5  13
ATOM     13  N   UNL     1       0.300  10.474  20.430  0.00  0.00    +0.000 N 
ATOM     14  C   UNL     1       1.188   9.380  20.404  0.00  0.00    +0.000 C 
ATOM     15  O   UNL     1       1.744   9.170  21.471  0.00  0.00    +0.000 OA
ATOM     16  N   UNL     1       1.381   8.791  19.179  0.00  0.00    +0.000 N 
ATOM     17  H   UNL     1       0.340  11.030  21.278  0.00  0.00    +0.000 HD
ATOM     18  H   UNL     1       1.025   9.252  18.354  0.00  0.00    +0.000 HD
BRANCH  16  19
ATOM     19  C   UNL     1       2.261   7.711  18.956  0.00  0.00    +0.000 A 
ATOM     20  C   UNL     1       2.306   6.617  19.820  0.00  0.00    +0.000 A 
ATOM     21  C   UNL     1       3.246   5.603  19.642  0.00  0.00    +0.000 A 
ATOM     22  C   UNL     1       4.134   5.669  18.578  0.00  0.00    +0.000 A 
ATOM     23 CL   UNL     1       5.319   4.438  18.397  0.00  0.00    +0.000 Cl
ATOM     24  C   UNL     1       4.067   6.726  17.672  0.00  0.00    +0.000 A 
ATOM     25  C   UNL     1       3.121   7.744  17.850  0.00  0.00    +0.000 A 
ENDBRANCH  16  19
ENDBRANCH   5  13
BRANCH   3  26
ATOM     26  C   UNL     1      -3.300  10.810  17.003  0.00  0.00    +0.000 C 
ATOM     27  C   UNL     1      -4.464  11.780  17.280  0.00  0.00    +0.000 C 
ATOM     28  C   UNL     1      -2.899  10.942  15.516  0.00  0.00    +0.000 C 
ATOM     29  C   UNL     1      -3.797   9.373  17.241  0.00  0.00    +0.000 C 
ENDBRANCH   3  26
TORSDOF 4
ENDMDL
MODEL 9
REMARK VINA RESULT:      -7.6      5.474      9.739
REMARK  Name = 
REMARK  8 active torsions:
REMARK  status: ('A' for Active; 'I' for Inactive)
REMARK    1  A    between atoms: C_1  and  C_2
REMARK    2  A    between atoms: C_5  and  N_6
REMARK    3  A    between atoms: C_8  and  C_9
REMARK    4  A    between atoms: C_9  and  C_10
REMARK    5  A    between atoms: C_9  and  C_11
REMARK    6  A    between atoms: C_9  and  C_12
REMARK    7  A    between atoms: C_14  and  N_15
REMARK    8  A    between atoms: N_18  and  C_19
REMARK                            x       y       z     vdW  Elec       q    Type
REMARK                         _______ _______ _______ _____ _____    ______ ____
ROOT
ATOM      1  N   UNL     1      -1.154  14.195  20.197  0.00  0.00    +0.000 N 
ATOM      2  N   UNL     1      -0.456  15.356  20.271  0.00  0.00    +0.000 NA
ATOM      3  C   UNL     1       0.285  15.398  19.153  0.00  0.00    +0.000 A 
ATOM      4  C   UNL     1      -0.004  14.305  18.307  0.00  0.00    +0.000 A 
ATOM      5  C   UNL     1      -0.902  13.544  19.004  0.00  0.00    +0.000 A 
ENDROOT
BRANCH   1  10
ATOM      6  C   UNL     1      -4.342  12.320  24.567  0.00  0.00    +0.000 C 
ATOM      7  C   UNL     1      -3.506  12.819  23.425  0.00  0.00    +0.000 A 
ATOM      8  C   UNL     1      -3.990  13.802  22.554  0.00  0.00    +0.000 A 
ATOM      9  C   UNL     1      -3.202  14.272  21.500  0.00  0.00    +0.000 A 
ATOM     10  C   UNL     1      -1.933  13.727  21.286  0.00  0.00    +0.000 A 
ATOM     11  C   UNL     1      -1.443  12.739  22.154  0.00  0.00    +0.000 A 
ATOM     12  C   UNL     1      -2.222  12.301  23.225  0.00  0.00    +0.000 A 
ENDBRANCH   1  10
BRANCH   5  13
ATOM     13  N   UNL     1      -1.508  12.403  18.526  0.00  0.00    +0.000 N 
ATOM     14  C   UNL     1      -0.927  11.120  18.478  0.00  0.00    +0.000 C 
ATOM     15  O   UNL     1      -1.648  10.270  17.979  0.00  0.00    +0.000 OA
ATOM     16  N   UNL     1       0.295  10.991  19.088  0.00  0.00    +0.000 N 
ATOM     17  H   UNL     1      -2.492  12.431  18.275  0.00  0.00    +0.000 HD
ATOM     18  H   UNL     1       0.635  11.746  19.667  0.00  0.00    +0.000 HD
BRANCH  16  19
ATOM     19  C   UNL     1       1.008   9.776  19.172  0.00  0.00    +0.000 A 
ATOM     20  C   UNL     1       1.678   9.246  18.069  0.00  0.00    +0.000 A 
ATOM     21  C   UNL     1       2.296   7.999  18.139  0.00  0.00    +0.000 A 
ATOM     22  C   UNL     1       2.267   7.285  19.328  0.00  0.00    +0.000 A 
ATOM     23 CL   UNL     1       2.992   5.727  19.389  0.00  0.00    +0.000 Cl
ATOM     24  C   UNL     1       1.651   7.823  20.457  0.00  0.00    +0.000 A 
ATOM     25  C   UNL     1       1.031   9.077  20.386  0.00  0.00    +0.000 A 
ENDBRANCH  16  19
ENDBRANCH   5  13
BRANCH   3  26
ATOM     26  C   UNL     1       1.275  16.520  18.875  0.00  0.00    +0.000 C 
ATOM     27  C   UNL     1       1.694  17.255  20.162  0.00  0.00    +0.000 C 
ATOM     28  C   UNL     1       2.544  15.944  18.207  0.00  0.00    +0.000 C 
ATOM     29  C   UNL     1       0.647  17.545  17.913  0.00  0.00    +0.000 C 
ENDBRANCH   3  26
TORSDOF 4
ENDMDL
