MODEL 1
REMARK VINA RESULT:      -8.8      0.000      0.000
REMARK  Name = 
REMARK  3 active torsions:
REMARK  status: ('A' for Active; 'I' for Inactive)
REMARK    1  A    between atoms: N_4  and  C_5
REMARK    2  A    between atoms: C_5  and  C_7
REMARK    3  A    between atoms: C_15  and  C_16
REMARK                            x       y       z     vdW  Elec       q    Type
REMARK                         _______ _______ _______ _____ _____    ______ ____
ROOT
ATOM      1  C   UNL     1       2.221   7.150  19.214  0.00  0.00    +0.000 A 
ATOM      2  C   UNL     1       1.536   6.706  20.342  0.00  0.00    +0.000 A 
ATOM      3  C   UNL     1       1.796   5.433  20.853  0.00  0.00    +0.000 A 
ATOM      4  C   UNL     1       2.767   4.591  20.267  0.00  0.00    +0.000 A 
ATOM      5  C   UNL     1       3.025   3.326  20.794  0.00  0.00    +0.000 A 
ATOM      6  F   UNL     1       2.343   2.867  21.856  0.00  0.00    +0.000 F 
ATOM      7  C   UNL     1       3.998   2.536  20.219  0.00  0.00    +0.000 A 
ATOM      8  N   UNL     1       4.738   2.916  19.156  0.00  0.00    +0.000 NA
ATOM      9  C   UNL     1       4.487   4.135  18.597  0.00  0.00    +0.000 A 
ATOM     10  C   UNL     1       3.492   5.020  19.129  0.00  0.00    +0.000 A 
ATOM     11  C   UNL     1       3.161   6.301  18.613  0.00  0.00    +0.000 A 
ENDROOT
BRANCH   9  12
ATOM     12  C   UNL     1       5.349   4.473  17.422  0.00  0.00    +0.000 A 
ATOM     13  N   UNL     1       4.843   4.081  16.209  0.00  0.00    +0.000 NA
ATOM     14  C   UNL     1       5.599   4.245  15.098  0.00  0.00    +0.000 A 
ATOM     15  C   UNL     1       6.836   4.846  15.114  0.00  0.00    +0.000 A 
ATOM     16  F   UNL     1       7.550   4.970  13.990  0.00  0.00    +0.000 F 
ATOM     17  C   UNL     1       7.337   5.306  16.318  0.00  0.00    +0.000 A 
ATOM     18  C   UNL     1       6.599   5.114  17.493  0.00  0.00    +0.000 A 
ATOM     19 CL   UNL     1       7.349   5.639  18.959  0.00  0.00    +0.000 Cl
ENDBRANCH   9  12
BRANCH   1  20
ATOM     20  C   UNL     1       1.998   8.502  18.614  0.00  0.00    +0.000 C 
ATOM     21  O   UNL     1       2.384   8.711  17.465  0.00  0.00    +0.000 OA
BRANCH  20  25
ATOM     22  N   UNL     1      -0.350  10.937  19.684  0.00  0.00    +0.000 N 
ATOM     23  C   UNL     1       0.335  10.049  18.926  0.00  0.00    +0.000 C 
ATOM     24  N   UNL     1      -0.217   9.999  17.690  0.00  0.00    +0.000 N 
ATOM     25  N   UNL     1       1.347   9.418  19.408  0.00  0.00    +0.000 NA
ATOM     26  H   UNL     1      -0.639  11.753  19.158  0.00  0.00    +0.000 HD
ATOM     27  H   UNL     1       0.170  11.192  20.516  0.00  0.00    +0.000 HD
ATOM     28  H   UNL     1      -1.225   9.905  17.715  0.00  0.00    +0.000 HD
ATOM     29  H   UNL     1       0.194   9.244  17.132  0.00  0.00    +0.000 HD
ENDBRANCH  20  25
ENDBRANCH   1  20
TORSDOF 3
ENDMDL
MODEL 2
REMARK VINA RESULT:      -8.4      2.204      2.597
REMARK  Name = 
REMARK  3 active torsions:
REMARK  status: ('A' for Active; 'I' for Inactive)
REMARK    1  A    between atoms: N_4  and  C_5
REMARK    2  A    between atoms: C_5  and  C_7
REMARK    3  A    between atoms: C_15  and  C_16
REMARK                            x       y       z     vdW  Elec       q    Type
REMARK                         _______ _______ _______ _____ _____    ______ ____
ROOT
ATOM      1  C   UNL     1       1.762   6.471  20.288  0.00  0.00    +0.000 A 
ATOM      2  C   UNL     1       0.808   5.492  20.554  0.00  0.00    +0.000 A 
ATOM      3  C   UNL     1       1.106   4.150  20.302  0.00  0.00    +0.000 A 
ATOM      4  C   UNL     1       2.371   3.759  19.811  0.00  0.00    +0.000 A 
ATOM      5  C   UNL     1       2.659   2.415  19.575  0.00  0.00    +0.000 A 
ATOM      6  F   UNL     1       1.736   1.463  19.786  0.00  0.00    +0.000 F 
ATOM      7  C   UNL     1       3.911   2.058  19.122  0.00  0.00    +0.000 A 
ATOM      8  N   UNL     1       4.903   2.944  18.889  0.00  0.00    +0.000 NA
ATOM      9  C   UNL     1       4.642   4.270  19.079  0.00  0.00    +0.000 A 
ATOM     10  C   UNL     1       3.367   4.730  19.546  0.00  0.00    +0.000 A 
ATOM     11  C   UNL     1       3.006   6.085  19.769  0.00  0.00    +0.000 A 
ENDROOT
BRANCH   9  12
ATOM     12  C   UNL     1       5.795   5.180  18.793  0.00  0.00    +0.000 A 
ATOM     13  N   UNL     1       6.798   5.144  19.728  0.00  0.00    +0.000 NA
ATOM     14  C   UNL     1       7.832   6.009  19.614  0.00  0.00    +0.000 A 
ATOM     15  C   UNL     1       7.963   6.890  18.566  0.00  0.00    +0.000 A 
ATOM     16  F   UNL     1       8.997   7.736  18.508  0.00  0.00    +0.000 F 
ATOM     17  C   UNL     1       6.994   6.898  17.578  0.00  0.00    +0.000 A 
ATOM     18  C   UNL     1       5.889   6.045  17.688  0.00  0.00    +0.000 A 
ATOM     19 CL   UNL     1       4.686   6.193  16.455  0.00  0.00    +0.000 Cl
ENDBRANCH   9  12
BRANCH   1  20
ATOM     20  C   UNL     1       1.516   7.926  20.537  0.00  0.00    +0.000 C 
ATOM     21  O   UNL     1       1.228   8.291  21.675  0.00  0.00    +0.000 OA
BRANCH  20  25
ATOM     22  N   UNL     1       0.895  10.538  18.217  0.00  0.00    +0.000 N 
ATOM     23  C   UNL     1       0.779   9.680  19.258  0.00  0.00    +0.000 C 
ATOM     24  N   UNL     1      -0.346   9.974  19.954  0.00  0.00    +0.000 N 
ATOM     25  N   UNL     1       1.655   8.758  19.451  0.00  0.00    +0.000 NA
ATOM     26  H   UNL     1       0.002  10.750  17.789  0.00  0.00    +0.000 HD
ATOM     27  H   UNL     1       1.568  10.204  17.536  0.00  0.00    +0.000 HD
ATOM     28  H   UNL     1      -0.433  10.962  20.157  0.00  0.00    +0.000 HD
ATOM     29  H   UNL     1      -0.397   9.430  20.821  0.00  0.00    +0.000 HD
ENDBRANCH  20  25
ENDBRANCH   1  20
TORSDOF 3
ENDMDL
MODEL 3
REMARK VINA RESULT:      -8.3      2.323      2.760
REMARK  Name = 
REMARK  3 active torsions:
REMARK  status: ('A' for Active; 'I' for Inactive)
REMARK    1  A    between atoms: N_4  and  C_5
REMARK    2  A    between atoms: C_5  and  C_7
REMARK    3  A    between atoms: C_15  and  C_16
REMARK                            x       y       z     vdW  Elec       q    Type
REMARK                         _______ _______ _______ _____ _____    ______ ____
ROOT
ATOM      1  C   UNL     1       1.699   6.410  20.288  0.00  0.00    +0.000 A 
ATOM      2  C   UNL     1       0.729   5.437  20.511  0.00  0.00    +0.000 A 
ATOM      3  C   UNL     1       1.002   4.103  20.198  0.00  0.00    +0.000 A 
ATOM      4  C   UNL     1       2.259   3.712  19.687  0.00  0.00    +0.000 A 
ATOM      5  C   UNL     1       2.522   2.375  19.389  0.00  0.00    +0.000 A 
ATOM      6  F   UNL     1       1.583   1.431  19.559  0.00  0.00    +0.000 F 
ATOM      7  C   UNL     1       3.767   2.017  18.917  0.00  0.00    +0.000 A 
ATOM      8  N   UNL     1       4.774   2.895  18.722  0.00  0.00    +0.000 NA
ATOM      9  C   UNL     1       4.538   4.216  18.973  0.00  0.00    +0.000 A 
ATOM     10  C   UNL     1       3.272   4.677  19.464  0.00  0.00    +0.000 A 
ATOM     11  C   UNL     1       2.935   6.026  19.748  0.00  0.00    +0.000 A 
ENDROOT
BRANCH   9  12
ATOM     12  C   UNL     1       5.706   5.117  18.725  0.00  0.00    +0.000 A 
ATOM     13  N   UNL     1       6.674   5.077  19.695  0.00  0.00    +0.000 NA
ATOM     14  C   UNL     1       7.718   5.935  19.616  0.00  0.00    +0.000 A 
ATOM     15  C   UNL     1       7.892   6.813  18.570  0.00  0.00    +0.000 A 
ATOM     16  F   UNL     1       8.933   7.651  18.546  0.00  0.00    +0.000 F 
ATOM     17  C   UNL     1       6.959   6.823  17.548  0.00  0.00    +0.000 A 
ATOM     18  C   UNL     1       5.845   5.978  17.622  0.00  0.00    +0.000 A 
ATOM     19 CL   UNL     1       4.688   6.130  16.346  0.00  0.00    +0.000 Cl
ENDBRANCH   9  12
BRANCH   1  20
ATOM     20  C   UNL     1       1.480   7.857  20.602  0.00  0.00    +0.000 C 
ATOM     21  O   UNL     1       1.744   8.696  19.742  0.00  0.00    +0.000 OA
BRANCH  20  25
ATOM     22  N   UNL     1      -0.473   9.335  23.169  0.00  0.00    +0.000 N 
ATOM     23  C   UNL     1       0.073   9.051  21.964  0.00  0.00    +0.000 C 
ATOM     24  N   UNL     1      -0.465   9.866  21.025  0.00  0.00    +0.000 N 
ATOM     25  N   UNL     1       0.970   8.135  21.849  0.00  0.00    +0.000 NA
ATOM     26  H   UNL     1      -0.626  10.328  23.300  0.00  0.00    +0.000 HD
ATOM     27  H   UNL     1       0.070   8.936  23.925  0.00  0.00    +0.000 HD
ATOM     28  H   UNL     1      -1.476   9.906  21.077  0.00  0.00    +0.000 HD
ATOM     29  H   UNL     1      -0.171   9.591  20.083  0.00  0.00    +0.000 HD
ENDBRANCH  20  25
ENDBRANCH   1  20
TORSDOF 3
ENDMDL
MODEL 4
REMARK VINA RESULT:      -8.0      2.706      5.030
REMARK  Name = 
REMARK  3 active torsions:
REMARK  status: ('A' for Active; 'I' for Inactive)
REMARK    1  A    between atoms: N_4  and  C_5
REMARK    2  A    between atoms: C_5  and  C_7
REMARK    3  A    between atoms: C_15  and  C_16
REMARK                            x       y       z     vdW  Elec       q    Type
REMARK                         _______ _______ _______ _____ _____    ______ ____
ROOT
ATOM      1  C   UNL     1       2.839   4.252  20.429  0.00  0.00    +0.000 A 
ATOM      2  C   UNL     1       1.807   4.963  21.037  0.00  0.00    +0.000 A 
ATOM      3  C   UNL     1       1.521   6.263  20.614  0.00  0.00    +0.000 A 
ATOM      4  C   UNL     1       2.237   6.866  19.557  0.00  0.00    +0.000 A 
ATOM      5  C   UNL     1       1.933   8.161  19.138  0.00  0.00    +0.000 A 
ATOM      6  F   UNL     1       0.970   8.875  19.742  0.00  0.00    +0.000 F 
ATOM      7  C   UNL     1       2.630   8.715  18.085  0.00  0.00    +0.000 A 
ATOM      8  N   UNL     1       3.608   8.071  17.414  0.00  0.00    +0.000 NA
ATOM      9  C   UNL     1       3.952   6.814  17.821  0.00  0.00    +0.000 A 
ATOM     10  C   UNL     1       3.281   6.163  18.908  0.00  0.00    +0.000 A 
ATOM     11  C   UNL     1       3.571   4.864  19.402  0.00  0.00    +0.000 A 
ENDROOT
BRANCH   9  12
ATOM     12  C   UNL     1       5.047   6.178  17.025  0.00  0.00    +0.000 A 
ATOM     13  N   UNL     1       4.784   6.057  15.685  0.00  0.00    +0.000 NA
ATOM     14  C   UNL     1       5.668   5.397  14.900  0.00  0.00    +0.000 A 
ATOM     15  C   UNL     1       6.856   4.889  15.370  0.00  0.00    +0.000 A 
ATOM     16  F   UNL     1       7.689   4.231  14.555  0.00  0.00    +0.000 F 
ATOM     17  C   UNL     1       7.170   5.056  16.707  0.00  0.00    +0.000 A 
ATOM     18  C   UNL     1       6.258   5.697  17.555  0.00  0.00    +0.000 A 
ATOM     19 CL   UNL     1       6.696   5.775  19.225  0.00  0.00    +0.000 Cl
ENDBRANCH   9  12
BRANCH   1  20
ATOM     20  C   UNL     1       3.200   2.855  20.825  0.00  0.00    +0.000 C 
ATOM     21  O   UNL     1       2.792   2.422  21.902  0.00  0.00    +0.000 OA
BRANCH  20  25
ATOM     22  N   UNL     1       4.078   0.842  18.039  0.00  0.00    +0.000 N 
ATOM     23  C   UNL     1       3.366   1.528  18.963  0.00  0.00    +0.000 C 
ATOM     24  N   UNL     1       2.045   1.412  18.685  0.00  0.00    +0.000 N 
ATOM     25  N   UNL     1       3.958   2.146  19.924  0.00  0.00    +0.000 NA
ATOM     26  H   UNL     1       3.630  -0.025  17.769  0.00  0.00    +0.000 HD
ATOM     27  H   UNL     1       5.033   0.692  18.345  0.00  0.00    +0.000 HD
ATOM     28  H   UNL     1       1.834   1.592  17.711  0.00  0.00    +0.000 HD
ATOM     29  H   UNL     1       1.485   2.023  19.286  0.00  0.00    +0.000 HD
ENDBRANCH  20  25
ENDBRANCH   1  20
TORSDOF 3
ENDMDL
MODEL 5
REMARK VINA RESULT:      -8.0      3.518      5.330
REMARK  Name = 
REMARK  3 active torsions:
REMARK  status: ('A' for Active; 'I' for Inactive)
REMARK    1  A    between atoms: N_4  and  C_5
REMARK    2  A    between atoms: C_5  and  C_7
REMARK    3  A    between atoms: C_15  and  C_16
REMARK                            x       y       z     vdW  Elec       q    Type
REMARK                         _______ _______ _______ _____ _____    ______ ____
ROOT
ATOM      1  C   UNL     1       3.577   4.964  18.397  0.00  0.00    +0.000 A 
ATOM      2  C   UNL     1       3.135   3.977  17.519  0.00  0.00    +0.000 A 
ATOM      3  C   UNL     1       3.856   3.715  16.352  0.00  0.00    +0.000 A 
ATOM      4  C   UNL     1       5.048   4.411  16.055  0.00  0.00    +0.000 A 
ATOM      5  C   UNL     1       5.765   4.132  14.891  0.00  0.00    +0.000 A 
ATOM      6  F   UNL     1       5.329   3.213  14.015  0.00  0.00    +0.000 F 
ATOM      7  C   UNL     1       6.941   4.806  14.639  0.00  0.00    +0.000 A 
ATOM      8  N   UNL     1       7.459   5.740  15.466  0.00  0.00    +0.000 NA
ATOM      9  C   UNL     1       6.765   6.059  16.596  0.00  0.00    +0.000 A 
ATOM     10  C   UNL     1       5.533   5.409  16.935  0.00  0.00    +0.000 A 
ATOM     11  C   UNL     1       4.743   5.677  18.084  0.00  0.00    +0.000 A 
ENDROOT
BRANCH   9  12
ATOM     12  C   UNL     1       7.410   7.105  17.450  0.00  0.00    +0.000 A 
ATOM     13  N   UNL     1       7.309   8.383  16.964  0.00  0.00    +0.000 NA
ATOM     14  C   UNL     1       7.953   9.383  17.609  0.00  0.00    +0.000 A 
ATOM     15  C   UNL     1       8.660   9.193  18.774  0.00  0.00    +0.000 A 
ATOM     16  F   UNL     1       9.291  10.213  19.365  0.00  0.00    +0.000 F 
ATOM     17  C   UNL     1       8.720   7.922  19.316  0.00  0.00    +0.000 A 
ATOM     18  C   UNL     1       8.100   6.857  18.650  0.00  0.00    +0.000 A 
ATOM     19 CL   UNL     1       8.310   5.293  19.355  0.00  0.00    +0.000 Cl
ENDBRANCH   9  12
BRANCH   1  20
ATOM     20  C   UNL     1       2.860   5.296  19.667  0.00  0.00    +0.000 C 
ATOM     21  O   UNL     1       2.214   6.342  19.726  0.00  0.00    +0.000 OA
BRANCH  20  25
ATOM     22  N   UNL     1       2.009   2.726  21.960  0.00  0.00    +0.000 N 
ATOM     23  C   UNL     1       1.937   3.664  20.987  0.00  0.00    +0.000 C 
ATOM     24  N   UNL     1       0.680   3.688  20.482  0.00  0.00    +0.000 N 
ATOM     25  N   UNL     1       2.966   4.374  20.682  0.00  0.00    +0.000 NA
ATOM     26  H   UNL     1       1.169   2.691  22.526  0.00  0.00    +0.000 HD
ATOM     27  H   UNL     1       2.839   2.845  22.528  0.00  0.00    +0.000 HD
ATOM     28  H   UNL     1       0.330   2.764  20.261  0.00  0.00    +0.000 HD
ATOM     29  H   UNL     1       0.624   4.293  19.657  0.00  0.00    +0.000 HD
ENDBRANCH  20  25
ENDBRANCH   1  20
TORSDOF 3
ENDMDL
MODEL 6
REMARK VINA RESULT:      -7.9      1.357      1.580
REMARK  Name = 
REMARK  3 active torsions:
REMARK  status: ('A' for Active; 'I' for Inactive)
REMARK    1  A    between atoms: N_4  and  C_5
REMARK    2  A    between atoms: C_5  and  C_7
REMARK    3  A    between atoms: C_15  and  C_16
REMARK                            x       y       z     vdW  Elec       q    Type
REMARK                         _______ _______ _______ _____ _____    ______ ____
ROOT
ATOM      1  C   UNL     1       2.162   7.229  19.307  0.00  0.00    +0.000 A 
ATOM      2  C   UNL     1       1.399   6.970  20.443  0.00  0.00    +0.000 A 
ATOM      3  C   UNL     1       1.518   5.737  21.089  0.00  0.00    +0.000 A 
ATOM      4  C   UNL     1       2.420   4.753  20.633  0.00  0.00    +0.000 A 
ATOM      5  C   UNL     1       2.536   3.530  21.294  0.00  0.00    +0.000 A 
ATOM      6  F   UNL     1       1.777   3.249  22.365  0.00  0.00    +0.000 F 
ATOM      7  C   UNL     1       3.446   2.597  20.843  0.00  0.00    +0.000 A 
ATOM      8  N   UNL     1       4.255   2.795  19.780  0.00  0.00    +0.000 NA
ATOM      9  C   UNL     1       4.143   3.968  19.092  0.00  0.00    +0.000 A 
ATOM     10  C   UNL     1       3.222   4.992  19.489  0.00  0.00    +0.000 A 
ATOM     11  C   UNL     1       3.035   6.238  18.835  0.00  0.00    +0.000 A 
ENDROOT
BRANCH   9  12
ATOM     12  C   UNL     1       5.073   4.100  17.927  0.00  0.00    +0.000 A 
ATOM     13  N   UNL     1       6.355   4.460  18.257  0.00  0.00    +0.000 NA
ATOM     14  C   UNL     1       7.242   4.709  17.266  0.00  0.00    +0.000 A 
ATOM     15  C   UNL     1       6.939   4.560  15.932  0.00  0.00    +0.000 A 
ATOM     16  F   UNL     1       7.848   4.834  14.990  0.00  0.00    +0.000 F 
ATOM     17  C   UNL     1       5.670   4.135  15.581  0.00  0.00    +0.000 A 
ATOM     18  C   UNL     1       4.716   3.910  16.581  0.00  0.00    +0.000 A 
ATOM     19 CL   UNL     1       3.134   3.473  16.039  0.00  0.00    +0.000 Cl
ENDBRANCH   9  12
BRANCH   1  20
ATOM     20  C   UNL     1       2.093   8.527  18.566  0.00  0.00    +0.000 C 
ATOM     21  O   UNL     1       2.497   8.568  17.404  0.00  0.00    +0.000 OA
BRANCH  20  25
ATOM     22  N   UNL     1      -0.059  11.214  19.425  0.00  0.00    +0.000 N 
ATOM     23  C   UNL     1       0.520  10.183  18.766  0.00  0.00    +0.000 C 
ATOM     24  N   UNL     1      -0.149   9.961  17.609  0.00  0.00    +0.000 N 
ATOM     25  N   UNL     1       1.552   9.589  19.253  0.00  0.00    +0.000 NA
ATOM     26  H   UNL     1      -0.370  11.947  18.800  0.00  0.00    +0.000 HD
ATOM     27  H   UNL     1       0.547  11.573  20.154  0.00  0.00    +0.000 HD
ATOM     28  H   UNL     1      -1.153   9.921  17.740  0.00  0.00    +0.000 HD
ATOM     29  H   UNL     1       0.180   9.107  17.149  0.00  0.00    +0.000 HD
ENDBRANCH  20  25
ENDBRANCH   1  20
TORSDOF 3
ENDMDL
MODEL 7
REMARK VINA RESULT:      -7.7      1.497      1.656
REMARK  Name = 
REMARK  3 active torsions:
REMARK  status: ('A' for Active; 'I' for Inactive)
REMARK    1  A    between atoms: N_4  and  C_5
REMARK    2  A    between atoms: C_5  and  C_7
REMARK    3  A    between atoms: C_15  and  C_16
REMARK                            x       y       z     vdW  Elec       q    Type
REMARK                         _______ _______ _______ _____ _____    ______ ____
ROOT
ATOM      1  C   UNL     1       1.984   6.204  19.810  0.00  0.00    +0.000 A 
ATOM      2  C   UNL     1       1.113   5.392  20.533  0.00  0.00    +0.000 A 
ATOM      3  C   UNL     1       1.157   4.007  20.362  0.00  0.00    +0.000 A 
ATOM      4  C   UNL     1       2.090   3.403  19.491  0.00  0.00    +0.000 A 
ATOM      5  C   UNL     1       2.130   2.018  19.338  0.00  0.00    +0.000 A 
ATOM      6  F   UNL     1       1.269   1.225  19.996  0.00  0.00    +0.000 F 
ATOM      7  C   UNL     1       3.070   1.453  18.502  0.00  0.00    +0.000 A 
ATOM      8  N   UNL     1       3.978   2.170  17.807  0.00  0.00    +0.000 NA
ATOM      9  C   UNL     1       3.944   3.530  17.909  0.00  0.00    +0.000 A 
ATOM     10  C   UNL     1       2.999   4.201  18.754  0.00  0.00    +0.000 A 
ATOM     11  C   UNL     1       2.887   5.606  18.920  0.00  0.00    +0.000 A 
ENDROOT
BRANCH   9  12
ATOM     12  C   UNL     1       4.983   4.243  17.103  0.00  0.00    +0.000 A 
ATOM     13  N   UNL     1       4.843   4.112  15.745  0.00  0.00    +0.000 NA
ATOM     14  C   UNL     1       5.794   4.631  14.934  0.00  0.00    +0.000 A 
ATOM     15  C   UNL     1       6.874   5.343  15.402  0.00  0.00    +0.000 A 
ATOM     16  F   UNL     1       7.796   5.822  14.559  0.00  0.00    +0.000 F 
ATOM     17  C   UNL     1       7.000   5.541  16.766  0.00  0.00    +0.000 A 
ATOM     18  C   UNL     1       6.056   4.981  17.635  0.00  0.00    +0.000 A 
ATOM     19 CL   UNL     1       6.349   5.204  19.324  0.00  0.00    +0.000 Cl
ENDBRANCH   9  12
BRANCH   1  20
ATOM     20  C   UNL     1       1.998   7.694  19.944  0.00  0.00    +0.000 C 
ATOM     21  O   UNL     1       1.839   8.189  21.059  0.00  0.00    +0.000 OA
BRANCH  20  25
ATOM     22  N   UNL     1       1.763  10.240  17.484  0.00  0.00    +0.000 N 
ATOM     23  C   UNL     1       1.559   9.497  18.597  0.00  0.00    +0.000 C 
ATOM     24  N   UNL     1       0.612  10.090  19.363  0.00  0.00    +0.000 N 
ATOM     25  N   UNL     1       2.213   8.405  18.787  0.00  0.00    +0.000 NA
ATOM     26  H   UNL     1       0.904  10.634  17.120  0.00  0.00    +0.000 HD
ATOM     27  H   UNL     1       2.265   9.716  16.777  0.00  0.00    +0.000 HD
ATOM     28  H   UNL     1       0.778  11.080  19.492  0.00  0.00    +0.000 HD
ATOM     29  H   UNL     1       0.526   9.625  20.272  0.00  0.00    +0.000 HD
ENDBRANCH  20  25
ENDBRANCH   1  20
TORSDOF 3
ENDMDL
MODEL 8
REMARK VINA RESULT:      -7.7      2.952      5.197
REMARK  Name = 
REMARK  3 active torsions:
REMARK  status: ('A' for Active; 'I' for Inactive)
REMARK    1  A    between atoms: N_4  and  C_5
REMARK    2  A    between atoms: C_5  and  C_7
REMARK    3  A    between atoms: C_15  and  C_16
REMARK                            x       y       z     vdW  Elec       q    Type
REMARK                         _______ _______ _______ _____ _____    ______ ____
ROOT
ATOM      1  C   UNL     1       2.746   4.281  20.528  0.00  0.00    +0.000 A 
ATOM      2  C   UNL     1       1.776   5.058  21.158  0.00  0.00    +0.000 A 
ATOM      3  C   UNL     1       1.517   6.350  20.695  0.00  0.00    +0.000 A 
ATOM      4  C   UNL     1       2.199   6.880  19.578  0.00  0.00    +0.000 A 
ATOM      5  C   UNL     1       1.923   8.168  19.119  0.00  0.00    +0.000 A 
ATOM      6  F   UNL     1       1.021   8.944  19.741  0.00  0.00    +0.000 F 
ATOM      7  C   UNL     1       2.583   8.649  18.008  0.00  0.00    +0.000 A 
ATOM      8  N   UNL     1       3.499   7.939  17.316  0.00  0.00    +0.000 NA
ATOM      9  C   UNL     1       3.815   6.687  17.759  0.00  0.00    +0.000 A 
ATOM     10  C   UNL     1       3.179   6.109  18.906  0.00  0.00    +0.000 A 
ATOM     11  C   UNL     1       3.445   4.820  19.439  0.00  0.00    +0.000 A 
ENDROOT
BRANCH   9  12
ATOM     12  C   UNL     1       4.841   5.975  16.935  0.00  0.00    +0.000 A 
ATOM     13  N   UNL     1       6.021   6.655  16.777  0.00  0.00    +0.000 NA
ATOM     14  C   UNL     1       6.970   6.141  15.961  0.00  0.00    +0.000 A 
ATOM     15  C   UNL     1       6.836   4.930  15.321  0.00  0.00    +0.000 A 
ATOM     16  F   UNL     1       7.798   4.474  14.512  0.00  0.00    +0.000 F 
ATOM     17  C   UNL     1       5.679   4.198  15.519  0.00  0.00    +0.000 A 
ATOM     18  C   UNL     1       4.659   4.721  16.324  0.00  0.00    +0.000 A 
ATOM     19 CL   UNL     1       3.216   3.777  16.434  0.00  0.00    +0.000 Cl
ENDBRANCH   9  12
BRANCH   1  20
ATOM     20  C   UNL     1       3.073   2.888  20.965  0.00  0.00    +0.000 C 
ATOM     21  O   UNL     1       2.614   2.478  22.030  0.00  0.00    +0.000 OA
BRANCH  20  25
ATOM     22  N   UNL     1       4.052   0.813  18.259  0.00  0.00    +0.000 N 
ATOM     23  C   UNL     1       3.307   1.522  19.138  0.00  0.00    +0.000 C 
ATOM     24  N   UNL     1       1.998   1.412  18.806  0.00  0.00    +0.000 N 
ATOM     25  N   UNL     1       3.863   2.155  20.111  0.00  0.00    +0.000 NA
ATOM     26  H   UNL     1       3.607  -0.055  17.987  0.00  0.00    +0.000 HD
ATOM     27  H   UNL     1       4.991   0.661  18.608  0.00  0.00    +0.000 HD
ATOM     28  H   UNL     1       1.830   1.574  17.820  0.00  0.00    +0.000 HD
ATOM     29  H   UNL     1       1.418   2.040  19.370  0.00  0.00    +0.000 HD
ENDBRANCH  20  25
ENDBRANCH   1  20
TORSDOF 3
ENDMDL
MODEL 9
REMARK VINA RESULT:      -7.4      3.054      6.289
REMARK  Name = 
REMARK  3 active torsions:
REMARK  status: ('A' for Active; 'I' for Inactive)
REMARK    1  A    between atoms: N_4  and  C_5
REMARK    2  A    between atoms: C_5  and  C_7
REMARK    3  A    between atoms: C_15  and  C_16
REMARK                            x       y       z     vdW  Elec       q    Type
REMARK                         _______ _______ _______ _____ _____    ______ ____
ROOT
ATOM      1  C   UNL     1       4.609   5.090  16.921  0.00  0.00    +0.000 A 
ATOM      2  C   UNL     1       4.803   3.775  17.338  0.00  0.00    +0.000 A 
ATOM      3  C   UNL     1       4.204   3.328  18.518  0.00  0.00    +0.000 A 
ATOM      4  C   UNL     1       3.375   4.174  19.287  0.00  0.00    +0.000 A 
ATOM      5  C   UNL     1       2.774   3.711  20.457  0.00  0.00    +0.000 A 
ATOM      6  F   UNL     1       2.986   2.460  20.894  0.00  0.00    +0.000 F 
ATOM      7  C   UNL     1       1.947   4.550  21.173  0.00  0.00    +0.000 A 
ATOM      8  N   UNL     1       1.671   5.820  20.807  0.00  0.00    +0.000 NA
ATOM      9  C   UNL     1       2.269   6.313  19.685  0.00  0.00    +0.000 A 
ATOM     10  C   UNL     1       3.145   5.511  18.881  0.00  0.00    +0.000 A 
ATOM     11  C   UNL     1       3.813   5.939  17.703  0.00  0.00    +0.000 A 
ENDROOT
BRANCH   9  12
ATOM     12  C   UNL     1       1.910   7.728  19.356  0.00  0.00    +0.000 A 
ATOM     13  N   UNL     1       2.149   8.091  18.056  0.00  0.00    +0.000 NA
ATOM     14  C   UNL     1       1.958   9.380  17.689  0.00  0.00    +0.000 A 
ATOM     15  C   UNL     1       1.474  10.341  18.546  0.00  0.00    +0.000 A 
ATOM     16  F   UNL     1       1.318  11.605  18.139  0.00  0.00    +0.000 F 
ATOM     17  C   UNL     1       1.166   9.980  19.846  0.00  0.00    +0.000 A 
ATOM     18  C   UNL     1       1.392   8.664  20.269  0.00  0.00    +0.000 A 
ATOM     19 CL   UNL     1       1.065   8.332  21.933  0.00  0.00    +0.000 Cl
ENDBRANCH   9  12
BRANCH   1  20
ATOM     20  C   UNL     1       5.214   5.638  15.667  0.00  0.00    +0.000 C 
ATOM     21  O   UNL     1       5.547   6.822  15.639  0.00  0.00    +0.000 OA
BRANCH  20  25
ATOM     22  N   UNL     1       6.740   3.716  13.105  0.00  0.00    +0.000 N 
ATOM     23  C   UNL     1       6.538   4.603  14.107  0.00  0.00    +0.000 C 
ATOM     24  N   UNL     1       7.703   5.236  14.385  0.00  0.00    +0.000 N 
ATOM     25  N   UNL     1       5.372   4.747  14.631  0.00  0.00    +0.000 NA
ATOM     26  H   UNL     1       7.376   4.068  12.400  0.00  0.00    +0.000 HD
ATOM     27  H   UNL     1       5.863   3.410  12.700  0.00  0.00    +0.000 HD
ATOM     28  H   UNL     1       8.481   4.596  14.484  0.00  0.00    +0.000 HD
ATOM     29  H   UNL     1       7.617   5.818  15.223  0.00  0.00    +0.000 HD
ENDBRANCH  20  25
ENDBRANCH   1  20
TORSDOF 3
ENDMDL
