MODEL 1
REMARK VINA RESULT:      -7.9      0.000      0.000
REMARK  Name = 
REMARK  2 active torsions:
REMARK  status: ('A' for Active; 'I' for Inactive)
REMARK    1  A    between atoms: C_10  and  C_11
REMARK    2  A    between atoms: N_27  and  C_28
REMARK                            x       y       z     vdW  Elec       q    Type
REMARK                         _______ _______ _______ _____ _____    ______ ____
ROOT
ATOM      1  O   UNL     1       2.584  12.933  19.917  0.00  0.00    +0.000 OA
ATOM      2  C   UNL     1       1.465  13.444  19.928  0.00  0.00    +0.000 A 
ATOM      3  C   UNL     1       1.327  14.844  19.494  0.00  0.00    +0.000 A 
ATOM      4  C   UNL     1       2.383  15.514  18.860  0.00  0.00    +0.000 A 
ATOM      5  C   UNL     1       2.172  16.790  18.336  0.00  0.00    +0.000 A 
ATOM      6  C   UNL     1       0.919  17.388  18.453  0.00  0.00    +0.000 A 
ATOM      7  C   UNL     1      -0.117  16.714  19.106  0.00  0.00    +0.000 A 
ATOM      8  C   UNL     1       0.081  15.436  19.639  0.00  0.00    +0.000 A 
ATOM      9  N   UNL     1      -1.032  14.747  20.133  0.00  0.00    +0.000 NA
ATOM     10  C   UNL     1      -0.960  13.460  20.291  0.00  0.00    +0.000 A 
ATOM     11  N   UNL     1       0.271  12.782  20.259  0.00  0.00    +0.000 N 
ENDROOT
BRANCH  10  12
ATOM     12  C   UNL     1      -2.258  12.697  20.274  0.00  0.00    +0.000 A 
ATOM     13  C   UNL     1      -2.935  12.286  19.116  0.00  0.00    +0.000 A 
ATOM     14  C   UNL     1      -4.329  12.163  19.187  0.00  0.00    +0.000 A 
ATOM     15  C   UNL     1      -5.024  12.607  20.310  0.00  0.00    +0.000 A 
ATOM     16  C   UNL     1      -4.342  12.661  21.508  0.00  0.00    +0.000 A 
ATOM     17  C   UNL     1      -2.955  12.642  21.501  0.00  0.00    +0.000 A 
ATOM     18 CL   UNL     1      -2.221  12.551  23.064  0.00  0.00    +0.000 Cl
ATOM     19  S   UNL     1      -6.763  12.970  20.249  0.00  0.00    +0.000 S 
ATOM     20  C   UNL     1      -7.196  11.331  19.962  0.00  0.00    +0.000 A 
ATOM     21  N   UNL     1      -7.917  10.630  20.803  0.00  0.00    +0.000 NA
ATOM     22  C   UNL     1      -7.572   9.325  20.563  0.00  0.00    +0.000 A 
ATOM     23  C   UNL     1      -6.681   9.234  19.512  0.00  0.00    +0.000 A 
ATOM     24  N   UNL     1      -6.510  10.531  19.110  0.00  0.00    +0.000 N 
ATOM     25  S   UNL     1      -5.266  11.131  18.090  0.00  0.00    +0.000 S 
ATOM     26  O   UNL     1      -5.923  11.957  17.101  0.00  0.00    +0.000 OA
ATOM     27  O   UNL     1      -4.460   9.976  17.752  0.00  0.00    +0.000 OA
ENDBRANCH  10  12
BRANCH  11  28
ATOM     28  C   UNL     1       0.395  11.386  20.482  0.00  0.00    +0.000 A 
ATOM     29  C   UNL     1       0.395  10.899  21.794  0.00  0.00    +0.000 A 
ATOM     30  C   UNL     1       0.609   9.542  22.033  0.00  0.00    +0.000 A 
ATOM     31  C   UNL     1       0.844   8.675  20.965  0.00  0.00    +0.000 A 
ATOM     32  C   UNL     1       0.861   9.161  19.657  0.00  0.00    +0.000 A 
ATOM     33  C   UNL     1       0.639  10.518  19.412  0.00  0.00    +0.000 A 
ENDBRANCH  11  28
TORSDOF 2
ENDMDL
MODEL 2
REMARK VINA RESULT:      -7.3      2.269      2.987
REMARK  Name = 
REMARK  2 active torsions:
REMARK  status: ('A' for Active; 'I' for Inactive)
REMARK    1  A    between atoms: C_10  and  C_11
REMARK    2  A    between atoms: N_27  and  C_28
REMARK                            x       y       z     vdW  Elec       q    Type
REMARK                         _______ _______ _______ _____ _____    ______ ____
ROOT
ATOM      1  O   UNL     1       1.759  12.866  18.205  0.00  0.00    +0.000 OA
ATOM      2  C   UNL     1       1.201  13.175  19.257  0.00  0.00    +0.000 A 
ATOM      3  C   UNL     1       1.787  14.251  20.073  0.00  0.00    +0.000 A 
ATOM      4  C   UNL     1       2.809  15.070  19.569  0.00  0.00    +0.000 A 
ATOM      5  C   UNL     1       3.242  16.167  20.315  0.00  0.00    +0.000 A 
ATOM      6  C   UNL     1       2.661  16.435  21.553  0.00  0.00    +0.000 A 
ATOM      7  C   UNL     1       1.658  15.597  22.050  0.00  0.00    +0.000 A 
ATOM      8  C   UNL     1       1.217  14.492  21.314  0.00  0.00    +0.000 A 
ATOM      9  N   UNL     1       0.102  13.789  21.784  0.00  0.00    +0.000 NA
ATOM     10  C   UNL     1      -0.546  13.012  20.969  0.00  0.00    +0.000 A 
ATOM     11  N   UNL     1      -0.005  12.632  19.729  0.00  0.00    +0.000 N 
ENDROOT
BRANCH  10  12
ATOM     12  C   UNL     1      -1.987  12.728  21.300  0.00  0.00    +0.000 A 
ATOM     13  C   UNL     1      -3.090  13.351  20.695  0.00  0.00    +0.000 A 
ATOM     14  C   UNL     1      -4.260  13.478  21.454  0.00  0.00    +0.000 A 
ATOM     15  C   UNL     1      -4.265  13.160  22.810  0.00  0.00    +0.000 A 
ATOM     16  C   UNL     1      -3.326  12.256  23.261  0.00  0.00    +0.000 A 
ATOM     17  C   UNL     1      -2.212  11.986  22.480  0.00  0.00    +0.000 A 
ATOM     18 CL   UNL     1      -1.195  10.720  23.075  0.00  0.00    +0.000 Cl
ATOM     19  S   UNL     1      -5.511  13.787  23.912  0.00  0.00    +0.000 S 
ATOM     20  C   UNL     1      -6.772  12.900  23.148  0.00  0.00    +0.000 A 
ATOM     21  N   UNL     1      -7.457  11.968  23.764  0.00  0.00    +0.000 NA
ATOM     22  C   UNL     1      -7.905  11.141  22.766  0.00  0.00    +0.000 A 
ATOM     23  C   UNL     1      -7.543  11.623  21.525  0.00  0.00    +0.000 A 
ATOM     24  N   UNL     1      -6.873  12.784  21.802  0.00  0.00    +0.000 N 
ATOM     25  S   UNL     1      -5.868  13.668  20.727  0.00  0.00    +0.000 S 
ATOM     26  O   UNL     1      -6.281  15.050  20.838  0.00  0.00    +0.000 OA
ATOM     27  O   UNL     1      -5.895  12.927  19.483  0.00  0.00    +0.000 OA
ENDBRANCH  10  12
BRANCH  11  28
ATOM     28  C   UNL     1      -0.658  11.742  18.837  0.00  0.00    +0.000 A 
ATOM     29  C   UNL     1      -1.540  12.256  17.879  0.00  0.00    +0.000 A 
ATOM     30  C   UNL     1      -2.258  11.388  17.058  0.00  0.00    +0.000 A 
ATOM     31  C   UNL     1      -2.111  10.008  17.204  0.00  0.00    +0.000 A 
ATOM     32  C   UNL     1      -1.244   9.493  18.169  0.00  0.00    +0.000 A 
ATOM     33  C   UNL     1      -0.517  10.358  18.989  0.00  0.00    +0.000 A 
ENDBRANCH  11  28
TORSDOF 2
ENDMDL
MODEL 3
REMARK VINA RESULT:      -7.1      3.773      8.156
REMARK  Name = 
REMARK  2 active torsions:
REMARK  status: ('A' for Active; 'I' for Inactive)
REMARK    1  A    between atoms: C_10  and  C_11
REMARK    2  A    between atoms: N_27  and  C_28
REMARK                            x       y       z     vdW  Elec       q    Type
REMARK                         _______ _______ _______ _____ _____    ______ ____
ROOT
ATOM      1  O   UNL     1      -4.496  12.399  20.402  0.00  0.00    +0.000 OA
ATOM      2  C   UNL     1      -3.465  12.357  19.733  0.00  0.00    +0.000 A 
ATOM      3  C   UNL     1      -3.527  11.773  18.383  0.00  0.00    +0.000 A 
ATOM      4  C   UNL     1      -4.756  11.485  17.772  0.00  0.00    +0.000 A 
ATOM      5  C   UNL     1      -4.782  11.064  16.443  0.00  0.00    +0.000 A 
ATOM      6  C   UNL     1      -3.588  10.928  15.736  0.00  0.00    +0.000 A 
ATOM      7  C   UNL     1      -2.370  11.199  16.366  0.00  0.00    +0.000 A 
ATOM      8  C   UNL     1      -2.329  11.618  17.700  0.00  0.00    +0.000 A 
ATOM      9  N   UNL     1      -1.100  12.031  18.225  0.00  0.00    +0.000 NA
ATOM     10  C   UNL     1      -1.083  12.752  19.305  0.00  0.00    +0.000 A 
ATOM     11  N   UNL     1      -2.222  12.889  20.117  0.00  0.00    +0.000 N 
ENDROOT
BRANCH  10  12
ATOM     12  C   UNL     1       0.127  13.622  19.525  0.00  0.00    +0.000 A 
ATOM     13  C   UNL     1       0.265  14.940  19.063  0.00  0.00    +0.000 A 
ATOM     14  C   UNL     1       1.560  15.397  18.784  0.00  0.00    +0.000 A 
ATOM     15  C   UNL     1       2.640  14.518  18.795  0.00  0.00    +0.000 A 
ATOM     16  C   UNL     1       2.535  13.379  19.567  0.00  0.00    +0.000 A 
ATOM     17  C   UNL     1       1.283  12.959  19.990  0.00  0.00    +0.000 A 
ATOM     18 CL   UNL     1       1.296  11.618  21.082  0.00  0.00    +0.000 Cl
ATOM     19  S   UNL     1       4.161  14.896  17.954  0.00  0.00    +0.000 S 
ATOM     20  C   UNL     1       4.528  16.210  19.001  0.00  0.00    +0.000 A 
ATOM     21  N   UNL     1       5.580  16.222  19.782  0.00  0.00    +0.000 NA
ATOM     22  C   UNL     1       5.245  17.061  20.814  0.00  0.00    +0.000 A 
ATOM     23  C   UNL     1       3.998  17.617  20.613  0.00  0.00    +0.000 A 
ATOM     24  N   UNL     1       3.593  17.101  19.413  0.00  0.00    +0.000 N 
ATOM     25  S   UNL     1       1.998  17.116  18.777  0.00  0.00    +0.000 S 
ATOM     26  O   UNL     1       2.117  17.573  17.410  0.00  0.00    +0.000 OA
ATOM     27  O   UNL     1       1.196  17.794  19.775  0.00  0.00    +0.000 OA
ENDBRANCH  10  12
BRANCH  11  28
ATOM     28  C   UNL     1      -2.228  13.622  21.331  0.00  0.00    +0.000 A 
ATOM     29  C   UNL     1      -2.668  14.951  21.327  0.00  0.00    +0.000 A 
ATOM     30  C   UNL     1      -2.592  15.713  22.492  0.00  0.00    +0.000 A 
ATOM     31  C   UNL     1      -2.060  15.156  23.656  0.00  0.00    +0.000 A 
ATOM     32  C   UNL     1      -1.606  13.836  23.658  0.00  0.00    +0.000 A 
ATOM     33  C   UNL     1      -1.686  13.067  22.496  0.00  0.00    +0.000 A 
ENDBRANCH  11  28
TORSDOF 2
ENDMDL
MODEL 4
REMARK VINA RESULT:      -7.1      1.001      1.056
REMARK  Name = 
REMARK  2 active torsions:
REMARK  status: ('A' for Active; 'I' for Inactive)
REMARK    1  A    between atoms: C_10  and  C_11
REMARK    2  A    between atoms: N_27  and  C_28
REMARK                            x       y       z     vdW  Elec       q    Type
REMARK                         _______ _______ _______ _____ _____    ______ ____
ROOT
ATOM      1  O   UNL     1       2.449  13.598  20.472  0.00  0.00    +0.000 OA
ATOM      2  C   UNL     1       1.306  13.985  20.708  0.00  0.00    +0.000 A 
ATOM      3  C   UNL     1       1.062  15.433  20.814  0.00  0.00    +0.000 A 
ATOM      4  C   UNL     1       2.039  16.363  20.428  0.00  0.00    +0.000 A 
ATOM      5  C   UNL     1       1.725  17.722  20.409  0.00  0.00    +0.000 A 
ATOM      6  C   UNL     1       0.449  18.144  20.780  0.00  0.00    +0.000 A 
ATOM      7  C   UNL     1      -0.506  17.205  21.181  0.00  0.00    +0.000 A 
ATOM      8  C   UNL     1      -0.204  15.839  21.209  0.00  0.00    +0.000 A 
ATOM      9  N   UNL     1      -1.244  14.938  21.459  0.00  0.00    +0.000 NA
ATOM     10  C   UNL     1      -1.090  13.689  21.138  0.00  0.00    +0.000 A 
ATOM     11  N   UNL     1       0.173  13.161  20.819  0.00  0.00    +0.000 N 
ENDROOT
BRANCH  10  12
ATOM     12  C   UNL     1      -2.342  12.889  20.893  0.00  0.00    +0.000 A 
ATOM     13  C   UNL     1      -2.883  12.608  19.628  0.00  0.00    +0.000 A 
ATOM     14  C   UNL     1      -4.270  12.427  19.542  0.00  0.00    +0.000 A 
ATOM     15  C   UNL     1      -5.090  12.694  20.635  0.00  0.00    +0.000 A 
ATOM     16  C   UNL     1      -4.529  12.615  21.894  0.00  0.00    +0.000 A 
ATOM     17  C   UNL     1      -3.149  12.648  22.026  0.00  0.00    +0.000 A 
ATOM     18 CL   UNL     1      -2.565  12.379  23.631  0.00  0.00    +0.000 Cl
ATOM     19  S   UNL     1      -6.831  12.999  20.445  0.00  0.00    +0.000 S 
ATOM     20  C   UNL     1      -7.153  11.396  19.910  0.00  0.00    +0.000 A 
ATOM     21  N   UNL     1      -7.916  10.566  20.578  0.00  0.00    +0.000 NA
ATOM     22  C   UNL     1      -7.486   9.316  20.210  0.00  0.00    +0.000 A 
ATOM     23  C   UNL     1      -6.496   9.397  19.253  0.00  0.00    +0.000 A 
ATOM     24  N   UNL     1      -6.350  10.740  19.037  0.00  0.00    +0.000 N 
ATOM     25  S   UNL     1      -5.045  11.514  18.234  0.00  0.00    +0.000 S 
ATOM     26  O   UNL     1      -5.644  12.439  17.296  0.00  0.00    +0.000 OA
ATOM     27  O   UNL     1      -4.154  10.443  17.835  0.00  0.00    +0.000 OA
ENDBRANCH  10  12
BRANCH  11  28
ATOM     28  C   UNL     1       0.390  11.792  20.517  0.00  0.00    +0.000 A 
ATOM     29  C   UNL     1       0.514  10.871  21.564  0.00  0.00    +0.000 A 
ATOM     30  C   UNL     1       0.819   9.539  21.286  0.00  0.00    +0.000 A 
ATOM     31  C   UNL     1       1.021   9.130  19.968  0.00  0.00    +0.000 A 
ATOM     32  C   UNL     1       0.913  10.051  18.923  0.00  0.00    +0.000 A 
ATOM     33  C   UNL     1       0.600  11.384  19.195  0.00  0.00    +0.000 A 
ENDBRANCH  11  28
TORSDOF 2
ENDMDL
MODEL 5
REMARK VINA RESULT:      -6.7      2.209      2.777
REMARK  Name = 
REMARK  2 active torsions:
REMARK  status: ('A' for Active; 'I' for Inactive)
REMARK    1  A    between atoms: C_10  and  C_11
REMARK    2  A    between atoms: N_27  and  C_28
REMARK                            x       y       z     vdW  Elec       q    Type
REMARK                         _______ _______ _______ _____ _____    ______ ____
ROOT
ATOM      1  O   UNL     1       2.015  13.960  19.415  0.00  0.00    +0.000 OA
ATOM      2  C   UNL     1       1.171  14.315  20.236  0.00  0.00    +0.000 A 
ATOM      3  C   UNL     1       1.309  15.644  20.854  0.00  0.00    +0.000 A 
ATOM      4  C   UNL     1       2.230  16.581  20.363  0.00  0.00    +0.000 A 
ATOM      5  C   UNL     1       2.236  17.876  20.881  0.00  0.00    +0.000 A 
ATOM      6  C   UNL     1       1.334  18.225  21.885  0.00  0.00    +0.000 A 
ATOM      7  C   UNL     1       0.438  17.273  22.378  0.00  0.00    +0.000 A 
ATOM      8  C   UNL     1       0.423  15.970  21.870  0.00  0.00    +0.000 A 
ATOM      9  N   UNL     1      -0.602  15.111  22.284  0.00  0.00    +0.000 NA
ATOM     10  C   UNL     1      -0.861  14.051  21.581  0.00  0.00    +0.000 A 
ATOM     11  N   UNL     1       0.026  13.586  20.596  0.00  0.00    +0.000 N 
ENDROOT
BRANCH  10  12
ATOM     12  C   UNL     1      -2.249  13.478  21.698  0.00  0.00    +0.000 A 
ATOM     13  C   UNL     1      -3.388  13.990  21.058  0.00  0.00    +0.000 A 
ATOM     14  C   UNL     1      -4.626  13.798  21.685  0.00  0.00    +0.000 A 
ATOM     15  C   UNL     1      -4.696  13.279  22.975  0.00  0.00    +0.000 A 
ATOM     16  C   UNL     1      -3.650  12.489  23.408  0.00  0.00    +0.000 A 
ATOM     17  C   UNL     1      -2.440  12.536  22.733  0.00  0.00    +0.000 A 
ATOM     18 CL   UNL     1      -1.264  11.386  23.267  0.00  0.00    +0.000 Cl
ATOM     19  S   UNL     1      -6.132  13.507  23.998  0.00  0.00    +0.000 S 
ATOM     20  C   UNL     1      -7.132  12.547  22.979  0.00  0.00    +0.000 A 
ATOM     21  N   UNL     1      -7.685  11.428  23.378  0.00  0.00    +0.000 NA
ATOM     22  C   UNL     1      -7.879  10.701  22.232  0.00  0.00    +0.000 A 
ATOM     23  C   UNL     1      -7.501  11.423  21.118  0.00  0.00    +0.000 A 
ATOM     24  N   UNL     1      -7.086  12.624  21.626  0.00  0.00    +0.000 N 
ATOM     25  S   UNL     1      -6.168  13.821  20.807  0.00  0.00    +0.000 S 
ATOM     26  O   UNL     1      -6.839  15.079  21.054  0.00  0.00    +0.000 OA
ATOM     27  O   UNL     1      -5.944  13.287  19.479  0.00  0.00    +0.000 OA
ENDBRANCH  10  12
BRANCH  11  28
ATOM     28  C   UNL     1      -0.196  12.401  19.846  0.00  0.00    +0.000 A 
ATOM     29  C   UNL     1      -0.985  12.459  18.691  0.00  0.00    +0.000 A 
ATOM     30  C   UNL     1      -1.288  11.289  17.997  0.00  0.00    +0.000 A 
ATOM     31  C   UNL     1      -0.822  10.060  18.464  0.00  0.00    +0.000 A 
ATOM     32  C   UNL     1      -0.048   9.998  19.625  0.00  0.00    +0.000 A 
ATOM     33  C   UNL     1       0.264  11.168  20.320  0.00  0.00    +0.000 A 
ENDBRANCH  11  28
TORSDOF 2
ENDMDL
MODEL 6
REMARK VINA RESULT:      -6.6      3.613      5.492
REMARK  Name = 
REMARK  2 active torsions:
REMARK  status: ('A' for Active; 'I' for Inactive)
REMARK    1  A    between atoms: C_10  and  C_11
REMARK    2  A    between atoms: N_27  and  C_28
REMARK                            x       y       z     vdW  Elec       q    Type
REMARK                         _______ _______ _______ _____ _____    ______ ____
ROOT
ATOM      1  O   UNL     1      -0.126  10.508  23.449  0.00  0.00    +0.000 OA
ATOM      2  C   UNL     1      -0.306  10.935  22.309  0.00  0.00    +0.000 A 
ATOM      3  C   UNL     1       0.354  10.244  21.189  0.00  0.00    +0.000 A 
ATOM      4  C   UNL     1       0.976   9.000  21.369  0.00  0.00    +0.000 A 
ATOM      5  C   UNL     1       1.467   8.310  20.261  0.00  0.00    +0.000 A 
ATOM      6  C   UNL     1       1.341   8.865  18.988  0.00  0.00    +0.000 A 
ATOM      7  C   UNL     1       0.737  10.115  18.829  0.00  0.00    +0.000 A 
ATOM      8  C   UNL     1       0.243  10.820  19.932  0.00  0.00    +0.000 A 
ATOM      9  N   UNL     1      -0.495  11.984  19.695  0.00  0.00    +0.000 NA
ATOM     10  C   UNL     1      -1.260  12.451  20.635  0.00  0.00    +0.000 A 
ATOM     11  N   UNL     1      -1.154  12.000  21.962  0.00  0.00    +0.000 N 
ENDROOT
BRANCH  10  12
ATOM     12  C   UNL     1      -2.416  13.315  20.207  0.00  0.00    +0.000 A 
ATOM     13  C   UNL     1      -2.584  14.665  20.553  0.00  0.00    +0.000 A 
ATOM     14  C   UNL     1      -3.893  15.155  20.639  0.00  0.00    +0.000 A 
ATOM     15  C   UNL     1      -4.982  14.291  20.559  0.00  0.00    +0.000 A 
ATOM     16  C   UNL     1      -4.807  13.097  19.889  0.00  0.00    +0.000 A 
ATOM     17  C   UNL     1      -3.521  12.633  19.653  0.00  0.00    +0.000 A 
ATOM     18 CL   UNL     1      -3.429  11.216  18.666  0.00  0.00    +0.000 Cl
ATOM     19  S   UNL     1      -6.585  14.746  21.179  0.00  0.00    +0.000 S 
ATOM     20  C   UNL     1      -6.796  15.984  20.004  0.00  0.00    +0.000 A 
ATOM     21  N   UNL     1      -7.745  15.951  19.101  0.00  0.00    +0.000 NA
ATOM     22  C   UNL     1      -7.271  16.708  18.061  0.00  0.00    +0.000 A 
ATOM     23  C   UNL     1      -6.047  17.263  18.372  0.00  0.00    +0.000 A 
ATOM     24  N   UNL     1      -5.800  16.831  19.646  0.00  0.00    +0.000 N 
ATOM     25  S   UNL     1      -4.295  16.875  20.470  0.00  0.00    +0.000 S 
ATOM     26  O   UNL     1      -4.569  17.432  21.776  0.00  0.00    +0.000 OA
ATOM     27  O   UNL     1      -3.364  17.470  19.532  0.00  0.00    +0.000 OA
ENDBRANCH  10  12
BRANCH  11  28
ATOM     28  C   UNL     1      -1.932  12.525  23.026  0.00  0.00    +0.000 A 
ATOM     29  C   UNL     1      -3.137  11.899  23.366  0.00  0.00    +0.000 A 
ATOM     30  C   UNL     1      -3.958  12.456  24.346  0.00  0.00    +0.000 A 
ATOM     31  C   UNL     1      -3.587  13.646  24.972  0.00  0.00    +0.000 A 
ATOM     32  C   UNL     1      -2.393  14.280  24.624  0.00  0.00    +0.000 A 
ATOM     33  C   UNL     1      -1.565  13.723  23.648  0.00  0.00    +0.000 A 
ENDBRANCH  11  28
TORSDOF 2
ENDMDL
MODEL 7
REMARK VINA RESULT:      -6.6      6.862      9.480
REMARK  Name = 
REMARK  2 active torsions:
REMARK  status: ('A' for Active; 'I' for Inactive)
REMARK    1  A    between atoms: C_10  and  C_11
REMARK    2  A    between atoms: N_27  and  C_28
REMARK                            x       y       z     vdW  Elec       q    Type
REMARK                         _______ _______ _______ _____ _____    ______ ____
ROOT
ATOM      1  O   UNL     1       9.331  12.599  22.712  0.00  0.00    +0.000 OA
ATOM      2  C   UNL     1       8.920  13.115  21.674  0.00  0.00    +0.000 A 
ATOM      3  C   UNL     1       9.521  12.697  20.397  0.00  0.00    +0.000 A 
ATOM      4  C   UNL     1      10.367  11.581  20.323  0.00  0.00    +0.000 A 
ATOM      5  C   UNL     1      10.805  11.131  19.078  0.00  0.00    +0.000 A 
ATOM      6  C   UNL     1      10.405  11.797  17.920  0.00  0.00    +0.000 A 
ATOM      7  C   UNL     1       9.578  12.920  18.013  0.00  0.00    +0.000 A 
ATOM      8  C   UNL     1       9.134  13.385  19.255  0.00  0.00    +0.000 A 
ATOM      9  N   UNL     1       8.180  14.408  19.276  0.00  0.00    +0.000 NA
ATOM     10  C   UNL     1       7.489  14.608  20.357  0.00  0.00    +0.000 A 
ATOM     11  N   UNL     1       7.861  14.033  21.584  0.00  0.00    +0.000 N 
ENDROOT
BRANCH  10  12
ATOM     12  C   UNL     1       6.152  15.282  20.197  0.00  0.00    +0.000 A 
ATOM     13  C   UNL     1       4.915  14.619  20.166  0.00  0.00    +0.000 A 
ATOM     14  C   UNL     1       3.880  15.212  19.432  0.00  0.00    +0.000 A 
ATOM     15  C   UNL     1       4.126  16.318  18.622  0.00  0.00    +0.000 A 
ATOM     16  C   UNL     1       5.202  17.122  18.942  0.00  0.00    +0.000 A 
ATOM     17  C   UNL     1       6.190  16.631  19.782  0.00  0.00    +0.000 A 
ATOM     18 CL   UNL     1       7.397  17.783  20.237  0.00  0.00    +0.000 Cl
ATOM     19  S   UNL     1       3.030  16.770  17.298  0.00  0.00    +0.000 S 
ATOM     20  C   UNL     1       1.742  17.164  18.366  0.00  0.00    +0.000 A 
ATOM     21  N   UNL     1       1.251  18.374  18.470  0.00  0.00    +0.000 NA
ATOM     22  C   UNL     1       0.717  18.434  19.732  0.00  0.00    +0.000 A 
ATOM     23  C   UNL     1       0.826  17.216  20.371  0.00  0.00    +0.000 A 
ATOM     24  N   UNL     1       1.430  16.408  19.447  0.00  0.00    +0.000 N 
ATOM     25  S   UNL     1       2.164  14.884  19.742  0.00  0.00    +0.000 S 
ATOM     26  O   UNL     1       1.657  13.991  18.723  0.00  0.00    +0.000 OA
ATOM     27  O   UNL     1       1.995  14.647  21.161  0.00  0.00    +0.000 OA
ENDBRANCH  10  12
BRANCH  11  28
ATOM     28  C   UNL     1       7.164  14.272  22.797  0.00  0.00    +0.000 A 
ATOM     29  C   UNL     1       7.476  15.408  23.554  0.00  0.00    +0.000 A 
ATOM     30  C   UNL     1       6.867  15.607  24.792  0.00  0.00    +0.000 A 
ATOM     31  C   UNL     1       5.962  14.666  25.284  0.00  0.00    +0.000 A 
ATOM     32  C   UNL     1       5.661  13.525  24.538  0.00  0.00    +0.000 A 
ATOM     33  C   UNL     1       6.263  13.324  23.294  0.00  0.00    +0.000 A 
ENDBRANCH  11  28
TORSDOF 2
ENDMDL
MODEL 8
REMARK VINA RESULT:      -6.6      3.367      4.331
REMARK  Name = 
REMARK  2 active torsions:
REMARK  status: ('A' for Active; 'I' for Inactive)
REMARK    1  A    between atoms: C_10  and  C_11
REMARK    2  A    between atoms: N_27  and  C_28
REMARK                            x       y       z     vdW  Elec       q    Type
REMARK                         _______ _______ _______ _____ _____    ______ ____
ROOT
ATOM      1  O   UNL     1       2.727  12.494  17.962  0.00  0.00    +0.000 OA
ATOM      2  C   UNL     1       2.445  13.313  18.836  0.00  0.00    +0.000 A 
ATOM      3  C   UNL     1       3.374  14.428  19.080  0.00  0.00    +0.000 A 
ATOM      4  C   UNL     1       4.431  14.699  18.197  0.00  0.00    +0.000 A 
ATOM      5  C   UNL     1       5.205  15.844  18.382  0.00  0.00    +0.000 A 
ATOM      6  C   UNL     1       4.927  16.704  19.443  0.00  0.00    +0.000 A 
ATOM      7  C   UNL     1       3.884  16.409  20.325  0.00  0.00    +0.000 A 
ATOM      8  C   UNL     1       3.102  15.262  20.154  0.00  0.00    +0.000 A 
ATOM      9  N   UNL     1       1.973  15.104  20.966  0.00  0.00    +0.000 NA
ATOM     10  C   UNL     1       1.045  14.272  20.605  0.00  0.00    +0.000 A 
ATOM     11  N   UNL     1       1.261  13.323  19.592  0.00  0.00    +0.000 N 
ENDROOT
BRANCH  10  12
ATOM     12  C   UNL     1      -0.340  14.518  21.145  0.00  0.00    +0.000 A 
ATOM     13  C   UNL     1      -0.908  13.846  22.239  0.00  0.00    +0.000 A 
ATOM     14  C   UNL     1      -2.301  13.699  22.258  0.00  0.00    +0.000 A 
ATOM     15  C   UNL     1      -3.066  14.048  21.148  0.00  0.00    +0.000 A 
ATOM     16  C   UNL     1      -2.552  14.992  20.282  0.00  0.00    +0.000 A 
ATOM     17  C   UNL     1      -1.195  15.279  20.320  0.00  0.00    +0.000 A 
ATOM     18 CL   UNL     1      -0.701  16.589  19.305  0.00  0.00    +0.000 Cl
ATOM     19  S   UNL     1      -4.707  13.407  20.906  0.00  0.00    +0.000 S 
ATOM     20  C   UNL     1      -5.338  14.235  22.275  0.00  0.00    +0.000 A 
ATOM     21  N   UNL     1      -6.263  15.159  22.181  0.00  0.00    +0.000 NA
ATOM     22  C   UNL     1      -6.088  15.949  23.289  0.00  0.00    +0.000 A 
ATOM     23  C   UNL     1      -5.088  15.450  24.098  0.00  0.00    +0.000 A 
ATOM     24  N   UNL     1      -4.671  14.318  23.452  0.00  0.00    +0.000 N 
ATOM     25  S   UNL     1      -3.226  13.442  23.750  0.00  0.00    +0.000 S 
ATOM     26  O   UNL     1      -3.611  12.050  23.838  0.00  0.00    +0.000 OA
ATOM     27  O   UNL     1      -2.563  14.153  24.825  0.00  0.00    +0.000 OA
ENDBRANCH  10  12
BRANCH  11  28
ATOM     28  C   UNL     1       0.290  12.361  19.207  0.00  0.00    +0.000 A 
ATOM     29  C   UNL     1      -0.636  12.685  18.209  0.00  0.00    +0.000 A 
ATOM     30  C   UNL     1      -1.653  11.786  17.886  0.00  0.00    +0.000 A 
ATOM     31  C   UNL     1      -1.757  10.575  18.571  0.00  0.00    +0.000 A 
ATOM     32  C   UNL     1      -0.843  10.258  19.577  0.00  0.00    +0.000 A 
ATOM     33  C   UNL     1       0.181  11.150  19.900  0.00  0.00    +0.000 A 
ENDBRANCH  11  28
TORSDOF 2
ENDMDL
MODEL 9
REMARK VINA RESULT:      -6.6      2.060      2.481
REMARK  Name = 
REMARK  2 active torsions:
REMARK  status: ('A' for Active; 'I' for Inactive)
REMARK    1  A    between atoms: C_10  and  C_11
REMARK    2  A    between atoms: N_27  and  C_28
REMARK                            x       y       z     vdW  Elec       q    Type
REMARK                         _______ _______ _______ _____ _____    ______ ____
ROOT
ATOM      1  O   UNL     1       1.534  13.788  18.740  0.00  0.00    +0.000 OA
ATOM      2  C   UNL     1       0.652  14.440  19.298  0.00  0.00    +0.000 A 
ATOM      3  C   UNL     1       0.633  15.900  19.111  0.00  0.00    +0.000 A 
ATOM      4  C   UNL     1       1.438  16.518  18.144  0.00  0.00    +0.000 A 
ATOM      5  C   UNL     1       1.292  17.884  17.897  0.00  0.00    +0.000 A 
ATOM      6  C   UNL     1       0.353  18.621  18.618  0.00  0.00    +0.000 A 
ATOM      7  C   UNL     1      -0.427  17.993  19.593  0.00  0.00    +0.000 A 
ATOM      8  C   UNL     1      -0.288  16.625  19.853  0.00  0.00    +0.000 A 
ATOM      9  N   UNL     1      -1.206  16.021  20.719  0.00  0.00    +0.000 NA
ATOM     10  C   UNL     1      -1.338  14.729  20.700  0.00  0.00    +0.000 A 
ATOM     11  N   UNL     1      -0.401  13.903  20.058  0.00  0.00    +0.000 N 
ENDROOT
BRANCH  10  12
ATOM     12  C   UNL     1      -2.650  14.171  21.186  0.00  0.00    +0.000 A 
ATOM     13  C   UNL     1      -3.825  14.097  20.424  0.00  0.00    +0.000 A 
ATOM     14  C   UNL     1      -5.047  14.155  21.107  0.00  0.00    +0.000 A 
ATOM     15  C   UNL     1      -5.086  14.454  22.467  0.00  0.00    +0.000 A 
ATOM     16  C   UNL     1      -3.964  14.173  23.220  0.00  0.00    +0.000 A 
ATOM     17  C   UNL     1      -2.751  13.966  22.580  0.00  0.00    +0.000 A 
ATOM     18 CL   UNL     1      -1.460  13.462  23.613  0.00  0.00    +0.000 Cl
ATOM     19  S   UNL     1      -6.564  15.057  23.249  0.00  0.00    +0.000 S 
ATOM     20  C   UNL     1      -7.415  13.584  22.999  0.00  0.00    +0.000 A 
ATOM     21  N   UNL     1      -7.840  12.834  23.986  0.00  0.00    +0.000 NA
ATOM     22  C   UNL     1      -7.916  11.569  23.462  0.00  0.00    +0.000 A 
ATOM     23  C   UNL     1      -7.600  11.571  22.119  0.00  0.00    +0.000 A 
ATOM     24  N   UNL     1      -7.345  12.885  21.839  0.00  0.00    +0.000 N 
ATOM     25  S   UNL     1      -6.558  13.502  20.444  0.00  0.00    +0.000 S 
ATOM     26  O   UNL     1      -7.381  14.593  19.969  0.00  0.00    +0.000 OA
ATOM     27  O   UNL     1      -6.238  12.340  19.641  0.00  0.00    +0.000 OA
ENDBRANCH  10  12
BRANCH  11  28
ATOM     28  C   UNL     1      -0.481  12.486  20.063  0.00  0.00    +0.000 A 
ATOM     29  C   UNL     1       0.183  11.766  21.062  0.00  0.00    +0.000 A 
ATOM     30  C   UNL     1       0.191  10.372  21.027  0.00  0.00    +0.000 A 
ATOM     31  C   UNL     1      -0.446   9.697  19.985  0.00  0.00    +0.000 A 
ATOM     32  C   UNL     1      -1.095  10.414  18.978  0.00  0.00    +0.000 A 
ATOM     33  C   UNL     1      -1.112  11.810  19.013  0.00  0.00    +0.000 A 
ENDBRANCH  11  28
TORSDOF 2
ENDMDL
