MODEL 1
REMARK VINA RESULT:      -7.9      0.000      0.000
REMARK  Name = 
REMARK  7 active torsions:
REMARK  status: ('A' for Active; 'I' for Inactive)
REMARK    1  A    between atoms: C_1  and  C_2
REMARK    2  A    between atoms: C_5  and  N_6
REMARK    3  A    between atoms: N_9  and  C_10
REMARK    4  A    between atoms: C_18  and  S_19
REMARK    5  A    between atoms: S_19  and  N_22
REMARK    6  A    between atoms: N_22  and  C_23
REMARK    7  A    between atoms: N_22  and  C_24
REMARK                            x       y       z     vdW  Elec       q    Type
REMARK                         _______ _______ _______ _____ _____    ______ ____
ROOT
ATOM      1  C   UNL     1       5.568   3.985  16.375  0.00  0.00    +0.000 C 
ATOM      2  C   UNL     1       4.673   4.926  17.127  0.00  0.00    +0.000 A 
ATOM      3  C   UNL     1       4.697   6.272  16.729  0.00  0.00    +0.000 A 
ATOM      4  C   UNL     1       3.887   7.224  17.338  0.00  0.00    +0.000 A 
ATOM      5  C   UNL     1       3.015   6.885  18.368  0.00  0.00    +0.000 A 
ATOM      6  C   UNL     1       2.982   5.551  18.784  0.00  0.00    +0.000 A 
ATOM      7  C   UNL     1       3.831   4.580  18.200  0.00  0.00    +0.000 A 
ENDROOT
BRANCH   5   8
ATOM      8  N   UNL     1       2.171   7.822  19.009  0.00  0.00    +0.000 N 
ATOM      9  C   UNL     1       1.830   9.067  18.509  0.00  0.00    +0.000 C 
ATOM     10  O   UNL     1       2.224   9.534  17.445  0.00  0.00    +0.000 OA
ATOM     11  N   UNL     1       1.016   9.776  19.378  0.00  0.00    +0.000 N 
ATOM     12  H   UNL     1       1.790   7.565  19.908  0.00  0.00    +0.000 HD
ATOM     13  H   UNL     1       1.233   9.655  20.359  0.00  0.00    +0.000 HD
BRANCH  11  14
ATOM     14  C   UNL     1       0.567  11.080  19.027  0.00  0.00    +0.000 A 
ATOM     15  C   UNL     1       1.376  12.201  19.252  0.00  0.00    +0.000 A 
ATOM     16  C   UNL     1       0.914  13.483  18.946  0.00  0.00    +0.000 A 
ATOM     17  C   UNL     1      -0.364  13.654  18.417  0.00  0.00    +0.000 A 
ATOM     18  C   UNL     1      -1.177  12.543  18.183  0.00  0.00    +0.000 A 
ATOM     19  C   UNL     1      -0.707  11.259  18.472  0.00  0.00    +0.000 A 
ATOM     20 CL   UNL     1      -1.766   9.914  18.222  0.00  0.00    +0.000 Cl
ENDBRANCH  11  14
ENDBRANCH   5   8
BRANCH   7  21
ATOM     21  S   UNL     1       3.716   2.917  18.873  0.00  0.00    +0.000 S 
ATOM     22  O   UNL     1       3.378   2.046  17.764  0.00  0.00    +0.000 OA
ATOM     23  O   UNL     1       4.883   2.643  19.678  0.00  0.00    +0.000 OA
BRANCH  21  24
ATOM     24  N   UNL     1       2.357   2.989  19.890  0.00  0.00    +0.000 NA
ATOM     25  C   UNL     1       1.075   2.477  19.386  0.00  0.00    +0.000 C 
ATOM     26  C   UNL     1       2.564   2.725  21.323  0.00  0.00    +0.000 C 
ENDBRANCH  21  24
ENDBRANCH   7  21
TORSDOF 4
ENDMDL
MODEL 2
REMARK VINA RESULT:      -7.4      1.099      1.488
REMARK  Name = 
REMARK  7 active torsions:
REMARK  status: ('A' for Active; 'I' for Inactive)
REMARK    1  A    between atoms: C_1  and  C_2
REMARK    2  A    between atoms: C_5  and  N_6
REMARK    3  A    between atoms: N_9  and  C_10
REMARK    4  A    between atoms: C_18  and  S_19
REMARK    5  A    between atoms: S_19  and  N_22
REMARK    6  A    between atoms: N_22  and  C_23
REMARK    7  A    between atoms: N_22  and  C_24
REMARK                            x       y       z     vdW  Elec       q    Type
REMARK                         _______ _______ _______ _____ _____    ______ ____
ROOT
ATOM      1  C   UNL     1       5.633   3.959  16.437  0.00  0.00    +0.000 C 
ATOM      2  C   UNL     1       4.752   4.887  17.221  0.00  0.00    +0.000 A 
ATOM      3  C   UNL     1       4.776   6.240  16.852  0.00  0.00    +0.000 A 
ATOM      4  C   UNL     1       3.979   7.182  17.492  0.00  0.00    +0.000 A 
ATOM      5  C   UNL     1       3.118   6.824  18.526  0.00  0.00    +0.000 A 
ATOM      6  C   UNL     1       3.086   5.481  18.914  0.00  0.00    +0.000 A 
ATOM      7  C   UNL     1       3.923   4.520  18.297  0.00  0.00    +0.000 A 
ENDROOT
BRANCH   5   8
ATOM      8  N   UNL     1       2.288   7.750  19.199  0.00  0.00    +0.000 N 
ATOM      9  C   UNL     1       1.610   8.800  18.602  0.00  0.00    +0.000 C 
ATOM     10  O   UNL     1       1.650   9.079  17.409  0.00  0.00    +0.000 OA
ATOM     11  N   UNL     1       0.904   9.558  19.522  0.00  0.00    +0.000 N 
ATOM     12  H   UNL     1       2.182   7.640  20.197  0.00  0.00    +0.000 HD
ATOM     13  H   UNL     1       1.364   9.680  20.416  0.00  0.00    +0.000 HD
BRANCH  11  14
ATOM     14  C   UNL     1       0.148  10.682  19.086  0.00  0.00    +0.000 A 
ATOM     15  C   UNL     1      -1.022  10.510  18.334  0.00  0.00    +0.000 A 
ATOM     16  C   UNL     1      -1.737  11.617  17.872  0.00  0.00    +0.000 A 
ATOM     17  C   UNL     1      -1.285  12.905  18.153  0.00  0.00    +0.000 A 
ATOM     18  C   UNL     1      -0.124  13.088  18.907  0.00  0.00    +0.000 A 
ATOM     19  C   UNL     1       0.581  11.981  19.385  0.00  0.00    +0.000 A 
ATOM     20 CL   UNL     1       2.045  12.248  20.266  0.00  0.00    +0.000 Cl
ENDBRANCH  11  14
ENDBRANCH   5   8
BRANCH   7  21
ATOM     21  S   UNL     1       3.810   2.843  18.935  0.00  0.00    +0.000 S 
ATOM     22  O   UNL     1       3.509   1.990  17.802  0.00  0.00    +0.000 OA
ATOM     23  O   UNL     1       4.961   2.567  19.763  0.00  0.00    +0.000 OA
BRANCH  21  24
ATOM     24  N   UNL     1       2.426   2.882  19.921  0.00  0.00    +0.000 NA
ATOM     25  C   UNL     1       1.178   2.307  19.400  0.00  0.00    +0.000 C 
ATOM     26  C   UNL     1       2.611   2.656  21.363  0.00  0.00    +0.000 C 
ENDBRANCH  21  24
ENDBRANCH   7  21
TORSDOF 4
ENDMDL
MODEL 3
REMARK VINA RESULT:      -7.4      2.405      3.146
REMARK  Name = 
REMARK  7 active torsions:
REMARK  status: ('A' for Active; 'I' for Inactive)
REMARK    1  A    between atoms: C_1  and  C_2
REMARK    2  A    between atoms: C_5  and  N_6
REMARK    3  A    between atoms: N_9  and  C_10
REMARK    4  A    between atoms: C_18  and  S_19
REMARK    5  A    between atoms: S_19  and  N_22
REMARK    6  A    between atoms: N_22  and  C_23
REMARK    7  A    between atoms: N_22  and  C_24
REMARK                            x       y       z     vdW  Elec       q    Type
REMARK                         _______ _______ _______ _____ _____    ______ ____
ROOT
ATOM      1  C   UNL     1       4.757   3.563  16.549  0.00  0.00    +0.000 C 
ATOM      2  C   UNL     1       4.095   4.741  17.203  0.00  0.00    +0.000 A 
ATOM      3  C   UNL     1       2.770   4.561  17.630  0.00  0.00    +0.000 A 
ATOM      4  C   UNL     1       2.070   5.576  18.274  0.00  0.00    +0.000 A 
ATOM      5  C   UNL     1       2.654   6.814  18.526  0.00  0.00    +0.000 A 
ATOM      6  C   UNL     1       3.970   7.016  18.101  0.00  0.00    +0.000 A 
ATOM      7  C   UNL     1       4.679   6.004  17.408  0.00  0.00    +0.000 A 
ENDROOT
BRANCH   5   8
ATOM      8  N   UNL     1       1.979   7.870  19.182  0.00  0.00    +0.000 N 
ATOM      9  C   UNL     1       1.662   9.093  18.616  0.00  0.00    +0.000 C 
ATOM     10  O   UNL     1       1.936   9.434  17.470  0.00  0.00    +0.000 OA
ATOM     11  N   UNL     1       1.031   9.939  19.514  0.00  0.00    +0.000 N 
ATOM     12  H   UNL     1       1.709   7.723  20.144  0.00  0.00    +0.000 HD
ATOM     13  H   UNL     1       1.374   9.882  20.465  0.00  0.00    +0.000 HD
BRANCH  11  14
ATOM     14  C   UNL     1       0.633  11.242  19.104  0.00  0.00    +0.000 A 
ATOM     15  C   UNL     1       1.505  12.332  19.234  0.00  0.00    +0.000 A 
ATOM     16  C   UNL     1       1.094  13.616  18.871  0.00  0.00    +0.000 A 
ATOM     17  C   UNL     1      -0.194  13.823  18.380  0.00  0.00    +0.000 A 
ATOM     18  C   UNL     1      -1.069  12.743  18.240  0.00  0.00    +0.000 A 
ATOM     19  C   UNL     1      -0.651  11.455  18.586  0.00  0.00    +0.000 A 
ATOM     20 CL   UNL     1      -1.783  10.154  18.454  0.00  0.00    +0.000 Cl
ENDBRANCH  11  14
ENDBRANCH   5   8
BRANCH   7  21
ATOM     21  S   UNL     1       6.345   6.424  16.878  0.00  0.00    +0.000 S 
ATOM     22  O   UNL     1       6.533   5.805  15.580  0.00  0.00    +0.000 OA
ATOM     23  O   UNL     1       6.556   7.844  17.040  0.00  0.00    +0.000 OA
BRANCH  21  24
ATOM     24  N   UNL     1       7.337   5.596  17.981  0.00  0.00    +0.000 NA
ATOM     25  C   UNL     1       6.964   5.603  19.402  0.00  0.00    +0.000 C 
ATOM     26  C   UNL     1       7.926   4.320  17.542  0.00  0.00    +0.000 C 
ENDBRANCH  21  24
ENDBRANCH   7  21
TORSDOF 4
ENDMDL
MODEL 4
REMARK VINA RESULT:      -7.3      2.255      3.271
REMARK  Name = 
REMARK  7 active torsions:
REMARK  status: ('A' for Active; 'I' for Inactive)
REMARK    1  A    between atoms: C_1  and  C_2
REMARK    2  A    between atoms: C_5  and  N_6
REMARK    3  A    between atoms: N_9  and  C_10
REMARK    4  A    between atoms: C_18  and  S_19
REMARK    5  A    between atoms: S_19  and  N_22
REMARK    6  A    between atoms: N_22  and  C_23
REMARK    7  A    between atoms: N_22  and  C_24
REMARK                            x       y       z     vdW  Elec       q    Type
REMARK                         _______ _______ _______ _____ _____    ______ ____
ROOT
ATOM      1  C   UNL     1       4.179   3.036  16.708  0.00  0.00    +0.000 C 
ATOM      2  C   UNL     1       3.717   4.317  17.339  0.00  0.00    +0.000 A 
ATOM      3  C   UNL     1       2.414   4.328  17.859  0.00  0.00    +0.000 A 
ATOM      4  C   UNL     1       1.893   5.453  18.491  0.00  0.00    +0.000 A 
ATOM      5  C   UNL     1       2.643   6.616  18.638  0.00  0.00    +0.000 A 
ATOM      6  C   UNL     1       3.941   6.628  18.120  0.00  0.00    +0.000 A 
ATOM      7  C   UNL     1       4.467   5.503  17.438  0.00  0.00    +0.000 A 
ENDROOT
BRANCH   5   8
ATOM      8  N   UNL     1       2.153   7.778  19.278  0.00  0.00    +0.000 N 
ATOM      9  C   UNL     1       1.752   8.938  18.637  0.00  0.00    +0.000 C 
ATOM     10  O   UNL     1       1.780   9.122  17.425  0.00  0.00    +0.000 OA
ATOM     11  N   UNL     1       1.353   9.920  19.530  0.00  0.00    +0.000 N 
ATOM     12  H   UNL     1       2.095   7.764  20.286  0.00  0.00    +0.000 HD
ATOM     13  H   UNL     1       1.892   9.961  20.386  0.00  0.00    +0.000 HD
BRANCH  11  14
ATOM     14  C   UNL     1       0.908  11.182  19.047  0.00  0.00    +0.000 A 
ATOM     15  C   UNL     1       1.793  12.264  18.950  0.00  0.00    +0.000 A 
ATOM     16  C   UNL     1       1.343  13.512  18.516  0.00  0.00    +0.000 A 
ATOM     17  C   UNL     1       0.002  13.691  18.181  0.00  0.00    +0.000 A 
ATOM     18  C   UNL     1      -0.888  12.618  18.269  0.00  0.00    +0.000 A 
ATOM     19  C   UNL     1      -0.433  11.364  18.685  0.00  0.00    +0.000 A 
ATOM     20 CL   UNL     1      -1.577  10.076  18.835  0.00  0.00    +0.000 Cl
ENDBRANCH  11  14
ENDBRANCH   5   8
BRANCH   7  21
ATOM     21  S   UNL     1       6.131   5.681  16.780  0.00  0.00    +0.000 S 
ATOM     22  O   UNL     1       6.721   4.357  16.786  0.00  0.00    +0.000 OA
ATOM     23  O   UNL     1       6.083   6.446  15.556  0.00  0.00    +0.000 OA
BRANCH  21  24
ATOM     24  N   UNL     1       6.934   6.597  17.965  0.00  0.00    +0.000 NA
ATOM     25  C   UNL     1       7.659   5.888  19.028  0.00  0.00    +0.000 C 
ATOM     26  C   UNL     1       7.606   7.833  17.530  0.00  0.00    +0.000 C 
ENDBRANCH  21  24
ENDBRANCH   7  21
TORSDOF 4
ENDMDL
MODEL 5
REMARK VINA RESULT:      -7.3      2.380      3.443
REMARK  Name = 
REMARK  7 active torsions:
REMARK  status: ('A' for Active; 'I' for Inactive)
REMARK    1  A    between atoms: C_1  and  C_2
REMARK    2  A    between atoms: C_5  and  N_6
REMARK    3  A    between atoms: N_9  and  C_10
REMARK    4  A    between atoms: C_18  and  S_19
REMARK    5  A    between atoms: S_19  and  N_22
REMARK    6  A    between atoms: N_22  and  C_23
REMARK    7  A    between atoms: N_22  and  C_24
REMARK                            x       y       z     vdW  Elec       q    Type
REMARK                         _______ _______ _______ _____ _____    ______ ____
ROOT
ATOM      1  C   UNL     1       4.448   4.093  19.335  0.00  0.00    +0.000 C 
ATOM      2  C   UNL     1       3.780   5.365  18.901  0.00  0.00    +0.000 A 
ATOM      3  C   UNL     1       2.739   5.839  19.714  0.00  0.00    +0.000 A 
ATOM      4  C   UNL     1       2.070   7.023  19.422  0.00  0.00    +0.000 A 
ATOM      5  C   UNL     1       2.406   7.792  18.312  0.00  0.00    +0.000 A 
ATOM      6  C   UNL     1       3.436   7.334  17.486  0.00  0.00    +0.000 A 
ATOM      7  C   UNL     1       4.096   6.109  17.750  0.00  0.00    +0.000 A 
ENDROOT
BRANCH   5   8
ATOM      8  N   UNL     1       1.755   9.004  17.984  0.00  0.00    +0.000 N 
ATOM      9  C   UNL     1       0.936   9.730  18.833  0.00  0.00    +0.000 C 
ATOM     10  O   UNL     1       0.652   9.413  19.983  0.00  0.00    +0.000 OA
ATOM     11  N   UNL     1       0.411  10.856  18.219  0.00  0.00    +0.000 N 
ATOM     12  H   UNL     1       1.893   9.369  17.053  0.00  0.00    +0.000 HD
ATOM     13  H   UNL     1       0.168  10.735  17.244  0.00  0.00    +0.000 HD
BRANCH  11  14
ATOM     14  C   UNL     1      -0.455  11.722  18.943  0.00  0.00    +0.000 A 
ATOM     15  C   UNL     1       0.061  12.777  19.707  0.00  0.00    +0.000 A 
ATOM     16  C   UNL     1      -0.790  13.597  20.450  0.00  0.00    +0.000 A 
ATOM     17  C   UNL     1      -2.164  13.366  20.441  0.00  0.00    +0.000 A 
ATOM     18  C   UNL     1      -2.690  12.321  19.679  0.00  0.00    +0.000 A 
ATOM     19  C   UNL     1      -1.840  11.511  18.920  0.00  0.00    +0.000 A 
ATOM     20 CL   UNL     1      -2.524  10.192  18.035  0.00  0.00    +0.000 Cl
ENDBRANCH  11  14
ENDBRANCH   5   8
BRANCH   7  21
ATOM     21  S   UNL     1       5.364   5.622  16.572  0.00  0.00    +0.000 S 
ATOM     22  O   UNL     1       5.146   4.217  16.288  0.00  0.00    +0.000 OA
ATOM     23  O   UNL     1       5.409   6.580  15.492  0.00  0.00    +0.000 OA
BRANCH  21  24
ATOM     24  N   UNL     1       6.806   5.739  17.464  0.00  0.00    +0.000 NA
ATOM     25  C   UNL     1       7.698   4.572  17.511  0.00  0.00    +0.000 C 
ATOM     26  C   UNL     1       7.529   7.020  17.424  0.00  0.00    +0.000 C 
ENDBRANCH  21  24
ENDBRANCH   7  21
TORSDOF 4
ENDMDL
MODEL 6
REMARK VINA RESULT:      -7.3      1.187      1.448
REMARK  Name = 
REMARK  7 active torsions:
REMARK  status: ('A' for Active; 'I' for Inactive)
REMARK    1  A    between atoms: C_1  and  C_2
REMARK    2  A    between atoms: C_5  and  N_6
REMARK    3  A    between atoms: N_9  and  C_10
REMARK    4  A    between atoms: C_18  and  S_19
REMARK    5  A    between atoms: S_19  and  N_22
REMARK    6  A    between atoms: N_22  and  C_23
REMARK    7  A    between atoms: N_22  and  C_24
REMARK                            x       y       z     vdW  Elec       q    Type
REMARK                         _______ _______ _______ _____ _____    ______ ____
ROOT
ATOM      1  C   UNL     1       4.815   3.920  16.345  0.00  0.00    +0.000 C 
ATOM      2  C   UNL     1       4.057   4.948  17.134  0.00  0.00    +0.000 A 
ATOM      3  C   UNL     1       4.505   6.274  17.036  0.00  0.00    +0.000 A 
ATOM      4  C   UNL     1       3.860   7.310  17.701  0.00  0.00    +0.000 A 
ATOM      5  C   UNL     1       2.738   7.079  18.492  0.00  0.00    +0.000 A 
ATOM      6  C   UNL     1       2.280   5.764  18.609  0.00  0.00    +0.000 A 
ATOM      7  C   UNL     1       2.953   4.695  17.969  0.00  0.00    +0.000 A 
ENDROOT
BRANCH   5   8
ATOM      8  N   UNL     1       2.050   8.106  19.180  0.00  0.00    +0.000 N 
ATOM      9  C   UNL     1       1.695   9.332  18.644  0.00  0.00    +0.000 C 
ATOM     10  O   UNL     1       1.942   9.702  17.501  0.00  0.00    +0.000 OA
ATOM     11  N   UNL     1       1.061  10.146  19.569  0.00  0.00    +0.000 N 
ATOM     12  H   UNL     1       1.801   7.933  20.143  0.00  0.00    +0.000 HD
ATOM     13  H   UNL     1       1.422  10.078  20.513  0.00  0.00    +0.000 HD
BRANCH  11  14
ATOM     14  C   UNL     1       0.626  11.447  19.193  0.00  0.00    +0.000 A 
ATOM     15  C   UNL     1       1.431  12.569  19.434  0.00  0.00    +0.000 A 
ATOM     16  C   UNL     1       0.981  13.848  19.101  0.00  0.00    +0.000 A 
ATOM     17  C   UNL     1      -0.279  14.017  18.530  0.00  0.00    +0.000 A 
ATOM     18  C   UNL     1      -1.086  12.906  18.280  0.00  0.00    +0.000 A 
ATOM     19  C   UNL     1      -0.629  11.624  18.596  0.00  0.00    +0.000 A 
ATOM     20 CL   UNL     1      -1.681  10.278  18.324  0.00  0.00    +0.000 Cl
ENDBRANCH  11  14
ENDBRANCH   5   8
BRANCH   7  21
ATOM     21  S   UNL     1       2.280   3.051  18.251  0.00  0.00    +0.000 S 
ATOM     22  O   UNL     1       1.102   3.224  19.078  0.00  0.00    +0.000 OA
ATOM     23  O   UNL     1       2.184   2.350  16.992  0.00  0.00    +0.000 OA
BRANCH  21  24
ATOM     24  N   UNL     1       3.462   2.293  19.208  0.00  0.00    +0.000 NA
ATOM     25  C   UNL     1       3.368   2.419  20.669  0.00  0.00    +0.000 C 
ATOM     26  C   UNL     1       3.951   0.976  18.770  0.00  0.00    +0.000 C 
ENDBRANCH  21  24
ENDBRANCH   7  21
TORSDOF 4
ENDMDL
MODEL 7
REMARK VINA RESULT:      -7.2      2.037      2.333
REMARK  Name = 
REMARK  7 active torsions:
REMARK  status: ('A' for Active; 'I' for Inactive)
REMARK    1  A    between atoms: C_1  and  C_2
REMARK    2  A    between atoms: C_5  and  N_6
REMARK    3  A    between atoms: N_9  and  C_10
REMARK    4  A    between atoms: C_18  and  S_19
REMARK    5  A    between atoms: S_19  and  N_22
REMARK    6  A    between atoms: N_22  and  C_23
REMARK    7  A    between atoms: N_22  and  C_24
REMARK                            x       y       z     vdW  Elec       q    Type
REMARK                         _______ _______ _______ _____ _____    ______ ____
ROOT
ATOM      1  C   UNL     1       6.074   4.401  17.258  0.00  0.00    +0.000 C 
ATOM      2  C   UNL     1       4.933   5.311  17.607  0.00  0.00    +0.000 A 
ATOM      3  C   UNL     1       5.034   6.642  17.174  0.00  0.00    +0.000 A 
ATOM      4  C   UNL     1       4.022   7.565  17.417  0.00  0.00    +0.000 A 
ATOM      5  C   UNL     1       2.862   7.208  18.098  0.00  0.00    +0.000 A 
ATOM      6  C   UNL     1       2.745   5.889  18.545  0.00  0.00    +0.000 A 
ATOM      7  C   UNL     1       3.787   4.951  18.339  0.00  0.00    +0.000 A 
ENDROOT
BRANCH   5   8
ATOM      8  N   UNL     1       1.808   8.114  18.361  0.00  0.00    +0.000 N 
ATOM      9  C   UNL     1       1.469   8.609  19.608  0.00  0.00    +0.000 C 
ATOM     10  O   UNL     1       2.028   8.317  20.661  0.00  0.00    +0.000 OA
ATOM     11  N   UNL     1       0.369   9.450  19.557  0.00  0.00    +0.000 N 
ATOM     12  H   UNL     1       1.254   8.422  17.575  0.00  0.00    +0.000 HD
ATOM     13  H   UNL     1      -0.348   9.174  18.898  0.00  0.00    +0.000 HD
BRANCH  11  14
ATOM     14  C   UNL     1      -0.123  10.051  20.750  0.00  0.00    +0.000 A 
ATOM     15  C   UNL     1      -0.202   9.318  21.941  0.00  0.00    +0.000 A 
ATOM     16  C   UNL     1      -0.725   9.899  23.098  0.00  0.00    +0.000 A 
ATOM     17  C   UNL     1      -1.179  11.217  23.072  0.00  0.00    +0.000 A 
ATOM     18  C   UNL     1      -1.100  11.958  21.891  0.00  0.00    +0.000 A 
ATOM     19  C   UNL     1      -0.559  11.383  20.739  0.00  0.00    +0.000 A 
ATOM     20 CL   UNL     1      -0.531  12.315  19.282  0.00  0.00    +0.000 Cl
ENDBRANCH  11  14
ENDBRANCH   5   8
BRANCH   7  21
ATOM     21  S   UNL     1       3.518   3.306  19.014  0.00  0.00    +0.000 S 
ATOM     22  O   UNL     1       3.278   2.431  17.884  0.00  0.00    +0.000 OA
ATOM     23  O   UNL     1       4.567   2.998  19.958  0.00  0.00    +0.000 OA
BRANCH  21  24
ATOM     24  N   UNL     1       2.051   3.455  19.859  0.00  0.00    +0.000 NA
ATOM     25  C   UNL     1       0.885   2.700  19.378  0.00  0.00    +0.000 C 
ATOM     26  C   UNL     1       2.118   3.547  21.327  0.00  0.00    +0.000 C 
ENDBRANCH  21  24
ENDBRANCH   7  21
TORSDOF 4
ENDMDL
MODEL 8
REMARK VINA RESULT:      -7.2      2.578      3.668
REMARK  Name = 
REMARK  7 active torsions:
REMARK  status: ('A' for Active; 'I' for Inactive)
REMARK    1  A    between atoms: C_1  and  C_2
REMARK    2  A    between atoms: C_5  and  N_6
REMARK    3  A    between atoms: N_9  and  C_10
REMARK    4  A    between atoms: C_18  and  S_19
REMARK    5  A    between atoms: S_19  and  N_22
REMARK    6  A    between atoms: N_22  and  C_23
REMARK    7  A    between atoms: N_22  and  C_24
REMARK                            x       y       z     vdW  Elec       q    Type
REMARK                         _______ _______ _______ _____ _____    ______ ____
ROOT
ATOM      1  C   UNL     1       4.570   4.186  19.393  0.00  0.00    +0.000 C 
ATOM      2  C   UNL     1       3.826   5.398  18.914  0.00  0.00    +0.000 A 
ATOM      3  C   UNL     1       2.754   5.835  19.708  0.00  0.00    +0.000 A 
ATOM      4  C   UNL     1       2.014   6.964  19.373  0.00  0.00    +0.000 A 
ATOM      5  C   UNL     1       2.305   7.713  18.237  0.00  0.00    +0.000 A 
ATOM      6  C   UNL     1       3.364   7.290  17.428  0.00  0.00    +0.000 A 
ATOM      7  C   UNL     1       4.098   6.119  17.736  0.00  0.00    +0.000 A 
ENDROOT
BRANCH   5   8
ATOM      8  N   UNL     1       1.581   8.869  17.865  0.00  0.00    +0.000 N 
ATOM      9  C   UNL     1       1.097   9.827  18.739  0.00  0.00    +0.000 C 
ATOM     10  O   UNL     1       1.218   9.797  19.959  0.00  0.00    +0.000 OA
ATOM     11  N   UNL     1       0.395  10.827  18.084  0.00  0.00    +0.000 N 
ATOM     12  H   UNL     1       1.396   9.006  16.882  0.00  0.00    +0.000 HD
ATOM     13  H   UNL     1      -0.163  10.513  17.301  0.00  0.00    +0.000 HD
BRANCH  11  14
ATOM     14  C   UNL     1      -0.176  11.898  18.827  0.00  0.00    +0.000 A 
ATOM     15  C   UNL     1      -1.464  11.788  19.368  0.00  0.00    +0.000 A 
ATOM     16  C   UNL     1      -2.037  12.857  20.059  0.00  0.00    +0.000 A 
ATOM     17  C   UNL     1      -1.329  14.048  20.211  0.00  0.00    +0.000 A 
ATOM     18  C   UNL     1      -0.043  14.167  19.681  0.00  0.00    +0.000 A 
ATOM     19  C   UNL     1       0.538  13.091  19.005  0.00  0.00    +0.000 A 
ATOM     20 CL   UNL     1       2.110  13.297  18.314  0.00  0.00    +0.000 Cl
ENDBRANCH  11  14
ENDBRANCH   5   8
BRANCH   7  21
ATOM     21  S   UNL     1       5.398   5.670  16.578  0.00  0.00    +0.000 S 
ATOM     22  O   UNL     1       5.189   4.274  16.245  0.00  0.00    +0.000 OA
ATOM     23  O   UNL     1       5.469   6.661  15.530  0.00  0.00    +0.000 OA
BRANCH  21  24
ATOM     24  N   UNL     1       6.815   5.760  17.510  0.00  0.00    +0.000 NA
ATOM     25  C   UNL     1       7.695   4.584  17.567  0.00  0.00    +0.000 C 
ATOM     26  C   UNL     1       7.551   7.035  17.508  0.00  0.00    +0.000 C 
ENDBRANCH  21  24
ENDBRANCH   7  21
TORSDOF 4
ENDMDL
MODEL 9
REMARK VINA RESULT:      -7.1      2.209      3.405
REMARK  Name = 
REMARK  7 active torsions:
REMARK  status: ('A' for Active; 'I' for Inactive)
REMARK    1  A    between atoms: C_1  and  C_2
REMARK    2  A    between atoms: C_5  and  N_6
REMARK    3  A    between atoms: N_9  and  C_10
REMARK    4  A    between atoms: C_18  and  S_19
REMARK    5  A    between atoms: S_19  and  N_22
REMARK    6  A    between atoms: N_22  and  C_23
REMARK    7  A    between atoms: N_22  and  C_24
REMARK                            x       y       z     vdW  Elec       q    Type
REMARK                         _______ _______ _______ _____ _____    ______ ____
ROOT
ATOM      1  C   UNL     1       4.200   2.858  19.065  0.00  0.00    +0.000 C 
ATOM      2  C   UNL     1       3.800   4.253  18.682  0.00  0.00    +0.000 A 
ATOM      3  C   UNL     1       2.428   4.489  18.506  0.00  0.00    +0.000 A 
ATOM      4  C   UNL     1       1.944   5.751  18.179  0.00  0.00    +0.000 A 
ATOM      5  C   UNL     1       2.799   6.837  18.014  0.00  0.00    +0.000 A 
ATOM      6  C   UNL     1       4.170   6.621  18.177  0.00  0.00    +0.000 A 
ATOM      7  C   UNL     1       4.678   5.332  18.470  0.00  0.00    +0.000 A 
ENDROOT
BRANCH   5   8
ATOM      8  N   UNL     1       2.346   8.137  17.687  0.00  0.00    +0.000 N 
ATOM      9  C   UNL     1       1.700   9.002  18.553  0.00  0.00    +0.000 C 
ATOM     10  O   UNL     1       1.418   8.754  19.721  0.00  0.00    +0.000 OA
ATOM     11  N   UNL     1       1.345  10.192  17.938  0.00  0.00    +0.000 N 
ATOM     12  H   UNL     1       2.502   8.459  16.743  0.00  0.00    +0.000 HD
ATOM     13  H   UNL     1       1.041  10.100  16.976  0.00  0.00    +0.000 HD
BRANCH  11  14
ATOM     14  C   UNL     1       0.669  11.202  18.678  0.00  0.00    +0.000 A 
ATOM     15  C   UNL     1       1.388  12.141  19.429  0.00  0.00    +0.000 A 
ATOM     16  C   UNL     1       0.719  13.103  20.188  0.00  0.00    +0.000 A 
ATOM     17  C   UNL     1      -0.674  13.131  20.208  0.00  0.00    +0.000 A 
ATOM     18  C   UNL     1      -1.400  12.203  19.459  0.00  0.00    +0.000 A 
ATOM     19  C   UNL     1      -0.731  11.252  18.684  0.00  0.00    +0.000 A 
ATOM     20 CL   UNL     1      -1.666  10.084  17.816  0.00  0.00    +0.000 Cl
ENDBRANCH  11  14
ENDBRANCH   5   8
BRANCH   7  21
ATOM     21  S   UNL     1       6.466   5.195  18.600  0.00  0.00    +0.000 S 
ATOM     22  O   UNL     1       6.791   5.352  20.005  0.00  0.00    +0.000 OA
ATOM     23  O   UNL     1       6.911   4.024  17.882  0.00  0.00    +0.000 OA
BRANCH  21  24
ATOM     24  N   UNL     1       7.034   6.578  17.793  0.00  0.00    +0.000 NA
ATOM     25  C   UNL     1       8.096   7.373  18.425  0.00  0.00    +0.000 C 
ATOM     26  C   UNL     1       7.155   6.509  16.327  0.00  0.00    +0.000 C 
ENDBRANCH  21  24
ENDBRANCH   7  21
TORSDOF 4
ENDMDL
