MODEL 1
REMARK VINA RESULT:      -7.0      0.000      0.000
REMARK  Name = 
REMARK  4 active torsions:
REMARK  status: ('A' for Active; 'I' for Inactive)
REMARK    1  A    between atoms: N_5  and  C_6
REMARK    2  A    between atoms: C_6  and  C_7
REMARK    3  A    between atoms: C_7  and  C_8
REMARK    4  A    between atoms: C_8  and  O_9
REMARK                            x       y       z     vdW  Elec       q    Type
REMARK                         _______ _______ _______ _____ _____    ______ ____
ROOT
ATOM      1  O   UNL     1       3.867   7.183  17.638  0.00  0.00    +0.000 OA
ATOM      2  C   UNL     1       4.268   6.088  17.254  0.00  0.00    +0.000 A 
ATOM      3  N   UNL     1       5.175   5.968  16.226  0.00  0.00    +0.000 N 
ATOM      4  C   UNL     1       5.551   4.771  15.663  0.00  0.00    +0.000 A 
ATOM      5  N   UNL     1       6.368   4.884  14.577  0.00  0.00    +0.000 N 
ATOM      6  N   UNL     1       5.148   3.621  16.123  0.00  0.00    +0.000 NA
ATOM      7  C   UNL     1       4.334   3.682  17.212  0.00  0.00    +0.000 A 
ATOM      8  S   UNL     1       3.800   2.271  18.015  0.00  0.00    +0.000 S 
ATOM      9  C   UNL     1       2.892   3.180  19.133  0.00  0.00    +0.000 A 
ATOM     10  C   UNL     1       2.961   4.543  18.898  0.00  0.00    +0.000 A 
ATOM     11  C   UNL     1       3.842   4.822  17.807  0.00  0.00    +0.000 A 
ATOM     12  C   UNL     1       2.225   5.538  19.744  0.00  0.00    +0.000 C 
ATOM     13  C   UNL     1       1.166   4.867  20.633  0.00  0.00    +0.000 C 
ATOM     14  C   UNL     1       1.694   3.578  21.279  0.00  0.00    +0.000 C 
ATOM     15  C   UNL     1       2.087   2.535  20.219  0.00  0.00    +0.000 C 
ATOM     16  H   UNL     1       5.450   6.832  15.793  0.00  0.00    +0.000 HD
ATOM     17  H   UNL     1       6.922   5.721  14.455  0.00  0.00    +0.000 HD
ENDROOT
BRANCH   5  18
ATOM     18  C   UNL     1       6.538   3.842  13.585  0.00  0.00    +0.000 C 
BRANCH  18  19
ATOM     19  C   UNL     1       5.428   3.860  12.548  0.00  0.00    +0.000 C 
BRANCH  19  20
ATOM     20  C   UNL     1       5.315   2.551  11.779  0.00  0.00    +0.000 C 
BRANCH  20  21
ATOM     21  O   UNL     1       6.619   2.015  11.579  0.00  0.00    +0.000 OA
ATOM     22  H   UNL     1       6.980   1.795  12.455  0.00  0.00    +0.000 HD
ENDBRANCH  20  21
ENDBRANCH  19  20
ENDBRANCH  18  19
ENDBRANCH   5  18
TORSDOF 4
ENDMDL
MODEL 2
REMARK VINA RESULT:      -7.0      1.276      1.470
REMARK  Name = 
REMARK  4 active torsions:
REMARK  status: ('A' for Active; 'I' for Inactive)
REMARK    1  A    between atoms: N_5  and  C_6
REMARK    2  A    between atoms: C_6  and  C_7
REMARK    3  A    between atoms: C_7  and  C_8
REMARK    4  A    between atoms: C_8  and  O_9
REMARK                            x       y       z     vdW  Elec       q    Type
REMARK                         _______ _______ _______ _____ _____    ______ ____
ROOT
ATOM      1  O   UNL     1       4.070   7.301  17.513  0.00  0.00    +0.000 OA
ATOM      2  C   UNL     1       4.381   6.182  17.113  0.00  0.00    +0.000 A 
ATOM      3  N   UNL     1       5.234   6.004  16.048  0.00  0.00    +0.000 N 
ATOM      4  C   UNL     1       5.506   4.787  15.471  0.00  0.00    +0.000 A 
ATOM      5  N   UNL     1       6.282   4.848  14.351  0.00  0.00    +0.000 N 
ATOM      6  N   UNL     1       5.049   3.664  15.949  0.00  0.00    +0.000 NA
ATOM      7  C   UNL     1       4.288   3.777  17.071  0.00  0.00    +0.000 A 
ATOM      8  S   UNL     1       3.698   2.403  17.898  0.00  0.00    +0.000 S 
ATOM      9  C   UNL     1       2.900   3.367  19.053  0.00  0.00    +0.000 A 
ATOM     10  C   UNL     1       3.047   4.723  18.813  0.00  0.00    +0.000 A 
ATOM     11  C   UNL     1       3.897   4.946  17.685  0.00  0.00    +0.000 A 
ATOM     12  C   UNL     1       2.415   5.763  19.688  0.00  0.00    +0.000 C 
ATOM     13  C   UNL     1       1.353   5.161  20.623  0.00  0.00    +0.000 C 
ATOM     14  C   UNL     1       1.822   3.840  21.248  0.00  0.00    +0.000 C 
ATOM     15  C   UNL     1       2.101   2.775  20.173  0.00  0.00    +0.000 C 
ATOM     16  H   UNL     1       5.546   6.849  15.602  0.00  0.00    +0.000 HD
ATOM     17  H   UNL     1       6.884   5.646  14.204  0.00  0.00    +0.000 HD
ENDROOT
BRANCH   5  18
ATOM     18  C   UNL     1       6.341   3.798  13.353  0.00  0.00    +0.000 C 
BRANCH  18  19
ATOM     19  C   UNL     1       7.255   4.167  12.197  0.00  0.00    +0.000 C 
BRANCH  19  20
ATOM     20  C   UNL     1       7.719   5.615  12.248  0.00  0.00    +0.000 C 
BRANCH  20  21
ATOM     21  O   UNL     1       8.721   5.748  13.251  0.00  0.00    +0.000 OA
ATOM     22  H   UNL     1       9.420   5.102  13.051  0.00  0.00    +0.000 HD
ENDBRANCH  20  21
ENDBRANCH  19  20
ENDBRANCH  18  19
ENDBRANCH   5  18
TORSDOF 4
ENDMDL
MODEL 3
REMARK VINA RESULT:      -6.9      1.551      1.689
REMARK  Name = 
REMARK  4 active torsions:
REMARK  status: ('A' for Active; 'I' for Inactive)
REMARK    1  A    between atoms: N_5  and  C_6
REMARK    2  A    between atoms: C_6  and  C_7
REMARK    3  A    between atoms: C_7  and  C_8
REMARK    4  A    between atoms: C_8  and  O_9
REMARK                            x       y       z     vdW  Elec       q    Type
REMARK                         _______ _______ _______ _____ _____    ______ ____
ROOT
ATOM      1  O   UNL     1       6.333   4.787  19.758  0.00  0.00    +0.000 OA
ATOM      2  C   UNL     1       5.891   4.507  18.647  0.00  0.00    +0.000 A 
ATOM      3  N   UNL     1       6.673   4.570  17.517  0.00  0.00    +0.000 N 
ATOM      4  C   UNL     1       6.198   4.405  16.238  0.00  0.00    +0.000 A 
ATOM      5  N   UNL     1       7.117   4.629  15.256  0.00  0.00    +0.000 N 
ATOM      6  N   UNL     1       4.964   4.073  15.984  0.00  0.00    +0.000 NA
ATOM      7  C   UNL     1       4.174   3.889  17.076  0.00  0.00    +0.000 A 
ATOM      8  S   UNL     1       2.560   3.344  16.937  0.00  0.00    +0.000 S 
ATOM      9  C   UNL     1       2.328   3.415  18.623  0.00  0.00    +0.000 A 
ATOM     10  C   UNL     1       3.447   3.872  19.299  0.00  0.00    +0.000 A 
ATOM     11  C   UNL     1       4.527   4.098  18.391  0.00  0.00    +0.000 A 
ATOM     12  C   UNL     1       3.468   4.036  20.789  0.00  0.00    +0.000 C 
ATOM     13  C   UNL     1       2.058   3.973  21.396  0.00  0.00    +0.000 C 
ATOM     14  C   UNL     1       1.217   2.847  20.777  0.00  0.00    +0.000 C 
ATOM     15  C   UNL     1       1.025   3.052  19.265  0.00  0.00    +0.000 C 
ATOM     16  H   UNL     1       7.612   4.899  17.663  0.00  0.00    +0.000 HD
ATOM     17  H   UNL     1       8.102   4.546  15.467  0.00  0.00    +0.000 HD
ENDROOT
BRANCH   5  18
ATOM     18  C   UNL     1       6.771   4.938  13.883  0.00  0.00    +0.000 C 
BRANCH  18  19
ATOM     19  C   UNL     1       6.980   3.746  12.964  0.00  0.00    +0.000 C 
BRANCH  19  20
ATOM     20  C   UNL     1       5.707   3.320  12.248  0.00  0.00    +0.000 C 
BRANCH  20  21
ATOM     21  O   UNL     1       5.847   1.971  11.812  0.00  0.00    +0.000 OA
ATOM     22  H   UNL     1       4.955   1.586  11.767  0.00  0.00    +0.000 HD
ENDBRANCH  20  21
ENDBRANCH  19  20
ENDBRANCH  18  19
ENDBRANCH   5  18
TORSDOF 4
ENDMDL
MODEL 4
REMARK VINA RESULT:      -6.6      3.261      4.855
REMARK  Name = 
REMARK  4 active torsions:
REMARK  status: ('A' for Active; 'I' for Inactive)
REMARK    1  A    between atoms: N_5  and  C_6
REMARK    2  A    between atoms: C_6  and  C_7
REMARK    3  A    between atoms: C_7  and  C_8
REMARK    4  A    between atoms: C_8  and  O_9
REMARK                            x       y       z     vdW  Elec       q    Type
REMARK                         _______ _______ _______ _____ _____    ______ ____
ROOT
ATOM      1  O   UNL     1       2.289   4.979  21.176  0.00  0.00    +0.000 OA
ATOM      2  C   UNL     1       2.650   5.368  20.068  0.00  0.00    +0.000 A 
ATOM      3  N   UNL     1       3.359   4.560  19.210  0.00  0.00    +0.000 N 
ATOM      4  C   UNL     1       3.907   4.984  18.024  0.00  0.00    +0.000 A 
ATOM      5  N   UNL     1       4.674   4.055  17.385  0.00  0.00    +0.000 N 
ATOM      6  N   UNL     1       3.718   6.184  17.551  0.00  0.00    +0.000 NA
ATOM      7  C   UNL     1       2.929   6.990  18.311  0.00  0.00    +0.000 A 
ATOM      8  S   UNL     1       2.483   8.557  17.794  0.00  0.00    +0.000 S 
ATOM      9  C   UNL     1       1.602   8.843  19.223  0.00  0.00    +0.000 A 
ATOM     10  C   UNL     1       1.657   7.779  20.108  0.00  0.00    +0.000 A 
ATOM     11  C   UNL     1       2.392   6.691  19.543  0.00  0.00    +0.000 A 
ATOM     12  C   UNL     1       0.973   7.813  21.442  0.00  0.00    +0.000 C 
ATOM     13  C   UNL     1       0.525   9.233  21.824  0.00  0.00    +0.000 C 
ATOM     14  C   UNL     1      -0.108   9.973  20.637  0.00  0.00    +0.000 C 
ATOM     15  C   UNL     1       0.889  10.135  19.477  0.00  0.00    +0.000 C 
ATOM     16  H   UNL     1       3.593   3.651  19.572  0.00  0.00    +0.000 HD
ATOM     17  H   UNL     1       4.531   3.073  17.578  0.00  0.00    +0.000 HD
ENDROOT
BRANCH   5  18
ATOM     18  C   UNL     1       5.675   4.382  16.388  0.00  0.00    +0.000 C 
BRANCH  18  19
ATOM     19  C   UNL     1       7.031   4.657  17.015  0.00  0.00    +0.000 C 
BRANCH  19  20
ATOM     20  C   UNL     1       7.308   6.142  17.199  0.00  0.00    +0.000 C 
BRANCH  20  21
ATOM     21  O   UNL     1       6.340   6.890  16.470  0.00  0.00    +0.000 OA
ATOM     22  H   UNL     1       6.715   7.071  15.591  0.00  0.00    +0.000 HD
ENDBRANCH  20  21
ENDBRANCH  19  20
ENDBRANCH  18  19
ENDBRANCH   5  18
TORSDOF 4
ENDMDL
MODEL 5
REMARK VINA RESULT:      -6.6      3.531      5.015
REMARK  Name = 
REMARK  4 active torsions:
REMARK  status: ('A' for Active; 'I' for Inactive)
REMARK    1  A    between atoms: N_5  and  C_6
REMARK    2  A    between atoms: C_6  and  C_7
REMARK    3  A    between atoms: C_7  and  C_8
REMARK    4  A    between atoms: C_8  and  O_9
REMARK                            x       y       z     vdW  Elec       q    Type
REMARK                         _______ _______ _______ _____ _____    ______ ____
ROOT
ATOM      1  O   UNL     1       2.266   5.288  21.014  0.00  0.00    +0.000 OA
ATOM      2  C   UNL     1       2.539   5.758  19.912  0.00  0.00    +0.000 A 
ATOM      3  N   UNL     1       3.200   5.024  18.955  0.00  0.00    +0.000 N 
ATOM      4  C   UNL     1       3.653   5.538  17.763  0.00  0.00    +0.000 A 
ATOM      5  N   UNL     1       4.390   4.672  17.012  0.00  0.00    +0.000 N 
ATOM      6  N   UNL     1       3.407   6.761  17.387  0.00  0.00    +0.000 NA
ATOM      7  C   UNL     1       2.659   7.497  18.252  0.00  0.00    +0.000 A 
ATOM      8  S   UNL     1       2.146   9.083  17.874  0.00  0.00    +0.000 S 
ATOM      9  C   UNL     1       1.365   9.253  19.378  0.00  0.00    +0.000 A 
ATOM     10  C   UNL     1       1.504   8.136  20.183  0.00  0.00    +0.000 A 
ATOM     11  C   UNL     1       2.218   7.105  19.497  0.00  0.00    +0.000 A 
ATOM     12  C   UNL     1       0.917   8.066  21.561  0.00  0.00    +0.000 C 
ATOM     13  C   UNL     1       0.471   9.446  22.068  0.00  0.00    +0.000 C 
ATOM     14  C   UNL     1      -0.261  10.247  20.981  0.00  0.00    +0.000 C 
ATOM     15  C   UNL     1       0.647  10.508  19.766  0.00  0.00    +0.000 C 
ATOM     16  H   UNL     1       3.476   4.100  19.237  0.00  0.00    +0.000 HD
ATOM     17  H   UNL     1       4.281   3.676  17.148  0.00  0.00    +0.000 HD
ENDROOT
BRANCH   5  18
ATOM     18  C   UNL     1       5.310   5.087  15.971  0.00  0.00    +0.000 C 
BRANCH  18  19
ATOM     19  C   UNL     1       6.726   4.611  16.243  0.00  0.00    +0.000 C 
BRANCH  19  20
ATOM     20  C   UNL     1       7.221   4.987  17.633  0.00  0.00    +0.000 C 
BRANCH  20  21
ATOM     21  O   UNL     1       6.723   4.043  18.575  0.00  0.00    +0.000 OA
ATOM     22  H   UNL     1       6.472   3.244  18.082  0.00  0.00    +0.000 HD
ENDBRANCH  20  21
ENDBRANCH  19  20
ENDBRANCH  18  19
ENDBRANCH   5  18
TORSDOF 4
ENDMDL
MODEL 6
REMARK VINA RESULT:      -6.5      3.109      4.398
REMARK  Name = 
REMARK  4 active torsions:
REMARK  status: ('A' for Active; 'I' for Inactive)
REMARK    1  A    between atoms: N_5  and  C_6
REMARK    2  A    between atoms: C_6  and  C_7
REMARK    3  A    between atoms: C_7  and  C_8
REMARK    4  A    between atoms: C_8  and  O_9
REMARK                            x       y       z     vdW  Elec       q    Type
REMARK                         _______ _______ _______ _____ _____    ______ ____
ROOT
ATOM      1  O   UNL     1       2.354   4.838  21.264  0.00  0.00    +0.000 OA
ATOM      2  C   UNL     1       2.829   5.189  20.187  0.00  0.00    +0.000 A 
ATOM      3  N   UNL     1       3.654   4.367  19.455  0.00  0.00    +0.000 N 
ATOM      4  C   UNL     1       4.323   4.756  18.319  0.00  0.00    +0.000 A 
ATOM      5  N   UNL     1       5.183   3.826  17.818  0.00  0.00    +0.000 N 
ATOM      6  N   UNL     1       4.156   5.927  17.772  0.00  0.00    +0.000 NA
ATOM      7  C   UNL     1       3.263   6.740  18.398  0.00  0.00    +0.000 A 
ATOM      8  S   UNL     1       2.836   8.267  17.759  0.00  0.00    +0.000 S 
ATOM      9  C   UNL     1       1.789   8.587  19.064  0.00  0.00    +0.000 A 
ATOM     10  C   UNL     1       1.772   7.566  19.999  0.00  0.00    +0.000 A 
ATOM     11  C   UNL     1       2.597   6.478  19.574  0.00  0.00    +0.000 A 
ATOM     12  C   UNL     1       0.938   7.636  21.243  0.00  0.00    +0.000 C 
ATOM     13  C   UNL     1       0.410   9.056  21.504  0.00  0.00    +0.000 C 
ATOM     14  C   UNL     1      -0.102   9.722  20.219  0.00  0.00    +0.000 C 
ATOM     15  C   UNL     1       1.016   9.865  19.173  0.00  0.00    +0.000 C 
ATOM     16  H   UNL     1       3.869   3.484  19.884  0.00  0.00    +0.000 HD
ATOM     17  H   UNL     1       5.046   2.849  18.039  0.00  0.00    +0.000 HD
ENDROOT
BRANCH   5  18
ATOM     18  C   UNL     1       6.282   4.141  16.926  0.00  0.00    +0.000 C 
BRANCH  18  19
ATOM     19  C   UNL     1       5.941   3.837  15.477  0.00  0.00    +0.000 C 
BRANCH  19  20
ATOM     20  C   UNL     1       6.187   5.019  14.551  0.00  0.00    +0.000 C 
BRANCH  20  21
ATOM     21  O   UNL     1       5.532   6.168  15.077  0.00  0.00    +0.000 OA
ATOM     22  H   UNL     1       4.669   5.879  15.419  0.00  0.00    +0.000 HD
ENDBRANCH  20  21
ENDBRANCH  19  20
ENDBRANCH  18  19
ENDBRANCH   5  18
TORSDOF 4
ENDMDL
MODEL 7
REMARK VINA RESULT:      -6.4      3.333      5.036
REMARK  Name = 
REMARK  4 active torsions:
REMARK  status: ('A' for Active; 'I' for Inactive)
REMARK    1  A    between atoms: N_5  and  C_6
REMARK    2  A    between atoms: C_6  and  C_7
REMARK    3  A    between atoms: C_7  and  C_8
REMARK    4  A    between atoms: C_8  and  O_9
REMARK                            x       y       z     vdW  Elec       q    Type
REMARK                         _______ _______ _______ _____ _____    ______ ____
ROOT
ATOM      1  O   UNL     1       5.344   3.270  15.852  0.00  0.00    +0.000 OA
ATOM      2  C   UNL     1       5.379   4.236  16.609  0.00  0.00    +0.000 A 
ATOM      3  N   UNL     1       6.335   5.219  16.488  0.00  0.00    +0.000 N 
ATOM      4  C   UNL     1       6.508   6.244  17.387  0.00  0.00    +0.000 A 
ATOM      5  N   UNL     1       7.590   7.038  17.145  0.00  0.00    +0.000 N 
ATOM      6  N   UNL     1       5.707   6.435  18.398  0.00  0.00    +0.000 NA
ATOM      7  C   UNL     1       4.677   5.553  18.498  0.00  0.00    +0.000 A 
ATOM      8  S   UNL     1       3.467   5.716  19.695  0.00  0.00    +0.000 S 
ATOM      9  C   UNL     1       2.668   4.309  19.164  0.00  0.00    +0.000 A 
ATOM     10  C   UNL     1       3.315   3.692  18.106  0.00  0.00    +0.000 A 
ATOM     11  C   UNL     1       4.454   4.454  17.699  0.00  0.00    +0.000 A 
ATOM     12  C   UNL     1       2.805   2.426  17.487  0.00  0.00    +0.000 C 
ATOM     13  C   UNL     1       1.733   1.750  18.356  0.00  0.00    +0.000 C 
ATOM     14  C   UNL     1       0.729   2.766  18.922  0.00  0.00    +0.000 C 
ATOM     15  C   UNL     1       1.423   3.802  19.823  0.00  0.00    +0.000 C 
ATOM     16  H   UNL     1       7.019   5.066  15.767  0.00  0.00    +0.000 HD
ATOM     17  H   UNL     1       7.974   7.086  16.212  0.00  0.00    +0.000 HD
ENDROOT
BRANCH   5  18
ATOM     18  C   UNL     1       8.215   7.877  18.149  0.00  0.00    +0.000 C 
BRANCH  18  19
ATOM     19  C   UNL     1       8.181   9.345  17.760  0.00  0.00    +0.000 C 
BRANCH  19  20
ATOM     20  C   UNL     1       8.988  10.226  18.704  0.00  0.00    +0.000 C 
BRANCH  20  21
ATOM     21  O   UNL     1       9.742  11.159  17.938  0.00  0.00    +0.000 OA
ATOM     22  H   UNL     1      10.663  11.113  18.248  0.00  0.00    +0.000 HD
ENDBRANCH  20  21
ENDBRANCH  19  20
ENDBRANCH  18  19
ENDBRANCH   5  18
TORSDOF 4
ENDMDL
MODEL 8
REMARK VINA RESULT:      -6.3      1.888      2.575
REMARK  Name = 
REMARK  4 active torsions:
REMARK  status: ('A' for Active; 'I' for Inactive)
REMARK    1  A    between atoms: N_5  and  C_6
REMARK    2  A    between atoms: C_6  and  C_7
REMARK    3  A    between atoms: C_7  and  C_8
REMARK    4  A    between atoms: C_8  and  O_9
REMARK                            x       y       z     vdW  Elec       q    Type
REMARK                         _______ _______ _______ _____ _____    ______ ____
ROOT
ATOM      1  O   UNL     1       3.997   2.190  18.291  0.00  0.00    +0.000 OA
ATOM      2  C   UNL     1       4.282   3.156  17.587  0.00  0.00    +0.000 A 
ATOM      3  N   UNL     1       4.992   3.017  16.417  0.00  0.00    +0.000 N 
ATOM      4  C   UNL     1       5.458   4.069  15.666  0.00  0.00    +0.000 A 
ATOM      5  N   UNL     1       6.242   3.712  14.609  0.00  0.00    +0.000 N 
ATOM      6  N   UNL     1       5.181   5.311  15.948  0.00  0.00    +0.000 NA
ATOM      7  C   UNL     1       4.387   5.497  17.036  0.00  0.00    +0.000 A 
ATOM      8  S   UNL     1       3.832   7.049  17.489  0.00  0.00    +0.000 S 
ATOM      9  C   UNL     1       3.007   6.425  18.842  0.00  0.00    +0.000 A 
ATOM     10  C   UNL     1       3.163   5.056  18.980  0.00  0.00    +0.000 A 
ATOM     11  C   UNL     1       3.928   4.524  17.895  0.00  0.00    +0.000 A 
ATOM     12  C   UNL     1       2.543   4.291  20.110  0.00  0.00    +0.000 C 
ATOM     13  C   UNL     1       2.038   5.220  21.226  0.00  0.00    +0.000 C 
ATOM     14  C   UNL     1       1.309   6.448  20.663  0.00  0.00    +0.000 C 
ATOM     15  C   UNL     1       2.239   7.301  19.782  0.00  0.00    +0.000 C 
ATOM     16  H   UNL     1       5.291   2.081  16.205  0.00  0.00    +0.000 HD
ATOM     17  H   UNL     1       6.162   2.782  14.221  0.00  0.00    +0.000 HD
ENDROOT
BRANCH   5  18
ATOM     18  C   UNL     1       7.174   4.610  13.956  0.00  0.00    +0.000 C 
BRANCH  18  19
ATOM     19  C   UNL     1       7.199   4.404  12.451  0.00  0.00    +0.000 C 
BRANCH  19  20
ATOM     20  C   UNL     1       6.147   3.415  11.971  0.00  0.00    +0.000 C 
BRANCH  20  21
ATOM     21  O   UNL     1       6.734   2.121  11.876  0.00  0.00    +0.000 OA
ATOM     22  H   UNL     1       7.655   2.196  12.180  0.00  0.00    +0.000 HD
ENDBRANCH  20  21
ENDBRANCH  19  20
ENDBRANCH  18  19
ENDBRANCH   5  18
TORSDOF 4
ENDMDL
MODEL 9
REMARK VINA RESULT:      -6.3      4.276      7.937
REMARK  Name = 
REMARK  4 active torsions:
REMARK  status: ('A' for Active; 'I' for Inactive)
REMARK    1  A    between atoms: N_5  and  C_6
REMARK    2  A    between atoms: C_6  and  C_7
REMARK    3  A    between atoms: C_7  and  C_8
REMARK    4  A    between atoms: C_8  and  O_9
REMARK                            x       y       z     vdW  Elec       q    Type
REMARK                         _______ _______ _______ _____ _____    ______ ____
ROOT
ATOM      1  O   UNL     1       2.249   4.384  20.745  0.00  0.00    +0.000 OA
ATOM      2  C   UNL     1       2.261   5.537  20.322  0.00  0.00    +0.000 A 
ATOM      3  N   UNL     1       1.618   6.559  20.982  0.00  0.00    +0.000 N 
ATOM      4  C   UNL     1       1.479   7.833  20.486  0.00  0.00    +0.000 A 
ATOM      5  N   UNL     1       0.702   8.658  21.243  0.00  0.00    +0.000 N 
ATOM      6  N   UNL     1       2.036   8.218  19.372  0.00  0.00    +0.000 NA
ATOM      7  C   UNL     1       2.778   7.272  18.735  0.00  0.00    +0.000 A 
ATOM      8  S   UNL     1       3.669   7.631  17.322  0.00  0.00    +0.000 S 
ATOM      9  C   UNL     1       4.221   6.025  17.191  0.00  0.00    +0.000 A 
ATOM     10  C   UNL     1       3.721   5.204  18.187  0.00  0.00    +0.000 A 
ATOM     11  C   UNL     1       2.922   5.954  19.105  0.00  0.00    +0.000 A 
ATOM     12  C   UNL     1       4.055   3.744  18.262  0.00  0.00    +0.000 C 
ATOM     13  C   UNL     1       4.700   3.233  16.964  0.00  0.00    +0.000 C 
ATOM     14  C   UNL     1       5.747   4.215  16.419  0.00  0.00    +0.000 C 
ATOM     15  C   UNL     1       5.119   5.578  16.079  0.00  0.00    +0.000 C 
ATOM     16  H   UNL     1       1.110   6.285  21.805  0.00  0.00    +0.000 HD
ATOM     17  H   UNL     1       0.574   8.459  22.226  0.00  0.00    +0.000 HD
ENDROOT
BRANCH   5  18
ATOM     18  C   UNL     1       0.069   9.859  20.737  0.00  0.00    +0.000 C 
BRANCH  18  19
ATOM     19  C   UNL     1      -0.350  10.795  21.858  0.00  0.00    +0.000 C 
BRANCH  19  20
ATOM     20  C   UNL     1      -0.737  10.057  23.132  0.00  0.00    +0.000 C 
BRANCH  20  21
ATOM     21  O   UNL     1       0.445   9.706  23.844  0.00  0.00    +0.000 OA
ATOM     22  H   UNL     1       0.172   9.214  24.637  0.00  0.00    +0.000 HD
ENDBRANCH  20  21
ENDBRANCH  19  20
ENDBRANCH  18  19
ENDBRANCH   5  18
TORSDOF 4
ENDMDL
