MODEL 1
REMARK VINA RESULT:      -7.7      0.000      0.000
REMARK  Name = 
REMARK  5 active torsions:
REMARK  status: ('A' for Active; 'I' for Inactive)
REMARK    1  A    between atoms: C_1  and  O_2
REMARK    2  A    between atoms: O_2  and  C_3
REMARK    3  A    between atoms: C_8  and  C_9
REMARK    4  A    between atoms: C_9  and  C_10
REMARK    5  A    between atoms: C_10  and  O_11
REMARK                            x       y       z     vdW  Elec       q    Type
REMARK                         _______ _______ _______ _____ _____    ______ ____
ROOT
ATOM      1  C   UNL     1       3.763   4.037  18.571  0.00  0.00    +0.000 C 
ATOM      2  C   UNL     1       3.557   5.541  18.380  0.00  0.00    +0.000 A 
ATOM      3  C   UNL     1       4.152   6.438  17.513  0.00  0.00    +0.000 A 
ATOM      4  C   UNL     1       3.592   7.728  17.422  0.00  0.00    +0.000 A 
ATOM      5  C   UNL     1       2.495   8.117  18.218  0.00  0.00    +0.000 A 
ATOM      6  C   UNL     1       1.925   7.237  19.132  0.00  0.00    +0.000 A 
ATOM      7  C   UNL     1       2.457   5.969  19.165  0.00  0.00    +0.000 A 
ATOM      8  C   UNL     1       1.946   4.750  19.739  0.00  0.00    +0.000 C 
ATOM      9  N   UNL     1       1.277   4.532  20.831  0.00  0.00    +0.000 NA
ATOM     10  C   UNL     1       1.458   3.039  20.960  0.00  0.00    +0.000 C 
ATOM     11  C   UNL     1       1.810   2.525  19.551  0.00  0.00    +0.000 C 
ATOM     12  N   UNL     1       2.404   3.695  18.983  0.00  0.00    +0.000 N 
ENDROOT
BRANCH   1  13
ATOM     13  O   UNL     1       4.621   3.859  19.697  0.00  0.00    +0.000 OA
ATOM     14  H   UNL     1       4.076   3.444  20.384  0.00  0.00    +0.000 HD
ENDBRANCH   1  13
BRANCH   1  15
ATOM     15  C   UNL     1       4.400   3.251  17.405  0.00  0.00    +0.000 C 
BRANCH  15  21
ATOM     16  C   UNL     1       6.616   4.402  16.834  0.00  0.00    +0.000 A 
ATOM     17  C   UNL     1       7.497   4.920  15.877  0.00  0.00    +0.000 A 
ATOM     18  C   UNL     1       7.130   4.984  14.540  0.00  0.00    +0.000 A 
ATOM     19  C   UNL     1       5.870   4.532  14.141  0.00  0.00    +0.000 A 
ATOM     20  C   UNL     1       4.990   3.998  15.077  0.00  0.00    +0.000 A 
ATOM     21  C   UNL     1       5.345   3.920  16.429  0.00  0.00    +0.000 A 
BRANCH  16  23
ATOM     22  C   UNL     1       7.583   5.436  18.744  0.00  0.00    +0.000 C 
ATOM     23  O   UNL     1       6.938   4.305  18.157  0.00  0.00    +0.000 OA
ENDBRANCH  16  23
ENDBRANCH  15  21
ENDBRANCH   1  15
TORSDOF 4
ENDMDL
MODEL 2
REMARK VINA RESULT:      -7.7      2.208      5.860
REMARK  Name = 
REMARK  5 active torsions:
REMARK  status: ('A' for Active; 'I' for Inactive)
REMARK    1  A    between atoms: C_1  and  O_2
REMARK    2  A    between atoms: O_2  and  C_3
REMARK    3  A    between atoms: C_8  and  C_9
REMARK    4  A    between atoms: C_9  and  C_10
REMARK    5  A    between atoms: C_10  and  O_11
REMARK                            x       y       z     vdW  Elec       q    Type
REMARK                         _______ _______ _______ _____ _____    ______ ____
ROOT
ATOM      1  C   UNL     1       5.033   4.369  16.184  0.00  0.00    +0.000 C 
ATOM      2  C   UNL     1       5.684   4.125  14.820  0.00  0.00    +0.000 A 
ATOM      3  C   UNL     1       5.265   3.382  13.732  0.00  0.00    +0.000 A 
ATOM      4  C   UNL     1       5.981   3.528  12.528  0.00  0.00    +0.000 A 
ATOM      5  C   UNL     1       7.117   4.359  12.436  0.00  0.00    +0.000 A 
ATOM      6  C   UNL     1       7.577   5.067  13.542  0.00  0.00    +0.000 A 
ATOM      7  C   UNL     1       6.830   4.949  14.691  0.00  0.00    +0.000 A 
ATOM      8  C   UNL     1       6.824   5.742  15.894  0.00  0.00    +0.000 C 
ATOM      9  N   UNL     1       7.788   6.323  16.542  0.00  0.00    +0.000 NA
ATOM     10  C   UNL     1       7.099   6.594  17.858  0.00  0.00    +0.000 C 
ATOM     11  C   UNL     1       5.587   6.572  17.563  0.00  0.00    +0.000 C 
ATOM     12  N   UNL     1       5.552   5.714  16.419  0.00  0.00    +0.000 N 
ENDROOT
BRANCH   1  13
ATOM     13  O   UNL     1       5.653   3.490  17.121  0.00  0.00    +0.000 OA
ATOM     14  H   UNL     1       5.233   3.672  17.975  0.00  0.00    +0.000 HD
ENDBRANCH   1  13
BRANCH   1  15
ATOM     15  C   UNL     1       3.512   4.135  16.300  0.00  0.00    +0.000 C 
BRANCH  15  21
ATOM     16  C   UNL     1       2.288   4.662  18.487  0.00  0.00    +0.000 A 
ATOM     17  C   UNL     1       1.624   4.217  19.638  0.00  0.00    +0.000 A 
ATOM     18  C   UNL     1       1.556   2.864  19.937  0.00  0.00    +0.000 A 
ATOM     19  C   UNL     1       2.158   1.932  19.087  0.00  0.00    +0.000 A 
ATOM     20  C   UNL     1       2.806   2.356  17.932  0.00  0.00    +0.000 A 
ATOM     21  C   UNL     1       2.879   3.717  17.611  0.00  0.00    +0.000 A 
BRANCH  16  23
ATOM     22  C   UNL     1       2.416   6.919  19.219  0.00  0.00    +0.000 C 
ATOM     23  O   UNL     1       2.367   5.980  18.145  0.00  0.00    +0.000 OA
ENDBRANCH  16  23
ENDBRANCH  15  21
ENDBRANCH   1  15
TORSDOF 4
ENDMDL
MODEL 3
REMARK VINA RESULT:      -7.5      2.171      5.778
REMARK  Name = 
REMARK  5 active torsions:
REMARK  status: ('A' for Active; 'I' for Inactive)
REMARK    1  A    between atoms: C_1  and  O_2
REMARK    2  A    between atoms: O_2  and  C_3
REMARK    3  A    between atoms: C_8  and  C_9
REMARK    4  A    between atoms: C_9  and  C_10
REMARK    5  A    between atoms: C_10  and  O_11
REMARK                            x       y       z     vdW  Elec       q    Type
REMARK                         _______ _______ _______ _____ _____    ______ ____
ROOT
ATOM      1  C   UNL     1       5.240   4.454  16.444  0.00  0.00    +0.000 C 
ATOM      2  C   UNL     1       5.775   4.163  15.040  0.00  0.00    +0.000 A 
ATOM      3  C   UNL     1       5.308   3.327  14.044  0.00  0.00    +0.000 A 
ATOM      4  C   UNL     1       5.896   3.440  12.768  0.00  0.00    +0.000 A 
ATOM      5  C   UNL     1       6.958   4.333  12.518  0.00  0.00    +0.000 A 
ATOM      6  C   UNL     1       7.470   5.139  13.529  0.00  0.00    +0.000 A 
ATOM      7  C   UNL     1       6.844   5.048  14.751  0.00  0.00    +0.000 A 
ATOM      8  C   UNL     1       6.896   5.915  15.901  0.00  0.00    +0.000 C 
ATOM      9  N   UNL     1       7.876   6.596  16.417  0.00  0.00    +0.000 NA
ATOM     10  C   UNL     1       7.296   6.908  17.775  0.00  0.00    +0.000 C 
ATOM     11  C   UNL     1       5.768   6.772  17.632  0.00  0.00    +0.000 C 
ATOM     12  N   UNL     1       5.685   5.841  16.549  0.00  0.00    +0.000 N 
ENDROOT
BRANCH   1  13
ATOM     13  O   UNL     1       6.004   3.678  17.366  0.00  0.00    +0.000 OA
ATOM     14  H   UNL     1       6.712   4.259  17.682  0.00  0.00    +0.000 HD
ENDBRANCH   1  13
BRANCH   1  15
ATOM     15  C   UNL     1       3.756   4.132  16.723  0.00  0.00    +0.000 C 
BRANCH  15  21
ATOM     16  C   UNL     1       3.159   3.674  19.171  0.00  0.00    +0.000 A 
ATOM     17  C   UNL     1       2.627   4.117  20.389  0.00  0.00    +0.000 A 
ATOM     18  C   UNL     1       2.028   5.365  20.486  0.00  0.00    +0.000 A 
ATOM     19  C   UNL     1       1.948   6.188  19.360  0.00  0.00    +0.000 A 
ATOM     20  C   UNL     1       2.486   5.770  18.147  0.00  0.00    +0.000 A 
ATOM     21  C   UNL     1       3.101   4.517  18.032  0.00  0.00    +0.000 A 
BRANCH  16  23
ATOM     22  C   UNL     1       4.535   1.998  20.146  0.00  0.00    +0.000 C 
ATOM     23  O   UNL     1       3.771   2.462  19.032  0.00  0.00    +0.000 OA
ENDBRANCH  16  23
ENDBRANCH  15  21
ENDBRANCH   1  15
TORSDOF 4
ENDMDL
MODEL 4
REMARK VINA RESULT:      -7.5      2.128      5.307
REMARK  Name = 
REMARK  5 active torsions:
REMARK  status: ('A' for Active; 'I' for Inactive)
REMARK    1  A    between atoms: C_1  and  O_2
REMARK    2  A    between atoms: O_2  and  C_3
REMARK    3  A    between atoms: C_8  and  C_9
REMARK    4  A    between atoms: C_9  and  C_10
REMARK    5  A    between atoms: C_10  and  O_11
REMARK                            x       y       z     vdW  Elec       q    Type
REMARK                         _______ _______ _______ _____ _____    ______ ____
ROOT
ATOM      1  C   UNL     1       2.953   5.372  18.524  0.00  0.00    +0.000 C 
ATOM      2  C   UNL     1       3.987   5.388  17.396  0.00  0.00    +0.000 A 
ATOM      3  C   UNL     1       4.694   6.429  16.825  0.00  0.00    +0.000 A 
ATOM      4  C   UNL     1       5.746   6.100  15.947  0.00  0.00    +0.000 A 
ATOM      5  C   UNL     1       6.043   4.762  15.615  0.00  0.00    +0.000 A 
ATOM      6  C   UNL     1       5.300   3.711  16.143  0.00  0.00    +0.000 A 
ATOM      7  C   UNL     1       4.314   4.056  17.038  0.00  0.00    +0.000 A 
ATOM      8  C   UNL     1       3.578   3.253  17.981  0.00  0.00    +0.000 C 
ATOM      9  N   UNL     1       3.127   2.037  17.903  0.00  0.00    +0.000 NA
ATOM     10  C   UNL     1       2.152   2.041  19.056  0.00  0.00    +0.000 C 
ATOM     11  C   UNL     1       2.594   3.184  19.989  0.00  0.00    +0.000 C 
ATOM     12  N   UNL     1       3.254   4.046  19.058  0.00  0.00    +0.000 N 
ENDROOT
BRANCH   1  13
ATOM     13  O   UNL     1       1.660   5.318  17.922  0.00  0.00    +0.000 OA
ATOM     14  H   UNL     1       1.059   4.991  18.608  0.00  0.00    +0.000 HD
ENDBRANCH   1  13
BRANCH   1  15
ATOM     15  C   UNL     1       2.937   6.572  19.494  0.00  0.00    +0.000 C 
BRANCH  15  21
ATOM     16  C   UNL     1       1.427   8.538  20.137  0.00  0.00    +0.000 A 
ATOM     17  C   UNL     1       0.832   9.763  19.808  0.00  0.00    +0.000 A 
ATOM     18  C   UNL     1       0.962  10.292  18.532  0.00  0.00    +0.000 A 
ATOM     19  C   UNL     1       1.689   9.598  17.561  0.00  0.00    +0.000 A 
ATOM     20  C   UNL     1       2.299   8.389  17.876  0.00  0.00    +0.000 A 
ATOM     21  C   UNL     1       2.184   7.843  19.160  0.00  0.00    +0.000 A 
BRANCH  16  23
ATOM     22  C   UNL     1       1.076   8.883  22.462  0.00  0.00    +0.000 C 
ATOM     23  O   UNL     1       1.339   7.987  21.382  0.00  0.00    +0.000 OA
ENDBRANCH  16  23
ENDBRANCH  15  21
ENDBRANCH   1  15
TORSDOF 4
ENDMDL
MODEL 5
REMARK VINA RESULT:      -7.4      1.470      3.169
REMARK  Name = 
REMARK  5 active torsions:
REMARK  status: ('A' for Active; 'I' for Inactive)
REMARK    1  A    between atoms: C_1  and  O_2
REMARK    2  A    between atoms: O_2  and  C_3
REMARK    3  A    between atoms: C_8  and  C_9
REMARK    4  A    between atoms: C_9  and  C_10
REMARK    5  A    between atoms: C_10  and  O_11
REMARK                            x       y       z     vdW  Elec       q    Type
REMARK                         _______ _______ _______ _____ _____    ______ ____
ROOT
ATOM      1  C   UNL     1       2.818   4.365  17.819  0.00  0.00    +0.000 C 
ATOM      2  C   UNL     1       2.496   3.790  19.200  0.00  0.00    +0.000 A 
ATOM      3  C   UNL     1       2.550   2.496  19.682  0.00  0.00    +0.000 A 
ATOM      4  C   UNL     1       2.403   2.310  21.071  0.00  0.00    +0.000 A 
ATOM      5  C   UNL     1       2.158   3.391  21.942  0.00  0.00    +0.000 A 
ATOM      6  C   UNL     1       2.047   4.691  21.457  0.00  0.00    +0.000 A 
ATOM      7  C   UNL     1       2.247   4.852  20.106  0.00  0.00    +0.000 A 
ATOM      8  C   UNL     1       2.505   6.038  19.328  0.00  0.00    +0.000 C 
ATOM      9  N   UNL     1       2.051   7.250  19.439  0.00  0.00    +0.000 NA
ATOM     10  C   UNL     1       2.429   7.800  18.084  0.00  0.00    +0.000 C 
ATOM     11  C   UNL     1       3.565   6.902  17.558  0.00  0.00    +0.000 C 
ATOM     12  N   UNL     1       3.280   5.682  18.248  0.00  0.00    +0.000 N 
ENDROOT
BRANCH   1  13
ATOM     13  O   UNL     1       1.582   4.539  17.126  0.00  0.00    +0.000 OA
ATOM     14  H   UNL     1       0.903   4.134  17.686  0.00  0.00    +0.000 HD
ENDBRANCH   1  13
BRANCH   1  15
ATOM     15  C   UNL     1       3.727   3.529  16.893  0.00  0.00    +0.000 C 
BRANCH  15  21
ATOM     16  C   UNL     1       6.145   4.341  17.135  0.00  0.00    +0.000 A 
ATOM     17  C   UNL     1       7.339   4.775  16.546  0.00  0.00    +0.000 A 
ATOM     18  C   UNL     1       7.413   4.991  15.177  0.00  0.00    +0.000 A 
ATOM     19  C   UNL     1       6.287   4.781  14.376  0.00  0.00    +0.000 A 
ATOM     20  C   UNL     1       5.099   4.333  14.944  0.00  0.00    +0.000 A 
ATOM     21  C   UNL     1       5.007   4.103  16.322  0.00  0.00    +0.000 A 
BRANCH  16  23
ATOM     22  C   UNL     1       6.418   5.156  19.351  0.00  0.00    +0.000 C 
ATOM     23  O   UNL     1       6.029   4.099  18.474  0.00  0.00    +0.000 OA
ENDBRANCH  16  23
ENDBRANCH  15  21
ENDBRANCH   1  15
TORSDOF 4
ENDMDL
MODEL 6
REMARK VINA RESULT:      -7.4      1.965      5.650
REMARK  Name = 
REMARK  5 active torsions:
REMARK  status: ('A' for Active; 'I' for Inactive)
REMARK    1  A    between atoms: C_1  and  O_2
REMARK    2  A    between atoms: O_2  and  C_3
REMARK    3  A    between atoms: C_8  and  C_9
REMARK    4  A    between atoms: C_9  and  C_10
REMARK    5  A    between atoms: C_10  and  O_11
REMARK                            x       y       z     vdW  Elec       q    Type
REMARK                         _______ _______ _______ _____ _____    ______ ____
ROOT
ATOM      1  C   UNL     1       4.759   4.192  17.005  0.00  0.00    +0.000 C 
ATOM      2  C   UNL     1       5.421   4.128  15.626  0.00  0.00    +0.000 A 
ATOM      3  C   UNL     1       4.924   3.744  14.395  0.00  0.00    +0.000 A 
ATOM      4  C   UNL     1       5.718   4.004  13.261  0.00  0.00    +0.000 A 
ATOM      5  C   UNL     1       6.998   4.587  13.369  0.00  0.00    +0.000 A 
ATOM      6  C   UNL     1       7.528   4.926  14.610  0.00  0.00    +0.000 A 
ATOM      7  C   UNL     1       6.712   4.711  15.697  0.00  0.00    +0.000 A 
ATOM      8  C   UNL     1       6.796   5.203  17.048  0.00  0.00    +0.000 C 
ATOM      9  N   UNL     1       7.820   5.418  17.819  0.00  0.00    +0.000 NA
ATOM     10  C   UNL     1       7.127   5.527  19.156  0.00  0.00    +0.000 C 
ATOM     11  C   UNL     1       5.658   5.877  18.853  0.00  0.00    +0.000 C 
ATOM     12  N   UNL     1       5.517   5.318  17.544  0.00  0.00    +0.000 N 
ENDROOT
BRANCH   1  13
ATOM     13  O   UNL     1       5.144   3.021  17.723  0.00  0.00    +0.000 OA
ATOM     14  H   UNL     1       5.299   2.337  17.054  0.00  0.00    +0.000 HD
ENDBRANCH   1  13
BRANCH   1  15
ATOM     15  C   UNL     1       3.217   4.251  17.053  0.00  0.00    +0.000 C 
BRANCH  15  21
ATOM     16  C   UNL     1       2.047   4.921  19.231  0.00  0.00    +0.000 A 
ATOM     17  C   UNL     1       1.258   4.574  20.335  0.00  0.00    +0.000 A 
ATOM     18  C   UNL     1       0.889   3.255  20.553  0.00  0.00    +0.000 A 
ATOM     19  C   UNL     1       1.310   2.258  19.669  0.00  0.00    +0.000 A 
ATOM     20  C   UNL     1       2.080   2.588  18.559  0.00  0.00    +0.000 A 
ATOM     21  C   UNL     1       2.457   3.915  18.319  0.00  0.00    +0.000 A 
BRANCH  16  23
ATOM     22  C   UNL     1       2.127   7.179  19.971  0.00  0.00    +0.000 C 
ATOM     23  O   UNL     1       2.422   6.206  18.967  0.00  0.00    +0.000 OA
ENDBRANCH  16  23
ENDBRANCH  15  21
ENDBRANCH   1  15
TORSDOF 4
ENDMDL
MODEL 7
REMARK VINA RESULT:      -7.3      1.831      5.509
REMARK  Name = 
REMARK  5 active torsions:
REMARK  status: ('A' for Active; 'I' for Inactive)
REMARK    1  A    between atoms: C_1  and  O_2
REMARK    2  A    between atoms: O_2  and  C_3
REMARK    3  A    between atoms: C_8  and  C_9
REMARK    4  A    between atoms: C_9  and  C_10
REMARK    5  A    between atoms: C_10  and  O_11
REMARK                            x       y       z     vdW  Elec       q    Type
REMARK                         _______ _______ _______ _____ _____    ______ ____
ROOT
ATOM      1  C   UNL     1       4.668   4.225  17.378  0.00  0.00    +0.000 C 
ATOM      2  C   UNL     1       5.285   4.157  15.979  0.00  0.00    +0.000 A 
ATOM      3  C   UNL     1       4.712   3.932  14.741  0.00  0.00    +0.000 A 
ATOM      4  C   UNL     1       5.512   4.149  13.602  0.00  0.00    +0.000 A 
ATOM      5  C   UNL     1       6.865   4.531  13.709  0.00  0.00    +0.000 A 
ATOM      6  C   UNL     1       7.465   4.706  14.952  0.00  0.00    +0.000 A 
ATOM      7  C   UNL     1       6.648   4.541  16.047  0.00  0.00    +0.000 A 
ATOM      8  C   UNL     1       6.832   4.925  17.423  0.00  0.00    +0.000 C 
ATOM      9  N   UNL     1       7.891   4.938  18.175  0.00  0.00    +0.000 NA
ATOM     10  C   UNL     1       7.250   5.057  19.537  0.00  0.00    +0.000 C 
ATOM     11  C   UNL     1       5.842   5.636  19.300  0.00  0.00    +0.000 C 
ATOM     12  N   UNL     1       5.594   5.191  17.963  0.00  0.00    +0.000 N 
ENDROOT
BRANCH   1  13
ATOM     13  O   UNL     1       4.891   2.965  18.009  0.00  0.00    +0.000 OA
ATOM     14  H   UNL     1       4.577   2.294  17.384  0.00  0.00    +0.000 HD
ENDBRANCH   1  13
BRANCH   1  15
ATOM     15  C   UNL     1       3.153   4.504  17.475  0.00  0.00    +0.000 C 
BRANCH  15  21
ATOM     16  C   UNL     1       2.206   5.169  19.760  0.00  0.00    +0.000 A 
ATOM     17  C   UNL     1       1.800   6.166  20.657  0.00  0.00    +0.000 A 
ATOM     18  C   UNL     1       1.765   7.497  20.265  0.00  0.00    +0.000 A 
ATOM     19  C   UNL     1       2.133   7.850  18.964  0.00  0.00    +0.000 A 
ATOM     20  C   UNL     1       2.554   6.874  18.067  0.00  0.00    +0.000 A 
ATOM     21  C   UNL     1       2.602   5.527  18.447  0.00  0.00    +0.000 A 
BRANCH  16  23
ATOM     22  C   UNL     1       1.980   3.529  21.466  0.00  0.00    +0.000 C 
ATOM     23  O   UNL     1       2.271   3.850  20.105  0.00  0.00    +0.000 OA
ENDBRANCH  16  23
ENDBRANCH  15  21
ENDBRANCH   1  15
TORSDOF 4
ENDMDL
MODEL 8
REMARK VINA RESULT:      -7.2      2.512      4.400
REMARK  Name = 
REMARK  5 active torsions:
REMARK  status: ('A' for Active; 'I' for Inactive)
REMARK    1  A    between atoms: C_1  and  O_2
REMARK    2  A    between atoms: O_2  and  C_3
REMARK    3  A    between atoms: C_8  and  C_9
REMARK    4  A    between atoms: C_9  and  C_10
REMARK    5  A    between atoms: C_10  and  O_11
REMARK                            x       y       z     vdW  Elec       q    Type
REMARK                         _______ _______ _______ _____ _____    ______ ____
ROOT
ATOM      1  C   UNL     1       5.205   4.423  16.570  0.00  0.00    +0.000 C 
ATOM      2  C   UNL     1       3.974   4.099  17.420  0.00  0.00    +0.000 A 
ATOM      3  C   UNL     1       2.766   3.516  17.087  0.00  0.00    +0.000 A 
ATOM      4  C   UNL     1       1.907   3.146  18.141  0.00  0.00    +0.000 A 
ATOM      5  C   UNL     1       2.234   3.402  19.489  0.00  0.00    +0.000 A 
ATOM      6  C   UNL     1       3.424   4.038  19.829  0.00  0.00    +0.000 A 
ATOM      7  C   UNL     1       4.269   4.342  18.786  0.00  0.00    +0.000 A 
ATOM      8  C   UNL     1       5.662   4.707  18.780  0.00  0.00    +0.000 C 
ATOM      9  N   UNL     1       6.360   5.435  19.600  0.00  0.00    +0.000 NA
ATOM     10  C   UNL     1       7.583   5.691  18.751  0.00  0.00    +0.000 C 
ATOM     11  C   UNL     1       7.611   4.576  17.689  0.00  0.00    +0.000 C 
ATOM     12  N   UNL     1       6.220   4.253  17.607  0.00  0.00    +0.000 N 
ENDROOT
BRANCH   1  13
ATOM     13  O   UNL     1       5.146   5.809  16.237  0.00  0.00    +0.000 OA
ATOM     14  H   UNL     1       4.298   5.939  15.787  0.00  0.00    +0.000 HD
ENDBRANCH   1  13
BRANCH   1  15
ATOM     15  C   UNL     1       5.374   3.658  15.240  0.00  0.00    +0.000 C 
BRANCH  15  21
ATOM     16  C   UNL     1       6.161   3.759  12.805  0.00  0.00    +0.000 A 
ATOM     17  C   UNL     1       6.982   4.329  11.823  0.00  0.00    +0.000 A 
ATOM     18  C   UNL     1       7.946   5.266  12.164  0.00  0.00    +0.000 A 
ATOM     19  C   UNL     1       8.108   5.645  13.499  0.00  0.00    +0.000 A 
ATOM     20  C   UNL     1       7.290   5.102  14.484  0.00  0.00    +0.000 A 
ATOM     21  C   UNL     1       6.307   4.160  14.158  0.00  0.00    +0.000 A 
BRANCH  16  23
ATOM     22  C   UNL     1       4.318   3.161  11.428  0.00  0.00    +0.000 C 
ATOM     23  O   UNL     1       5.190   2.846  12.515  0.00  0.00    +0.000 OA
ENDBRANCH  16  23
ENDBRANCH  15  21
ENDBRANCH   1  15
TORSDOF 4
ENDMDL
MODEL 9
REMARK VINA RESULT:      -7.0      1.787      3.742
REMARK  Name = 
REMARK  5 active torsions:
REMARK  status: ('A' for Active; 'I' for Inactive)
REMARK    1  A    between atoms: C_1  and  O_2
REMARK    2  A    between atoms: O_2  and  C_3
REMARK    3  A    between atoms: C_8  and  C_9
REMARK    4  A    between atoms: C_9  and  C_10
REMARK    5  A    between atoms: C_10  and  O_11
REMARK                            x       y       z     vdW  Elec       q    Type
REMARK                         _______ _______ _______ _____ _____    ______ ____
ROOT
ATOM      1  C   UNL     1       2.629   4.693  17.870  0.00  0.00    +0.000 C 
ATOM      2  C   UNL     1       2.391   3.930  19.176  0.00  0.00    +0.000 A 
ATOM      3  C   UNL     1       2.505   2.587  19.479  0.00  0.00    +0.000 A 
ATOM      4  C   UNL     1       2.432   2.216  20.837  0.00  0.00    +0.000 A 
ATOM      5  C   UNL     1       2.199   3.165  21.853  0.00  0.00    +0.000 A 
ATOM      6  C   UNL     1       2.028   4.512  21.551  0.00  0.00    +0.000 A 
ATOM      7  C   UNL     1       2.157   4.856  20.225  0.00  0.00    +0.000 A 
ATOM      8  C   UNL     1       2.343   6.141  19.601  0.00  0.00    +0.000 C 
ATOM      9  N   UNL     1       1.861   7.312  19.891  0.00  0.00    +0.000 NA
ATOM     10  C   UNL     1       2.157   8.048  18.606  0.00  0.00    +0.000 C 
ATOM     11  C   UNL     1       3.290   7.266  17.915  0.00  0.00    +0.000 C 
ATOM     12  N   UNL     1       3.075   5.957  18.449  0.00  0.00    +0.000 N 
ENDROOT
BRANCH   1  13
ATOM     13  O   UNL     1       1.357   4.913  17.262  0.00  0.00    +0.000 OA
ATOM     14  H   UNL     1       0.851   4.097  17.398  0.00  0.00    +0.000 HD
ENDBRANCH   1  13
BRANCH   1  15
ATOM     15  C   UNL     1       3.515   4.017  16.802  0.00  0.00    +0.000 C 
BRANCH  15  21
ATOM     16  C   UNL     1       5.747   4.339  15.587  0.00  0.00    +0.000 A 
ATOM     17  C   UNL     1       7.120   4.612  15.633  0.00  0.00    +0.000 A 
ATOM     18  C   UNL     1       7.776   4.733  16.850  0.00  0.00    +0.000 A 
ATOM     19  C   UNL     1       7.065   4.577  18.043  0.00  0.00    +0.000 A 
ATOM     20  C   UNL     1       5.698   4.322  18.014  0.00  0.00    +0.000 A 
ATOM     21  C   UNL     1       5.018   4.204  16.796  0.00  0.00    +0.000 A 
BRANCH  16  23
ATOM     22  C   UNL     1       5.781   3.729  13.290  0.00  0.00    +0.000 C 
ATOM     23  O   UNL     1       5.057   4.228  14.415  0.00  0.00    +0.000 OA
ENDBRANCH  16  23
ENDBRANCH  15  21
ENDBRANCH   1  15
TORSDOF 4
ENDMDL
