MODEL 1
REMARK VINA RESULT:      -7.9      0.000      0.000
REMARK  Name = 
REMARK  13 active torsions:
REMARK  status: ('A' for Active; 'I' for Inactive)
REMARK    1  A    between atoms: C_1  and  C_2
REMARK    2  A    between atoms: C_2  and  C_3
REMARK    3  A    between atoms: C_5  and  O_6
REMARK    4  A    between atoms: O_6  and  C_7
REMARK    5  A    between atoms: C_7  and  C_8
REMARK    6  A    between atoms: C_8  and  C_9
REMARK    7  A    between atoms: C_11  and  C_12
REMARK    8  A    between atoms: C_15  and  C_16
REMARK    9  A    between atoms: C_22  and  C_23
REMARK   10  A    between atoms: C_26  and  C_27
REMARK   11  A    between atoms: C_27  and  C_28
REMARK   12  A    between atoms: C_28  and  C_29
REMARK   13  A    between atoms: C_29  and  O_31
REMARK                            x       y       z     vdW  Elec       q    Type
REMARK                         _______ _______ _______ _____ _____    ______ ____
ROOT
ATOM      1  C   UNL     1       2.098  10.094  17.926  0.00  0.00    +0.000 C 
ENDROOT
BRANCH   1   2
ATOM      2  C   UNL     1       1.334  11.089  18.729  0.00  0.00    +0.000 A 
ATOM      3  N   UNL     1       0.220  10.721  19.460  0.00  0.00    +0.000 NA
ATOM      4  C   UNL     1      -0.175  11.841  20.041  0.00  0.00    +0.000 A 
ATOM      5  O   UNL     1       0.608  12.924  19.740  0.00  0.00    +0.000 OA
ATOM      6  C   UNL     1       1.568  12.435  18.904  0.00  0.00    +0.000 A 
ATOM      7  C   UNL     1       2.576  13.389  18.412  0.00  0.00    +0.000 C 
BRANCH   4   8
ATOM      8  C   UNL     1      -1.299  12.086  20.944  0.00  0.00    +0.000 A 
ATOM      9  C   UNL     1      -2.506  12.605  20.450  0.00  0.00    +0.000 A 
ATOM     10  C   UNL     1      -3.593  12.854  21.303  0.00  0.00    +0.000 A 
ATOM     11  C   UNL     1      -3.491  12.587  22.675  0.00  0.00    +0.000 A 
ATOM     12  C   UNL     1      -2.289  12.068  23.172  0.00  0.00    +0.000 A 
ATOM     13  C   UNL     1      -1.209  11.821  22.318  0.00  0.00    +0.000 A 
BRANCH  11  14
ATOM     14  C   UNL     1      -4.594  12.826  23.653  0.00  0.00    +0.000 C 
ATOM     15  N   UNL     1      -4.405  12.467  24.958  0.00  0.00    +0.000 N 
ATOM     16  O   UNL     1      -5.655  13.335  23.312  0.00  0.00    +0.000 OA
ATOM     17  H   UNL     1      -3.575  12.048  25.336  0.00  0.00    +0.000 HD
ATOM     18  H   UNL     1      -5.176  12.643  25.590  0.00  0.00    +0.000 HD
ENDBRANCH  11  14
ENDBRANCH   4   8
ENDBRANCH   1   2
BRANCH   1  19
ATOM     19  C   UNL     1       1.432   8.723  17.941  0.00  0.00    +0.000 C 
BRANCH  19  20
ATOM     20  O   UNL     1       2.064   7.882  18.918  0.00  0.00    +0.000 OA
BRANCH  20  23
ATOM     21  C   UNL     1       2.900   4.505  17.754  0.00  0.00    +0.000 A 
ATOM     22  C   UNL     1       2.199   5.588  18.324  0.00  0.00    +0.000 A 
ATOM     23  C   UNL     1       2.768   6.851  18.320  0.00  0.00    +0.000 A 
ATOM     24  N   UNL     1       3.963   7.114  17.762  0.00  0.00    +0.000 NA
ATOM     25  C   UNL     1       4.610   6.079  17.197  0.00  0.00    +0.000 A 
ATOM     26  C   UNL     1       4.154   4.756  17.170  0.00  0.00    +0.000 A 
BRANCH  21  28
ATOM     27  C   UNL     1       1.054   3.097  18.757  0.00  0.00    +0.000 C 
ATOM     28  C   UNL     1       2.241   3.145  17.803  0.00  0.00    +0.000 C 
ENDBRANCH  21  28
BRANCH  26  29
ATOM     29  C   UNL     1       5.039   3.726  16.504  0.00  0.00    +0.000 C 
BRANCH  29  30
ATOM     30  C   UNL     1       5.828   4.321  15.330  0.00  0.00    +0.000 C 
BRANCH  30  31
ATOM     31  C   UNL     1       7.174   4.851  15.753  0.00  0.00    +0.000 C 
ATOM     32  O   UNL     1       7.690   5.877  15.345  0.00  0.00    +0.000 OA
BRANCH  31  33
ATOM     33  O   UNL     1       7.767   4.058  16.679  0.00  0.00    +0.000 OA
ATOM     34  H   UNL     1       8.737   3.989  16.585  0.00  0.00    +0.000 HD
ENDBRANCH  31  33
ENDBRANCH  30  31
ENDBRANCH  29  30
ENDBRANCH  26  29
ENDBRANCH  20  23
ENDBRANCH  19  20
ENDBRANCH   1  19
TORSDOF 11
ENDMDL
MODEL 2
REMARK VINA RESULT:      -7.8      2.285     11.407
REMARK  Name = 
REMARK  13 active torsions:
REMARK  status: ('A' for Active; 'I' for Inactive)
REMARK    1  A    between atoms: C_1  and  C_2
REMARK    2  A    between atoms: C_2  and  C_3
REMARK    3  A    between atoms: C_5  and  O_6
REMARK    4  A    between atoms: O_6  and  C_7
REMARK    5  A    between atoms: C_7  and  C_8
REMARK    6  A    between atoms: C_8  and  C_9
REMARK    7  A    between atoms: C_11  and  C_12
REMARK    8  A    between atoms: C_15  and  C_16
REMARK    9  A    between atoms: C_22  and  C_23
REMARK   10  A    between atoms: C_26  and  C_27
REMARK   11  A    between atoms: C_27  and  C_28
REMARK   12  A    between atoms: C_28  and  C_29
REMARK   13  A    between atoms: C_29  and  O_31
REMARK                            x       y       z     vdW  Elec       q    Type
REMARK                         _______ _______ _______ _____ _____    ______ ____
ROOT
ATOM      1  C   UNL     1       1.453   6.706  21.202  0.00  0.00    +0.000 C 
ENDROOT
BRANCH   1   2
ATOM      2  C   UNL     1       2.047   5.814  20.168  0.00  0.00    +0.000 A 
ATOM      3  N   UNL     1       2.941   6.294  19.229  0.00  0.00    +0.000 NA
ATOM      4  C   UNL     1       3.257   5.235  18.506  0.00  0.00    +0.000 A 
ATOM      5  O   UNL     1       2.630   4.085  18.908  0.00  0.00    +0.000 OA
ATOM      6  C   UNL     1       1.860   4.464  19.969  0.00  0.00    +0.000 A 
ATOM      7  C   UNL     1       1.061   3.415  20.624  0.00  0.00    +0.000 C 
BRANCH   4   8
ATOM      8  C   UNL     1       4.166   5.111  17.366  0.00  0.00    +0.000 A 
ATOM      9  C   UNL     1       4.657   6.258  16.723  0.00  0.00    +0.000 A 
ATOM     10  C   UNL     1       5.524   6.159  15.623  0.00  0.00    +0.000 A 
ATOM     11  C   UNL     1       5.916   4.903  15.144  0.00  0.00    +0.000 A 
ATOM     12  C   UNL     1       5.430   3.756  15.783  0.00  0.00    +0.000 A 
ATOM     13  C   UNL     1       4.567   3.859  16.879  0.00  0.00    +0.000 A 
BRANCH  11  14
ATOM     14  C   UNL     1       6.830   4.707  13.979  0.00  0.00    +0.000 C 
ATOM     15  N   UNL     1       7.916   5.526  13.848  0.00  0.00    +0.000 N 
ATOM     16  O   UNL     1       6.628   3.831  13.145  0.00  0.00    +0.000 OA
ATOM     17  H   UNL     1       8.168   6.268  14.476  0.00  0.00    +0.000 HD
ATOM     18  H   UNL     1       8.510   5.363  13.045  0.00  0.00    +0.000 HD
ENDBRANCH  11  14
ENDBRANCH   4   8
ENDBRANCH   1   2
BRANCH   1  19
ATOM     19  C   UNL     1       1.317   8.140  20.702  0.00  0.00    +0.000 C 
BRANCH  19  20
ATOM     20  O   UNL     1       1.452   9.057  21.799  0.00  0.00    +0.000 OA
BRANCH  20  23
ATOM     21  C   UNL     1      -0.861  11.551  20.426  0.00  0.00    +0.000 A 
ATOM     22  C   UNL     1       0.097  10.520  20.511  0.00  0.00    +0.000 A 
ATOM     23  C   UNL     1       0.485  10.046  21.754  0.00  0.00    +0.000 A 
ATOM     24  N   UNL     1      -0.036  10.501  22.907  0.00  0.00    +0.000 NA
ATOM     25  C   UNL     1      -0.969  11.466  22.812  0.00  0.00    +0.000 A 
ATOM     26  C   UNL     1      -1.416  12.047  21.619  0.00  0.00    +0.000 A 
BRANCH  21  28
ATOM     27  C   UNL     1      -0.399  13.235  18.597  0.00  0.00    +0.000 C 
ATOM     28  C   UNL     1      -1.234  12.043  19.046  0.00  0.00    +0.000 C 
ENDBRANCH  21  28
BRANCH  26  29
ATOM     29  C   UNL     1      -2.459  13.137  21.721  0.00  0.00    +0.000 C 
BRANCH  29  30
ATOM     30  C   UNL     1      -3.885  12.576  21.638  0.00  0.00    +0.000 C 
BRANCH  30  31
ATOM     31  C   UNL     1      -4.830  13.269  22.586  0.00  0.00    +0.000 C 
ATOM     32  O   UNL     1      -4.881  14.471  22.781  0.00  0.00    +0.000 OA
BRANCH  31  33
ATOM     33  O   UNL     1      -5.660  12.396  23.208  0.00  0.00    +0.000 OA
ATOM     34  H   UNL     1      -6.428  12.814  23.642  0.00  0.00    +0.000 HD
ENDBRANCH  31  33
ENDBRANCH  30  31
ENDBRANCH  29  30
ENDBRANCH  26  29
ENDBRANCH  20  23
ENDBRANCH  19  20
ENDBRANCH   1  19
TORSDOF 11
ENDMDL
MODEL 3
REMARK VINA RESULT:      -7.8      4.811      9.404
REMARK  Name = 
REMARK  13 active torsions:
REMARK  status: ('A' for Active; 'I' for Inactive)
REMARK    1  A    between atoms: C_1  and  C_2
REMARK    2  A    between atoms: C_2  and  C_3
REMARK    3  A    between atoms: C_5  and  O_6
REMARK    4  A    between atoms: O_6  and  C_7
REMARK    5  A    between atoms: C_7  and  C_8
REMARK    6  A    between atoms: C_8  and  C_9
REMARK    7  A    between atoms: C_11  and  C_12
REMARK    8  A    between atoms: C_15  and  C_16
REMARK    9  A    between atoms: C_22  and  C_23
REMARK   10  A    between atoms: C_26  and  C_27
REMARK   11  A    between atoms: C_27  and  C_28
REMARK   12  A    between atoms: C_28  and  C_29
REMARK   13  A    between atoms: C_29  and  O_31
REMARK                            x       y       z     vdW  Elec       q    Type
REMARK                         _______ _______ _______ _____ _____    ______ ____
ROOT
ATOM      1  C   UNL     1       6.647   5.776  16.461  0.00  0.00    +0.000 C 
ENDROOT
BRANCH   1   2
ATOM      2  C   UNL     1       7.379   6.695  17.376  0.00  0.00    +0.000 A 
ATOM      3  N   UNL     1       7.546   8.033  17.071  0.00  0.00    +0.000 NA
ATOM      4  C   UNL     1       8.216   8.522  18.099  0.00  0.00    +0.000 A 
ATOM      5  O   UNL     1       8.501   7.593  19.065  0.00  0.00    +0.000 OA
ATOM      6  C   UNL     1       7.963   6.431  18.595  0.00  0.00    +0.000 A 
ATOM      7  C   UNL     1       8.110   5.235  19.441  0.00  0.00    +0.000 C 
BRANCH   4   8
ATOM      8  C   UNL     1       8.682   9.885  18.356  0.00  0.00    +0.000 A 
ATOM      9  C   UNL     1       8.338  10.929  17.483  0.00  0.00    +0.000 A 
ATOM     10  C   UNL     1       8.782  12.241  17.708  0.00  0.00    +0.000 A 
ATOM     11  C   UNL     1       9.585  12.534  18.818  0.00  0.00    +0.000 A 
ATOM     12  C   UNL     1       9.931  11.497  19.692  0.00  0.00    +0.000 A 
ATOM     13  C   UNL     1       9.485  10.190  19.464  0.00  0.00    +0.000 A 
BRANCH  11  14
ATOM     14  C   UNL     1      10.105  13.899  19.130  0.00  0.00    +0.000 C 
ATOM     15  N   UNL     1      11.024  14.040  20.132  0.00  0.00    +0.000 N 
ATOM     16  O   UNL     1       9.729  14.887  18.510  0.00  0.00    +0.000 OA
ATOM     17  H   UNL     1      11.397  13.295  20.693  0.00  0.00    +0.000 HD
ATOM     18  H   UNL     1      11.352  14.980  20.315  0.00  0.00    +0.000 HD
ENDBRANCH  11  14
ENDBRANCH   4   8
ENDBRANCH   1   2
BRANCH   1  19
ATOM     19  C   UNL     1       5.469   5.104  17.156  0.00  0.00    +0.000 C 
BRANCH  19  20
ATOM     20  O   UNL     1       4.242   5.739  16.768  0.00  0.00    +0.000 OA
BRANCH  20  23
ATOM     21  C   UNL     1       2.048   5.198  19.657  0.00  0.00    +0.000 A 
ATOM     22  C   UNL     1       2.891   4.952  18.553  0.00  0.00    +0.000 A 
ATOM     23  C   UNL     1       3.446   6.019  17.866  0.00  0.00    +0.000 A 
ATOM     24  N   UNL     1       3.248   7.301  18.218  0.00  0.00    +0.000 NA
ATOM     25  C   UNL     1       2.465   7.522  19.289  0.00  0.00    +0.000 A 
ATOM     26  C   UNL     1       1.822   6.532  20.041  0.00  0.00    +0.000 A 
BRANCH  21  28
ATOM     27  C   UNL     1       2.239   3.590  21.599  0.00  0.00    +0.000 C 
ATOM     28  C   UNL     1       1.454   3.998  20.360  0.00  0.00    +0.000 C 
ENDBRANCH  21  28
BRANCH  26  29
ATOM     29  C   UNL     1       0.961   6.983  21.200  0.00  0.00    +0.000 C 
BRANCH  29  30
ATOM     30  C   UNL     1       0.596   8.470  21.098  0.00  0.00    +0.000 C 
BRANCH  30  31
ATOM     31  C   UNL     1       0.534   9.139  22.447  0.00  0.00    +0.000 C 
ATOM     32  O   UNL     1       1.469   9.684  23.009  0.00  0.00    +0.000 OA
BRANCH  31  33
ATOM     33  O   UNL     1      -0.709   9.090  22.985  0.00  0.00    +0.000 OA
ATOM     34  H   UNL     1      -1.334   8.520  22.498  0.00  0.00    +0.000 HD
ENDBRANCH  31  33
ENDBRANCH  30  31
ENDBRANCH  29  30
ENDBRANCH  26  29
ENDBRANCH  20  23
ENDBRANCH  19  20
ENDBRANCH   1  19
TORSDOF 11
ENDMDL
MODEL 4
REMARK VINA RESULT:      -7.7      2.972     10.794
REMARK  Name = 
REMARK  13 active torsions:
REMARK  status: ('A' for Active; 'I' for Inactive)
REMARK    1  A    between atoms: C_1  and  C_2
REMARK    2  A    between atoms: C_2  and  C_3
REMARK    3  A    between atoms: C_5  and  O_6
REMARK    4  A    between atoms: O_6  and  C_7
REMARK    5  A    between atoms: C_7  and  C_8
REMARK    6  A    between atoms: C_8  and  C_9
REMARK    7  A    between atoms: C_11  and  C_12
REMARK    8  A    between atoms: C_15  and  C_16
REMARK    9  A    between atoms: C_22  and  C_23
REMARK   10  A    between atoms: C_26  and  C_27
REMARK   11  A    between atoms: C_27  and  C_28
REMARK   12  A    between atoms: C_28  and  C_29
REMARK   13  A    between atoms: C_29  and  O_31
REMARK                            x       y       z     vdW  Elec       q    Type
REMARK                         _______ _______ _______ _____ _____    ______ ____
ROOT
ATOM      1  C   UNL     1       1.125   6.554  21.046  0.00  0.00    +0.000 C 
ENDROOT
BRANCH   1   2
ATOM      2  C   UNL     1       2.043   5.693  20.250  0.00  0.00    +0.000 A 
ATOM      3  N   UNL     1       2.645   6.157  19.095  0.00  0.00    +0.000 NA
ATOM      4  C   UNL     1       3.383   5.143  18.680  0.00  0.00    +0.000 A 
ATOM      5  O   UNL     1       3.309   4.039  19.489  0.00  0.00    +0.000 OA
ATOM      6  C   UNL     1       2.452   4.399  20.487  0.00  0.00    +0.000 A 
ATOM      7  C   UNL     1       2.179   3.395  21.529  0.00  0.00    +0.000 C 
BRANCH   4   8
ATOM      8  C   UNL     1       4.257   5.031  17.512  0.00  0.00    +0.000 A 
ATOM      9  C   UNL     1       4.574   6.168  16.753  0.00  0.00    +0.000 A 
ATOM     10  C   UNL     1       5.404   6.080  15.624  0.00  0.00    +0.000 A 
ATOM     11  C   UNL     1       5.934   4.844  15.232  0.00  0.00    +0.000 A 
ATOM     12  C   UNL     1       5.621   3.707  15.987  0.00  0.00    +0.000 A 
ATOM     13  C   UNL     1       4.794   3.800  17.112  0.00  0.00    +0.000 A 
BRANCH  11  14
ATOM     14  C   UNL     1       6.820   4.658  14.044  0.00  0.00    +0.000 C 
ATOM     15  N   UNL     1       6.524   3.667  13.151  0.00  0.00    +0.000 N 
ATOM     16  O   UNL     1       7.798   5.372  13.855  0.00  0.00    +0.000 OA
ATOM     17  H   UNL     1       5.747   3.034  13.215  0.00  0.00    +0.000 HD
ATOM     18  H   UNL     1       7.148   3.571  12.360  0.00  0.00    +0.000 HD
ENDBRANCH  11  14
ENDBRANCH   4   8
ENDBRANCH   1   2
BRANCH   1  19
ATOM     19  C   UNL     1       1.429   8.035  20.855  0.00  0.00    +0.000 C 
BRANCH  19  20
ATOM     20  O   UNL     1       0.651   8.818  21.774  0.00  0.00    +0.000 OA
BRANCH  20  23
ATOM     21  C   UNL     1      -0.691  11.224  19.353  0.00  0.00    +0.000 A 
ATOM     22  C   UNL     1      -0.323  10.010  19.968  0.00  0.00    +0.000 A 
ATOM     23  C   UNL     1       0.275  10.028  21.217  0.00  0.00    +0.000 A 
ATOM     24  N   UNL     1       0.500  11.161  21.905  0.00  0.00    +0.000 NA
ATOM     25  C   UNL     1       0.121  12.311  21.320  0.00  0.00    +0.000 A 
ATOM     26  C   UNL     1      -0.460  12.423  20.051  0.00  0.00    +0.000 A 
BRANCH  21  28
ATOM     27  C   UNL     1      -2.621  10.350  17.972  0.00  0.00    +0.000 C 
ATOM     28  C   UNL     1      -1.323  11.147  17.981  0.00  0.00    +0.000 C 
ENDBRANCH  21  28
BRANCH  26  29
ATOM     29  C   UNL     1      -0.797  13.812  19.557  0.00  0.00    +0.000 C 
BRANCH  29  30
ATOM     30  C   UNL     1       0.439  14.545  19.019  0.00  0.00    +0.000 C 
BRANCH  30  31
ATOM     31  C   UNL     1       0.234  16.037  18.946  0.00  0.00    +0.000 C 
ATOM     32  O   UNL     1       0.949  16.875  19.468  0.00  0.00    +0.000 OA
BRANCH  31  33
ATOM     33  O   UNL     1      -0.849  16.368  18.202  0.00  0.00    +0.000 OA
ATOM     34  H   UNL     1      -0.641  16.878  17.396  0.00  0.00    +0.000 HD
ENDBRANCH  31  33
ENDBRANCH  30  31
ENDBRANCH  29  30
ENDBRANCH  26  29
ENDBRANCH  20  23
ENDBRANCH  19  20
ENDBRANCH   1  19
TORSDOF 11
ENDMDL
MODEL 5
REMARK VINA RESULT:      -7.7      2.655     11.067
REMARK  Name = 
REMARK  13 active torsions:
REMARK  status: ('A' for Active; 'I' for Inactive)
REMARK    1  A    between atoms: C_1  and  C_2
REMARK    2  A    between atoms: C_2  and  C_3
REMARK    3  A    between atoms: C_5  and  O_6
REMARK    4  A    between atoms: O_6  and  C_7
REMARK    5  A    between atoms: C_7  and  C_8
REMARK    6  A    between atoms: C_8  and  C_9
REMARK    7  A    between atoms: C_11  and  C_12
REMARK    8  A    between atoms: C_15  and  C_16
REMARK    9  A    between atoms: C_22  and  C_23
REMARK   10  A    between atoms: C_26  and  C_27
REMARK   11  A    between atoms: C_27  and  C_28
REMARK   12  A    between atoms: C_28  and  C_29
REMARK   13  A    between atoms: C_29  and  O_31
REMARK                            x       y       z     vdW  Elec       q    Type
REMARK                         _______ _______ _______ _____ _____    ______ ____
ROOT
ATOM      1  C   UNL     1       1.038   6.746  21.083  0.00  0.00    +0.000 C 
ENDROOT
BRANCH   1   2
ATOM      2  C   UNL     1       1.971   5.874  20.317  0.00  0.00    +0.000 A 
ATOM      3  N   UNL     1       2.565   6.308  19.146  0.00  0.00    +0.000 NA
ATOM      4  C   UNL     1       3.321   5.293  18.767  0.00  0.00    +0.000 A 
ATOM      5  O   UNL     1       3.266   4.216  19.614  0.00  0.00    +0.000 OA
ATOM      6  C   UNL     1       2.402   4.597  20.599  0.00  0.00    +0.000 A 
ATOM      7  C   UNL     1       2.147   3.625  21.676  0.00  0.00    +0.000 C 
BRANCH   4   8
ATOM      8  C   UNL     1       4.197   5.156  17.603  0.00  0.00    +0.000 A 
ATOM      9  C   UNL     1       4.605   6.290  16.885  0.00  0.00    +0.000 A 
ATOM     10  C   UNL     1       5.439   6.178  15.761  0.00  0.00    +0.000 A 
ATOM     11  C   UNL     1       5.880   4.920  15.332  0.00  0.00    +0.000 A 
ATOM     12  C   UNL     1       5.476   3.785  16.045  0.00  0.00    +0.000 A 
ATOM     13  C   UNL     1       4.646   3.902  17.166  0.00  0.00    +0.000 A 
BRANCH  11  14
ATOM     14  C   UNL     1       6.763   4.709  14.146  0.00  0.00    +0.000 C 
ATOM     15  N   UNL     1       6.477   3.684  13.287  0.00  0.00    +0.000 N 
ATOM     16  O   UNL     1       7.729   5.431  13.928  0.00  0.00    +0.000 OA
ATOM     17  H   UNL     1       5.710   3.043  13.376  0.00  0.00    +0.000 HD
ATOM     18  H   UNL     1       7.099   3.572  12.496  0.00  0.00    +0.000 HD
ENDBRANCH  11  14
ENDBRANCH   4   8
ENDBRANCH   1   2
BRANCH   1  19
ATOM     19  C   UNL     1       1.422   8.217  20.977  0.00  0.00    +0.000 C 
BRANCH  19  20
ATOM     20  O   UNL     1       0.957   8.930  22.134  0.00  0.00    +0.000 OA
BRANCH  20  23
ATOM     21  C   UNL     1      -0.845  11.342  20.040  0.00  0.00    +0.000 A 
ATOM     22  C   UNL     1      -0.121  10.202  20.445  0.00  0.00    +0.000 A 
ATOM     23  C   UNL     1       0.217  10.045  21.779  0.00  0.00    +0.000 A 
ATOM     24  N   UNL     1      -0.142  10.920  22.735  0.00  0.00    +0.000 NA
ATOM     25  C   UNL     1      -0.856  11.989  22.340  0.00  0.00    +0.000 A 
ATOM     26  C   UNL     1      -1.227  12.274  21.021  0.00  0.00    +0.000 A 
BRANCH  21  28
ATOM     27  C   UNL     1      -1.411  10.129  17.894  0.00  0.00    +0.000 C 
ATOM     28  C   UNL     1      -1.171  11.473  18.569  0.00  0.00    +0.000 C 
ENDBRANCH  21  28
BRANCH  26  29
ATOM     29  C   UNL     1      -2.014  13.542  20.774  0.00  0.00    +0.000 C 
BRANCH  29  30
ATOM     30  C   UNL     1      -1.129  14.665  20.215  0.00  0.00    +0.000 C 
BRANCH  30  31
ATOM     31  C   UNL     1      -1.732  16.030  20.430  0.00  0.00    +0.000 C 
ATOM     32  O   UNL     1      -2.072  16.492  21.506  0.00  0.00    +0.000 OA
BRANCH  31  33
ATOM     33  O   UNL     1      -1.847  16.726  19.272  0.00  0.00    +0.000 OA
ATOM     34  H   UNL     1      -2.524  17.429  19.293  0.00  0.00    +0.000 HD
ENDBRANCH  31  33
ENDBRANCH  30  31
ENDBRANCH  29  30
ENDBRANCH  26  29
ENDBRANCH  20  23
ENDBRANCH  19  20
ENDBRANCH   1  19
TORSDOF 11
ENDMDL
MODEL 6
REMARK VINA RESULT:      -7.6      2.362     11.003
REMARK  Name = 
REMARK  13 active torsions:
REMARK  status: ('A' for Active; 'I' for Inactive)
REMARK    1  A    between atoms: C_1  and  C_2
REMARK    2  A    between atoms: C_2  and  C_3
REMARK    3  A    between atoms: C_5  and  O_6
REMARK    4  A    between atoms: O_6  and  C_7
REMARK    5  A    between atoms: C_7  and  C_8
REMARK    6  A    between atoms: C_8  and  C_9
REMARK    7  A    between atoms: C_11  and  C_12
REMARK    8  A    between atoms: C_15  and  C_16
REMARK    9  A    between atoms: C_22  and  C_23
REMARK   10  A    between atoms: C_26  and  C_27
REMARK   11  A    between atoms: C_27  and  C_28
REMARK   12  A    between atoms: C_28  and  C_29
REMARK   13  A    between atoms: C_29  and  O_31
REMARK                            x       y       z     vdW  Elec       q    Type
REMARK                         _______ _______ _______ _____ _____    ______ ____
ROOT
ATOM      1  C   UNL     1       0.936   6.789  20.853  0.00  0.00    +0.000 C 
ENDROOT
BRANCH   1   2
ATOM      2  C   UNL     1       1.940   5.950  20.141  0.00  0.00    +0.000 A 
ATOM      3  N   UNL     1       2.495   6.353  18.941  0.00  0.00    +0.000 NA
ATOM      4  C   UNL     1       3.335   5.382  18.626  0.00  0.00    +0.000 A 
ATOM      5  O   UNL     1       3.370   4.364  19.542  0.00  0.00    +0.000 OA
ATOM      6  C   UNL     1       2.478   4.735  20.505  0.00  0.00    +0.000 A 
ATOM      7  C   UNL     1       2.305   3.819  21.645  0.00  0.00    +0.000 C 
BRANCH   4   8
ATOM      8  C   UNL     1       4.219   5.242  17.469  0.00  0.00    +0.000 A 
ATOM      9  C   UNL     1       4.637   6.376  16.755  0.00  0.00    +0.000 A 
ATOM     10  C   UNL     1       5.479   6.261  15.637  0.00  0.00    +0.000 A 
ATOM     11  C   UNL     1       5.920   5.001  15.211  0.00  0.00    +0.000 A 
ATOM     12  C   UNL     1       5.506   3.868  15.921  0.00  0.00    +0.000 A 
ATOM     13  C   UNL     1       4.667   3.987  17.035  0.00  0.00    +0.000 A 
BRANCH  11  14
ATOM     14  C   UNL     1       6.811   4.788  14.032  0.00  0.00    +0.000 C 
ATOM     15  N   UNL     1       7.965   5.513  13.939  0.00  0.00    +0.000 N 
ATOM     16  O   UNL     1       6.531   3.980  13.154  0.00  0.00    +0.000 OA
ATOM     17  H   UNL     1       8.284   6.194  14.606  0.00  0.00    +0.000 HD
ATOM     18  H   UNL     1       8.543   5.342  13.126  0.00  0.00    +0.000 HD
ENDBRANCH  11  14
ENDBRANCH   4   8
ENDBRANCH   1   2
BRANCH   1  19
ATOM     19  C   UNL     1       1.484   8.174  21.177  0.00  0.00    +0.000 C 
BRANCH  19  20
ATOM     20  O   UNL     1       1.461   8.998  20.002  0.00  0.00    +0.000 OA
BRANCH  20  23
ATOM     21  C   UNL     1      -1.360  11.138  19.046  0.00  0.00    +0.000 A 
ATOM     22  C   UNL     1      -0.374  10.131  19.011  0.00  0.00    +0.000 A 
ATOM     23  C   UNL     1       0.485   9.976  20.087  0.00  0.00    +0.000 A 
ATOM     24  N   UNL     1       0.408  10.726  21.200  0.00  0.00    +0.000 NA
ATOM     25  C   UNL     1      -0.553  11.665  21.233  0.00  0.00    +0.000 A 
ATOM     26  C   UNL     1      -1.455  11.940  20.198  0.00  0.00    +0.000 A 
BRANCH  21  28
ATOM     27  C   UNL     1      -3.287  10.158  17.734  0.00  0.00    +0.000 C 
ATOM     28  C   UNL     1      -2.258  11.276  17.837  0.00  0.00    +0.000 C 
ENDBRANCH  21  28
BRANCH  26  29
ATOM     29  C   UNL     1      -2.453  13.054  20.417  0.00  0.00    +0.000 C 
BRANCH  29  30
ATOM     30  C   UNL     1      -3.731  12.553  21.103  0.00  0.00    +0.000 C 
BRANCH  30  31
ATOM     31  C   UNL     1      -3.745  12.854  22.580  0.00  0.00    +0.000 C 
ATOM     32  O   UNL     1      -3.766  12.023  23.471  0.00  0.00    +0.000 OA
BRANCH  31  33
ATOM     33  O   UNL     1      -3.713  14.186  22.829  0.00  0.00    +0.000 OA
ATOM     34  H   UNL     1      -4.053  14.437  23.710  0.00  0.00    +0.000 HD
ENDBRANCH  31  33
ENDBRANCH  30  31
ENDBRANCH  29  30
ENDBRANCH  26  29
ENDBRANCH  20  23
ENDBRANCH  19  20
ENDBRANCH   1  19
TORSDOF 11
ENDMDL
MODEL 7
REMARK VINA RESULT:      -7.6      2.473      3.969
REMARK  Name = 
REMARK  13 active torsions:
REMARK  status: ('A' for Active; 'I' for Inactive)
REMARK    1  A    between atoms: C_1  and  C_2
REMARK    2  A    between atoms: C_2  and  C_3
REMARK    3  A    between atoms: C_5  and  O_6
REMARK    4  A    between atoms: O_6  and  C_7
REMARK    5  A    between atoms: C_7  and  C_8
REMARK    6  A    between atoms: C_8  and  C_9
REMARK    7  A    between atoms: C_11  and  C_12
REMARK    8  A    between atoms: C_15  and  C_16
REMARK    9  A    between atoms: C_22  and  C_23
REMARK   10  A    between atoms: C_26  and  C_27
REMARK   11  A    between atoms: C_27  and  C_28
REMARK   12  A    between atoms: C_28  and  C_29
REMARK   13  A    between atoms: C_29  and  O_31
REMARK                            x       y       z     vdW  Elec       q    Type
REMARK                         _______ _______ _______ _____ _____    ______ ____
ROOT
ATOM      1  C   UNL     1       2.412   5.354  20.761  0.00  0.00    +0.000 C 
ENDROOT
BRANCH   1   2
ATOM      2  C   UNL     1       1.922   6.732  20.479  0.00  0.00    +0.000 A 
ATOM      3  N   UNL     1       1.115   7.407  21.376  0.00  0.00    +0.000 NA
ATOM      4  C   UNL     1       0.898   8.578  20.804  0.00  0.00    +0.000 A 
ATOM      5  O   UNL     1       1.511   8.720  19.587  0.00  0.00    +0.000 OA
ATOM      6  C   UNL     1       2.162   7.538  19.388  0.00  0.00    +0.000 A 
ATOM      7  C   UNL     1       2.929   7.399  18.139  0.00  0.00    +0.000 C 
BRANCH   4   8
ATOM      8  C   UNL     1       0.120   9.725  21.275  0.00  0.00    +0.000 A 
ATOM      9  C   UNL     1      -0.350   9.768  22.596  0.00  0.00    +0.000 A 
ATOM     10  C   UNL     1      -1.104  10.856  23.063  0.00  0.00    +0.000 A 
ATOM     11  C   UNL     1      -1.404  11.926  22.211  0.00  0.00    +0.000 A 
ATOM     12  C   UNL     1      -0.936  11.888  20.892  0.00  0.00    +0.000 A 
ATOM     13  C   UNL     1      -0.183  10.802  20.431  0.00  0.00    +0.000 A 
BRANCH  11  14
ATOM     14  C   UNL     1      -2.203  13.119  22.623  0.00  0.00    +0.000 C 
ATOM     15  N   UNL     1      -1.607  14.075  23.397  0.00  0.00    +0.000 N 
ATOM     16  O   UNL     1      -3.371  13.258  22.281  0.00  0.00    +0.000 OA
ATOM     17  H   UNL     1      -0.658  14.054  23.725  0.00  0.00    +0.000 HD
ATOM     18  H   UNL     1      -2.181  14.867  23.657  0.00  0.00    +0.000 HD
ENDBRANCH  11  14
ENDBRANCH   4   8
ENDBRANCH   1   2
BRANCH   1  19
ATOM     19  C   UNL     1       2.064   4.388  19.635  0.00  0.00    +0.000 C 
BRANCH  19  20
ATOM     20  O   UNL     1       3.147   3.469  19.425  0.00  0.00    +0.000 OA
BRANCH  20  23
ATOM     21  C   UNL     1       5.956   4.713  17.422  0.00  0.00    +0.000 A 
ATOM     22  C   UNL     1       5.173   4.318  18.525  0.00  0.00    +0.000 A 
ATOM     23  C   UNL     1       3.899   3.815  18.315  0.00  0.00    +0.000 A 
ATOM     24  N   UNL     1       3.369   3.649  17.091  0.00  0.00    +0.000 NA
ATOM     25  C   UNL     1       4.136   4.004  16.045  0.00  0.00    +0.000 A 
ATOM     26  C   UNL     1       5.421   4.554  16.131  0.00  0.00    +0.000 A 
BRANCH  21  28
ATOM     27  C   UNL     1       7.355   6.794  17.748  0.00  0.00    +0.000 C 
ATOM     28  C   UNL     1       7.332   5.272  17.709  0.00  0.00    +0.000 C 
ENDBRANCH  21  28
BRANCH  26  29
ATOM     29  C   UNL     1       6.117   4.910  14.836  0.00  0.00    +0.000 C 
BRANCH  29  30
ATOM     30  C   UNL     1       6.530   3.661  14.046  0.00  0.00    +0.000 C 
BRANCH  30  31
ATOM     31  C   UNL     1       6.207   3.779  12.578  0.00  0.00    +0.000 C 
ATOM     32  O   UNL     1       5.141   3.487  12.063  0.00  0.00    +0.000 OA
BRANCH  31  33
ATOM     33  O   UNL     1       7.247   4.276  11.865  0.00  0.00    +0.000 OA
ATOM     34  H   UNL     1       7.812   3.595  11.453  0.00  0.00    +0.000 HD
ENDBRANCH  31  33
ENDBRANCH  30  31
ENDBRANCH  29  30
ENDBRANCH  26  29
ENDBRANCH  20  23
ENDBRANCH  19  20
ENDBRANCH   1  19
TORSDOF 11
ENDMDL
MODEL 8
REMARK VINA RESULT:      -7.6      2.270     11.511
REMARK  Name = 
REMARK  13 active torsions:
REMARK  status: ('A' for Active; 'I' for Inactive)
REMARK    1  A    between atoms: C_1  and  C_2
REMARK    2  A    between atoms: C_2  and  C_3
REMARK    3  A    between atoms: C_5  and  O_6
REMARK    4  A    between atoms: O_6  and  C_7
REMARK    5  A    between atoms: C_7  and  C_8
REMARK    6  A    between atoms: C_8  and  C_9
REMARK    7  A    between atoms: C_11  and  C_12
REMARK    8  A    between atoms: C_15  and  C_16
REMARK    9  A    between atoms: C_22  and  C_23
REMARK   10  A    between atoms: C_26  and  C_27
REMARK   11  A    between atoms: C_27  and  C_28
REMARK   12  A    between atoms: C_28  and  C_29
REMARK   13  A    between atoms: C_29  and  O_31
REMARK                            x       y       z     vdW  Elec       q    Type
REMARK                         _______ _______ _______ _____ _____    ______ ____
ROOT
ATOM      1  C   UNL     1       1.455   7.236  21.161  0.00  0.00    +0.000 C 
ENDROOT
BRANCH   1   2
ATOM      2  C   UNL     1       2.044   6.269  20.193  0.00  0.00    +0.000 A 
ATOM      3  N   UNL     1       2.932   6.679  19.216  0.00  0.00    +0.000 NA
ATOM      4  C   UNL     1       3.243   5.568  18.571  0.00  0.00    +0.000 A 
ATOM      5  O   UNL     1       2.619   4.451  19.061  0.00  0.00    +0.000 OA
ATOM      6  C   UNL     1       1.856   4.908  20.096  0.00  0.00    +0.000 A 
ATOM      7  C   UNL     1       1.062   3.911  20.832  0.00  0.00    +0.000 C 
BRANCH   4   8
ATOM      8  C   UNL     1       4.145   5.361  17.438  0.00  0.00    +0.000 A 
ATOM      9  C   UNL     1       4.646   6.458  16.720  0.00  0.00    +0.000 A 
ATOM     10  C   UNL     1       5.507   6.278  15.625  0.00  0.00    +0.000 A 
ATOM     11  C   UNL     1       5.882   4.989  15.226  0.00  0.00    +0.000 A 
ATOM     12  C   UNL     1       5.386   3.891  15.940  0.00  0.00    +0.000 A 
ATOM     13  C   UNL     1       4.529   4.075  17.031  0.00  0.00    +0.000 A 
BRANCH  11  14
ATOM     14  C   UNL     1       6.788   4.706  14.073  0.00  0.00    +0.000 C 
ATOM     15  N   UNL     1       6.519   3.631  13.273  0.00  0.00    +0.000 N 
ATOM     16  O   UNL     1       7.757   5.415  13.829  0.00  0.00    +0.000 OA
ATOM     17  H   UNL     1       5.751   2.994  13.387  0.00  0.00    +0.000 HD
ATOM     18  H   UNL     1       7.156   3.471  12.502  0.00  0.00    +0.000 HD
ENDBRANCH  11  14
ENDBRANCH   4   8
ENDBRANCH   1   2
BRANCH   1  19
ATOM     19  C   UNL     1       0.431   8.150  20.498  0.00  0.00    +0.000 C 
BRANCH  19  20
ATOM     20  O   UNL     1       0.919   9.500  20.477  0.00  0.00    +0.000 OA
BRANCH  20  23
ATOM     21  C   UNL     1      -1.588  12.115  21.049  0.00  0.00    +0.000 A 
ATOM     22  C   UNL     1      -0.731  11.203  20.399  0.00  0.00    +0.000 A 
ATOM     23  C   UNL     1       0.067  10.358  21.151  0.00  0.00    +0.000 A 
ATOM     24  N   UNL     1       0.047  10.334  22.495  0.00  0.00    +0.000 NA
ATOM     25  C   UNL     1      -0.795  11.188  23.104  0.00  0.00    +0.000 A 
ATOM     26  C   UNL     1      -1.622  12.112  22.455  0.00  0.00    +0.000 A 
BRANCH  21  28
ATOM     27  C   UNL     1      -3.659  12.339  19.615  0.00  0.00    +0.000 C 
ATOM     28  C   UNL     1      -2.423  13.028  20.180  0.00  0.00    +0.000 C 
ENDBRANCH  21  28
BRANCH  26  29
ATOM     29  C   UNL     1      -2.484  13.006  23.319  0.00  0.00    +0.000 C 
BRANCH  29  30
ATOM     30  C   UNL     1      -3.683  12.250  23.908  0.00  0.00    +0.000 C 
BRANCH  30  31
ATOM     31  C   UNL     1      -5.001  12.845  23.482  0.00  0.00    +0.000 C 
ATOM     32  O   UNL     1      -5.692  12.443  22.561  0.00  0.00    +0.000 OA
BRANCH  31  33
ATOM     33  O   UNL     1      -5.364  13.893  24.260  0.00  0.00    +0.000 OA
ATOM     34  H   UNL     1      -5.791  14.624  23.773  0.00  0.00    +0.000 HD
ENDBRANCH  31  33
ENDBRANCH  30  31
ENDBRANCH  29  30
ENDBRANCH  26  29
ENDBRANCH  20  23
ENDBRANCH  19  20
ENDBRANCH   1  19
TORSDOF 11
ENDMDL
MODEL 9
REMARK VINA RESULT:      -7.5      2.378      3.798
REMARK  Name = 
REMARK  13 active torsions:
REMARK  status: ('A' for Active; 'I' for Inactive)
REMARK    1  A    between atoms: C_1  and  C_2
REMARK    2  A    between atoms: C_2  and  C_3
REMARK    3  A    between atoms: C_5  and  O_6
REMARK    4  A    between atoms: O_6  and  C_7
REMARK    5  A    between atoms: C_7  and  C_8
REMARK    6  A    between atoms: C_8  and  C_9
REMARK    7  A    between atoms: C_11  and  C_12
REMARK    8  A    between atoms: C_15  and  C_16
REMARK    9  A    between atoms: C_22  and  C_23
REMARK   10  A    between atoms: C_26  and  C_27
REMARK   11  A    between atoms: C_27  and  C_28
REMARK   12  A    between atoms: C_28  and  C_29
REMARK   13  A    between atoms: C_29  and  O_31
REMARK                            x       y       z     vdW  Elec       q    Type
REMARK                         _______ _______ _______ _____ _____    ______ ____
ROOT
ATOM      1  C   UNL     1       1.491  10.352  18.117  0.00  0.00    +0.000 C 
ENDROOT
BRANCH   1   2
ATOM      2  C   UNL     1       0.290  10.857  18.838  0.00  0.00    +0.000 A 
ATOM      3  N   UNL     1       0.404  11.581  20.010  0.00  0.00    +0.000 NA
ATOM      4  C   UNL     1      -0.843  11.864  20.343  0.00  0.00    +0.000 A 
ATOM      5  O   UNL     1      -1.774  11.375  19.465  0.00  0.00    +0.000 OA
ATOM      6  C   UNL     1      -1.042  10.734  18.508  0.00  0.00    +0.000 A 
ATOM      7  C   UNL     1      -1.788  10.103  17.407  0.00  0.00    +0.000 C 
BRANCH   4   8
ATOM      8  C   UNL     1      -1.363  12.615  21.486  0.00  0.00    +0.000 A 
ATOM      9  C   UNL     1      -0.515  13.444  22.236  0.00  0.00    +0.000 A 
ATOM     10  C   UNL     1      -0.995  14.167  23.340  0.00  0.00    +0.000 A 
ATOM     11  C   UNL     1      -2.340  14.070  23.717  0.00  0.00    +0.000 A 
ATOM     12  C   UNL     1      -3.191  13.244  22.971  0.00  0.00    +0.000 A 
ATOM     13  C   UNL     1      -2.708  12.527  21.871  0.00  0.00    +0.000 A 
BRANCH  11  14
ATOM     14  C   UNL     1      -2.932  14.798  24.878  0.00  0.00    +0.000 C 
ATOM     15  N   UNL     1      -4.276  15.049  24.882  0.00  0.00    +0.000 N 
ATOM     16  O   UNL     1      -2.244  15.170  25.822  0.00  0.00    +0.000 OA
ATOM     17  H   UNL     1      -4.923  14.784  24.161  0.00  0.00    +0.000 HD
ATOM     18  H   UNL     1      -4.640  15.546  25.686  0.00  0.00    +0.000 HD
ENDBRANCH  11  14
ENDBRANCH   4   8
ENDBRANCH   1   2
BRANCH   1  19
ATOM     19  C   UNL     1       1.584   8.832  18.167  0.00  0.00    +0.000 C 
BRANCH  19  20
ATOM     20  O   UNL     1       2.910   8.410  17.811  0.00  0.00    +0.000 OA
BRANCH  20  23
ATOM     21  C   UNL     1       4.059   4.927  17.750  0.00  0.00    +0.000 A 
ATOM     22  C   UNL     1       3.813   6.261  17.364  0.00  0.00    +0.000 A 
ATOM     23  C   UNL     1       3.162   7.117  18.237  0.00  0.00    +0.000 A 
ATOM     24  N   UNL     1       2.772   6.749  19.470  0.00  0.00    +0.000 NA
ATOM     25  C   UNL     1       3.036   5.482  19.837  0.00  0.00    +0.000 A 
ATOM     26  C   UNL     1       3.654   4.518  19.033  0.00  0.00    +0.000 A 
BRANCH  21  28
ATOM     27  C   UNL     1       5.349   4.800  15.579  0.00  0.00    +0.000 C 
ATOM     28  C   UNL     1       4.756   4.031  16.751  0.00  0.00    +0.000 C 
ENDBRANCH  21  28
BRANCH  26  29
ATOM     29  C   UNL     1       3.844   3.137  19.619  0.00  0.00    +0.000 C 
BRANCH  29  30
ATOM     30  C   UNL     1       2.535   2.336  19.635  0.00  0.00    +0.000 C 
BRANCH  30  31
ATOM     31  C   UNL     1       1.697   2.632  20.853  0.00  0.00    +0.000 C 
ATOM     32  O   UNL     1       2.051   2.477  22.009  0.00  0.00    +0.000 OA
BRANCH  31  33
ATOM     33  O   UNL     1       0.476   3.122  20.526  0.00  0.00    +0.000 OA
ATOM     34  H   UNL     1       0.002   2.599  19.851  0.00  0.00    +0.000 HD
ENDBRANCH  31  33
ENDBRANCH  30  31
ENDBRANCH  29  30
ENDBRANCH  26  29
ENDBRANCH  20  23
ENDBRANCH  19  20
ENDBRANCH   1  19
TORSDOF 11
ENDMDL
