MODEL 1
REMARK VINA RESULT:      -8.4      0.000      0.000
REMARK  Name = 
REMARK  3 active torsions:
REMARK  status: ('A' for Active; 'I' for Inactive)
REMARK    1  A    between atoms: C_2  and  O_3
REMARK    2  A    between atoms: C_2  and  C_4
REMARK    3  A    between atoms: C_6  and  C_7
REMARK                            x       y       z     vdW  Elec       q    Type
REMARK                         _______ _______ _______ _____ _____    ______ ____
ROOT
ATOM      1  C   UNL     1       2.085   4.738  20.398  0.00  0.00    +0.000 A 
ATOM      2  C   UNL     1       1.495   5.921  20.869  0.00  0.00    +0.000 A 
ATOM      3  C   UNL     1       1.746   7.113  20.226  0.00  0.00    +0.000 A 
ATOM      4  N   UNL     1       2.547   7.144  19.137  0.00  0.00    +0.000 NA
ATOM      5  C   UNL     1       3.100   6.017  18.662  0.00  0.00    +0.000 A 
ATOM      6  C   UNL     1       3.915   6.178  17.553  0.00  0.00    +0.000 A 
ATOM      7  C   UNL     1       4.548   5.101  16.950  0.00  0.00    +0.000 A 
ATOM      8 CL   UNL     1       5.573   5.353  15.594  0.00  0.00    +0.000 Cl
ATOM      9  C   UNL     1       4.342   3.823  17.431  0.00  0.00    +0.000 A 
ATOM     10  C   UNL     1       3.509   3.635  18.537  0.00  0.00    +0.000 A 
ATOM     11 CL   UNL     1       3.242   1.981  18.965  0.00  0.00    +0.000 Cl
ATOM     12  C   UNL     1       2.897   4.735  19.224  0.00  0.00    +0.000 A 
ENDROOT
BRANCH   3  13
ATOM     13  C   UNL     1       1.202   8.415  20.673  0.00  0.00    +0.000 A 
ATOM     14  C   UNL     1       1.025   9.491  19.779  0.00  0.00    +0.000 A 
ATOM     15  C   UNL     1       0.484  10.711  20.200  0.00  0.00    +0.000 A 
ATOM     16  C   UNL     1       0.107  10.878  21.528  0.00  0.00    +0.000 A 
ATOM     17 BR   UNL     1      -0.647  12.517  22.090  0.00  0.00    +0.000 Br
ATOM     18  C   UNL     1       0.274   9.840  22.439  0.00  0.00    +0.000 A 
ATOM     19  C   UNL     1       0.816   8.621  22.011  0.00  0.00    +0.000 A 
ENDBRANCH   3  13
BRANCH   1  21
ATOM     20  O   UNL     1       2.614   3.140  22.062  0.00  0.00    +0.000 OA
ATOM     21  C   UNL     1       1.793   3.573  21.271  0.00  0.00    +0.000 C 
BRANCH  21  22
ATOM     22  O   UNL     1       0.669   2.903  20.949  0.00  0.00    +0.000 OA
ATOM     23  H   UNL     1      -0.081   3.012  21.562  0.00  0.00    +0.000 HD
ENDBRANCH  21  22
ENDBRANCH   1  21
TORSDOF 3
ENDMDL
MODEL 2
REMARK VINA RESULT:      -8.3      0.071      1.029
REMARK  Name = 
REMARK  3 active torsions:
REMARK  status: ('A' for Active; 'I' for Inactive)
REMARK    1  A    between atoms: C_2  and  O_3
REMARK    2  A    between atoms: C_2  and  C_4
REMARK    3  A    between atoms: C_6  and  C_7
REMARK                            x       y       z     vdW  Elec       q    Type
REMARK                         _______ _______ _______ _____ _____    ______ ____
ROOT
ATOM      1  C   UNL     1       2.103   4.709  20.387  0.00  0.00    +0.000 A 
ATOM      2  C   UNL     1       1.495   5.887  20.846  0.00  0.00    +0.000 A 
ATOM      3  C   UNL     1       1.744   7.080  20.203  0.00  0.00    +0.000 A 
ATOM      4  N   UNL     1       2.562   7.115  19.126  0.00  0.00    +0.000 NA
ATOM      5  C   UNL     1       3.133   5.992  18.663  0.00  0.00    +0.000 A 
ATOM      6  C   UNL     1       3.964   6.159  17.567  0.00  0.00    +0.000 A 
ATOM      7  C   UNL     1       4.616   5.087  16.976  0.00  0.00    +0.000 A 
ATOM      8 CL   UNL     1       5.660   5.345  15.636  0.00  0.00    +0.000 Cl
ATOM      9  C   UNL     1       4.415   3.807  17.457  0.00  0.00    +0.000 A 
ATOM     10  C   UNL     1       3.567   3.614  18.551  0.00  0.00    +0.000 A 
ATOM     11 CL   UNL     1       3.308   1.958  18.978  0.00  0.00    +0.000 Cl
ATOM     12  C   UNL     1       2.934   4.710  19.226  0.00  0.00    +0.000 A 
ENDROOT
BRANCH   3  13
ATOM     13  C   UNL     1       1.182   8.377  20.638  0.00  0.00    +0.000 A 
ATOM     14  C   UNL     1       0.845   8.626  21.985  0.00  0.00    +0.000 A 
ATOM     15  C   UNL     1       0.339   9.864  22.395  0.00  0.00    +0.000 A 
ATOM     16  C   UNL     1       0.161  10.882  21.465  0.00  0.00    +0.000 A 
ATOM     17 BR   UNL     1      -0.498  12.562  22.025  0.00  0.00    +0.000 Br
ATOM     18  C   UNL     1       0.475  10.669  20.127  0.00  0.00    +0.000 A 
ATOM     19  C   UNL     1       0.981   9.427  19.721  0.00  0.00    +0.000 A 
ENDBRANCH   3  13
BRANCH   1  21
ATOM     20  O   UNL     1       2.633   3.100  22.041  0.00  0.00    +0.000 OA
ATOM     21  C   UNL     1       1.808   3.543  21.257  0.00  0.00    +0.000 C 
BRANCH  21  22
ATOM     22  O   UNL     1       0.677   2.884  20.942  0.00  0.00    +0.000 OA
ATOM     23  H   UNL     1      -0.146   3.247  21.319  0.00  0.00    +0.000 HD
ENDBRANCH  21  22
ENDBRANCH   1  21
TORSDOF 3
ENDMDL
MODEL 3
REMARK VINA RESULT:      -7.5      1.220      1.788
REMARK  Name = 
REMARK  3 active torsions:
REMARK  status: ('A' for Active; 'I' for Inactive)
REMARK    1  A    between atoms: C_2  and  O_3
REMARK    2  A    between atoms: C_2  and  C_4
REMARK    3  A    between atoms: C_6  and  C_7
REMARK                            x       y       z     vdW  Elec       q    Type
REMARK                         _______ _______ _______ _____ _____    ______ ____
ROOT
ATOM      1  C   UNL     1       2.197   4.949  19.673  0.00  0.00    +0.000 A 
ATOM      2  C   UNL     1       1.729   6.262  19.828  0.00  0.00    +0.000 A 
ATOM      3  C   UNL     1       2.196   7.257  18.998  0.00  0.00    +0.000 A 
ATOM      4  N   UNL     1       3.094   6.969  18.029  0.00  0.00    +0.000 NA
ATOM      5  C   UNL     1       3.535   5.713  17.855  0.00  0.00    +0.000 A 
ATOM      6  C   UNL     1       4.466   5.547  16.843  0.00  0.00    +0.000 A 
ATOM      7  C   UNL     1       5.005   4.304  16.543  0.00  0.00    +0.000 A 
ATOM      8 CL   UNL     1       6.179   4.150  15.299  0.00  0.00    +0.000 Cl
ATOM      9  C   UNL     1       4.585   3.186  17.238  0.00  0.00    +0.000 A 
ATOM     10  C   UNL     1       3.633   3.328  18.251  0.00  0.00    +0.000 A 
ATOM     11 CL   UNL     1       3.108   1.840  18.959  0.00  0.00    +0.000 Cl
ATOM     12  C   UNL     1       3.110   4.609  18.629  0.00  0.00    +0.000 A 
ENDROOT
BRANCH   3  13
ATOM     13  C   UNL     1       1.791   8.675  19.111  0.00  0.00    +0.000 A 
ATOM     14  C   UNL     1       1.107   9.164  20.244  0.00  0.00    +0.000 A 
ATOM     15  C   UNL     1       0.750  10.512  20.359  0.00  0.00    +0.000 A 
ATOM     16  C   UNL     1       1.073  11.402  19.340  0.00  0.00    +0.000 A 
ATOM     17 BR   UNL     1       0.613  13.227  19.508  0.00  0.00    +0.000 Br
ATOM     18  C   UNL     1       1.740  10.953  18.205  0.00  0.00    +0.000 A 
ATOM     19  C   UNL     1       2.095   9.602  18.096  0.00  0.00    +0.000 A 
ENDBRANCH   3  13
BRANCH   1  21
ATOM     20  O   UNL     1       2.338   3.708  21.684  0.00  0.00    +0.000 OA
ATOM     21  C   UNL     1       1.670   4.032  20.715  0.00  0.00    +0.000 C 
BRANCH  21  22
ATOM     22  O   UNL     1       0.520   3.414  20.385  0.00  0.00    +0.000 OA
ATOM     23  H   UNL     1      -0.004   3.839  19.681  0.00  0.00    +0.000 HD
ENDBRANCH  21  22
ENDBRANCH   1  21
TORSDOF 3
ENDMDL
MODEL 4
REMARK VINA RESULT:      -7.4      1.326      1.633
REMARK  Name = 
REMARK  3 active torsions:
REMARK  status: ('A' for Active; 'I' for Inactive)
REMARK    1  A    between atoms: C_2  and  O_3
REMARK    2  A    between atoms: C_2  and  C_4
REMARK    3  A    between atoms: C_6  and  C_7
REMARK                            x       y       z     vdW  Elec       q    Type
REMARK                         _______ _______ _______ _____ _____    ______ ____
ROOT
ATOM      1  C   UNL     1       2.581   4.769  19.016  0.00  0.00    +0.000 A 
ATOM      2  C   UNL     1       2.003   6.001  19.359  0.00  0.00    +0.000 A 
ATOM      3  C   UNL     1       2.418   7.151  18.724  0.00  0.00    +0.000 A 
ATOM      4  N   UNL     1       3.371   7.094  17.766  0.00  0.00    +0.000 NA
ATOM      5  C   UNL     1       3.917   5.920  17.413  0.00  0.00    +0.000 A 
ATOM      6  C   UNL     1       4.895   5.992  16.434  0.00  0.00    +0.000 A 
ATOM      7  C   UNL     1       5.542   4.858  15.964  0.00  0.00    +0.000 A 
ATOM      8 CL   UNL     1       6.769   4.999  14.769  0.00  0.00    +0.000 Cl
ATOM      9  C   UNL     1       5.189   3.613  16.447  0.00  0.00    +0.000 A 
ATOM     10  C   UNL     1       4.193   3.515  17.423  0.00  0.00    +0.000 A 
ATOM     11 CL   UNL     1       3.764   1.897  17.855  0.00  0.00    +0.000 Cl
ATOM     12  C   UNL     1       3.556   4.675  17.977  0.00  0.00    +0.000 A 
ENDROOT
BRANCH   3  13
ATOM     13  C   UNL     1       1.896   8.497  19.045  0.00  0.00    +0.000 A 
ATOM     14  C   UNL     1       1.989   9.567  18.131  0.00  0.00    +0.000 A 
ATOM     15  C   UNL     1       1.469  10.832  18.429  0.00  0.00    +0.000 A 
ATOM     16  C   UNL     1       0.841  11.051  19.649  0.00  0.00    +0.000 A 
ATOM     17 BR   UNL     1       0.117  12.752  20.040  0.00  0.00    +0.000 Br
ATOM     18  C   UNL     1       0.738  10.021  20.578  0.00  0.00    +0.000 A 
ATOM     19  C   UNL     1       1.261   8.757  20.275  0.00  0.00    +0.000 A 
ENDBRANCH   3  13
BRANCH   1  21
ATOM     20  O   UNL     1       2.761   3.210  20.788  0.00  0.00    +0.000 OA
ATOM     21  C   UNL     1       2.093   3.657  19.870  0.00  0.00    +0.000 C 
BRANCH  21  22
ATOM     22  O   UNL     1       0.990   3.040  19.404  0.00  0.00    +0.000 OA
ATOM     23  H   UNL     1       0.847   3.093  18.441  0.00  0.00    +0.000 HD
ENDBRANCH  21  22
ENDBRANCH   1  21
TORSDOF 3
ENDMDL
MODEL 5
REMARK VINA RESULT:      -7.4      2.770      3.880
REMARK  Name = 
REMARK  3 active torsions:
REMARK  status: ('A' for Active; 'I' for Inactive)
REMARK    1  A    between atoms: C_2  and  O_3
REMARK    2  A    between atoms: C_2  and  C_4
REMARK    3  A    between atoms: C_6  and  C_7
REMARK                            x       y       z     vdW  Elec       q    Type
REMARK                         _______ _______ _______ _____ _____    ______ ____
ROOT
ATOM      1  C   UNL     1       4.178   6.578  17.180  0.00  0.00    +0.000 A 
ATOM      2  C   UNL     1       3.564   7.739  17.673  0.00  0.00    +0.000 A 
ATOM      3  C   UNL     1       2.461   7.635  18.493  0.00  0.00    +0.000 A 
ATOM      4  N   UNL     1       1.978   6.418  18.832  0.00  0.00    +0.000 NA
ATOM      5  C   UNL     1       2.569   5.298  18.385  0.00  0.00    +0.000 A 
ATOM      6  C   UNL     1       1.971   4.114  18.785  0.00  0.00    +0.000 A 
ATOM      7  C   UNL     1       2.476   2.878  18.407  0.00  0.00    +0.000 A 
ATOM      8 CL   UNL     1       1.685   1.435  18.903  0.00  0.00    +0.000 Cl
ATOM      9  C   UNL     1       3.624   2.807  17.642  0.00  0.00    +0.000 A 
ATOM     10  C   UNL     1       4.253   3.989  17.242  0.00  0.00    +0.000 A 
ATOM     11 CL   UNL     1       5.741   3.761  16.392  0.00  0.00    +0.000 Cl
ATOM     12  C   UNL     1       3.716   5.281  17.559  0.00  0.00    +0.000 A 
ENDROOT
BRANCH   3  13
ATOM     13  C   UNL     1       1.725   8.801  19.028  0.00  0.00    +0.000 A 
ATOM     14  C   UNL     1       1.521   9.965  18.259  0.00  0.00    +0.000 A 
ATOM     15  C   UNL     1       0.800  11.055  18.760  0.00  0.00    +0.000 A 
ATOM     16  C   UNL     1       0.265  11.001  20.042  0.00  0.00    +0.000 A 
ATOM     17 BR   UNL     1      -0.730  12.463  20.707  0.00  0.00    +0.000 Br
ATOM     18  C   UNL     1       0.454   9.871  20.831  0.00  0.00    +0.000 A 
ATOM     19  C   UNL     1       1.177   8.783  20.324  0.00  0.00    +0.000 A 
ENDBRANCH   3  13
BRANCH   1  21
ATOM     20  O   UNL     1       5.148   6.742  15.027  0.00  0.00    +0.000 OA
ATOM     21  C   UNL     1       5.281   6.878  16.233  0.00  0.00    +0.000 C 
BRANCH  21  22
ATOM     22  O   UNL     1       6.479   7.073  16.816  0.00  0.00    +0.000 OA
ATOM     23  H   UNL     1       6.537   6.834  17.759  0.00  0.00    +0.000 HD
ENDBRANCH  21  22
ENDBRANCH   1  21
TORSDOF 3
ENDMDL
MODEL 6
REMARK VINA RESULT:      -7.4      2.772      4.015
REMARK  Name = 
REMARK  3 active torsions:
REMARK  status: ('A' for Active; 'I' for Inactive)
REMARK    1  A    between atoms: C_2  and  O_3
REMARK    2  A    between atoms: C_2  and  C_4
REMARK    3  A    between atoms: C_6  and  C_7
REMARK                            x       y       z     vdW  Elec       q    Type
REMARK                         _______ _______ _______ _____ _____    ______ ____
ROOT
ATOM      1  C   UNL     1       4.182   6.587  17.179  0.00  0.00    +0.000 A 
ATOM      2  C   UNL     1       3.568   7.750  17.669  0.00  0.00    +0.000 A 
ATOM      3  C   UNL     1       2.464   7.649  18.486  0.00  0.00    +0.000 A 
ATOM      4  N   UNL     1       1.978   6.434  18.826  0.00  0.00    +0.000 NA
ATOM      5  C   UNL     1       2.567   5.312  18.383  0.00  0.00    +0.000 A 
ATOM      6  C   UNL     1       1.967   4.130  18.784  0.00  0.00    +0.000 A 
ATOM      7  C   UNL     1       2.470   2.892  18.408  0.00  0.00    +0.000 A 
ATOM      8 CL   UNL     1       1.676   1.452  18.906  0.00  0.00    +0.000 Cl
ATOM      9  C   UNL     1       3.620   2.818  17.646  0.00  0.00    +0.000 A 
ATOM     10  C   UNL     1       4.252   3.998  17.246  0.00  0.00    +0.000 A 
ATOM     11 CL   UNL     1       5.742   3.766  16.399  0.00  0.00    +0.000 Cl
ATOM     12  C   UNL     1       3.717   5.292  17.560  0.00  0.00    +0.000 A 
ENDROOT
BRANCH   3  13
ATOM     13  C   UNL     1       1.728   8.818  19.017  0.00  0.00    +0.000 A 
ATOM     14  C   UNL     1       1.173   8.819  20.313  0.00  0.00    +0.000 A 
ATOM     15  C   UNL     1       0.502   9.937  20.821  0.00  0.00    +0.000 A 
ATOM     16  C   UNL     1       0.375  11.081  20.041  0.00  0.00    +0.000 A 
ATOM     17 BR   UNL     1      -0.508  12.599  20.737  0.00  0.00    +0.000 Br
ATOM     18  C   UNL     1       0.904  11.112  18.754  0.00  0.00    +0.000 A 
ATOM     19  C   UNL     1       1.575   9.990  18.251  0.00  0.00    +0.000 A 
ENDBRANCH   3  13
BRANCH   1  21
ATOM     20  O   UNL     1       5.157   6.743  15.028  0.00  0.00    +0.000 OA
ATOM     21  C   UNL     1       5.287   6.884  16.234  0.00  0.00    +0.000 C 
BRANCH  21  22
ATOM     22  O   UNL     1       6.484   7.079  16.819  0.00  0.00    +0.000 OA
ATOM     23  H   UNL     1       7.141   6.369  16.692  0.00  0.00    +0.000 HD
ENDBRANCH  21  22
ENDBRANCH   1  21
TORSDOF 3
ENDMDL
MODEL 7
REMARK VINA RESULT:      -7.1      1.442      1.914
REMARK  Name = 
REMARK  3 active torsions:
REMARK  status: ('A' for Active; 'I' for Inactive)
REMARK    1  A    between atoms: C_2  and  O_3
REMARK    2  A    between atoms: C_2  and  C_4
REMARK    3  A    between atoms: C_6  and  C_7
REMARK                            x       y       z     vdW  Elec       q    Type
REMARK                         _______ _______ _______ _____ _____    ______ ____
ROOT
ATOM      1  C   UNL     1       2.383   5.606  19.448  0.00  0.00    +0.000 A 
ATOM      2  C   UNL     1       1.814   6.879  19.600  0.00  0.00    +0.000 A 
ATOM      3  C   UNL     1       2.218   7.911  18.781  0.00  0.00    +0.000 A 
ATOM      4  N   UNL     1       3.151   7.696  17.825  0.00  0.00    +0.000 NA
ATOM      5  C   UNL     1       3.687   6.477  17.654  0.00  0.00    +0.000 A 
ATOM      6  C   UNL     1       4.644   6.387  16.656  0.00  0.00    +0.000 A 
ATOM      7  C   UNL     1       5.279   5.189  16.361  0.00  0.00    +0.000 A 
ATOM      8 CL   UNL     1       6.481   5.130  15.135  0.00  0.00    +0.000 Cl
ATOM      9  C   UNL     1       4.934   4.039  17.044  0.00  0.00    +0.000 A 
ATOM     10  C   UNL     1       3.958   4.104  18.043  0.00  0.00    +0.000 A 
ATOM     11 CL   UNL     1       3.535   2.578  18.737  0.00  0.00    +0.000 Cl
ATOM     12  C   UNL     1       3.335   5.341  18.417  0.00  0.00    +0.000 A 
ENDROOT
BRANCH   3  13
ATOM     13  C   UNL     1       1.706   9.294  18.893  0.00  0.00    +0.000 A 
ATOM     14  C   UNL     1       2.237  10.347  18.120  0.00  0.00    +0.000 A 
ATOM     15  C   UNL     1       1.731  11.649  18.210  0.00  0.00    +0.000 A 
ATOM     16  C   UNL     1       0.677  11.923  19.075  0.00  0.00    +0.000 A 
ATOM     17 BR   UNL     1      -0.023  13.675  19.176  0.00  0.00    +0.000 Br
ATOM     18  C   UNL     1       0.134  10.910  19.858  0.00  0.00    +0.000 A 
ATOM     19  C   UNL     1       0.645   9.609  19.764  0.00  0.00    +0.000 A 
ENDBRANCH   3  13
BRANCH   1  21
ATOM     20  O   UNL     1       0.854   4.046  20.361  0.00  0.00    +0.000 OA
ATOM     21  C   UNL     1       1.910   4.647  20.478  0.00  0.00    +0.000 C 
BRANCH  21  22
ATOM     22  O   UNL     1       2.603   4.683  21.632  0.00  0.00    +0.000 OA
ATOM     23  H   UNL     1       2.770   5.569  22.002  0.00  0.00    +0.000 HD
ENDBRANCH  21  22
ENDBRANCH   1  21
TORSDOF 3
ENDMDL
MODEL 8
REMARK VINA RESULT:      -7.0      1.648      2.299
REMARK  Name = 
REMARK  3 active torsions:
REMARK  status: ('A' for Active; 'I' for Inactive)
REMARK    1  A    between atoms: C_2  and  O_3
REMARK    2  A    between atoms: C_2  and  C_4
REMARK    3  A    between atoms: C_6  and  C_7
REMARK                            x       y       z     vdW  Elec       q    Type
REMARK                         _______ _______ _______ _____ _____    ______ ____
ROOT
ATOM      1  C   UNL     1       2.428   5.712  19.290  0.00  0.00    +0.000 A 
ATOM      2  C   UNL     1       1.859   6.989  19.402  0.00  0.00    +0.000 A 
ATOM      3  C   UNL     1       2.282   8.002  18.570  0.00  0.00    +0.000 A 
ATOM      4  N   UNL     1       3.234   7.766  17.639  0.00  0.00    +0.000 NA
ATOM      5  C   UNL     1       3.772   6.543  17.505  0.00  0.00    +0.000 A 
ATOM      6  C   UNL     1       4.749   6.430  16.531  0.00  0.00    +0.000 A 
ATOM      7  C   UNL     1       5.389   5.225  16.275  0.00  0.00    +0.000 A 
ATOM      8 CL   UNL     1       6.616   5.138  15.076  0.00  0.00    +0.000 Cl
ATOM      9  C   UNL     1       5.027   4.091  16.976  0.00  0.00    +0.000 A 
ATOM     10  C   UNL     1       4.030   4.179  17.951  0.00  0.00    +0.000 A 
ATOM     11 CL   UNL     1       3.590   2.668  18.669  0.00  0.00    +0.000 Cl
ATOM     12  C   UNL     1       3.401   5.424  18.286  0.00  0.00    +0.000 A 
ENDROOT
BRANCH   3  13
ATOM     13  C   UNL     1       1.769   9.388  18.641  0.00  0.00    +0.000 A 
ATOM     14  C   UNL     1       0.593   9.709  19.349  0.00  0.00    +0.000 A 
ATOM     15  C   UNL     1       0.127  11.026  19.437  0.00  0.00    +0.000 A 
ATOM     16  C   UNL     1       0.832  12.051  18.818  0.00  0.00    +0.000 A 
ATOM     17 BR   UNL     1       0.217  13.832  18.958  0.00  0.00    +0.000 Br
ATOM     18  C   UNL     1       1.992  11.770  18.104  0.00  0.00    +0.000 A 
ATOM     19  C   UNL     1       2.454  10.450  18.020  0.00  0.00    +0.000 A 
ENDBRANCH   3  13
BRANCH   1  21
ATOM     20  O   UNL     1       0.900   4.141  20.185  0.00  0.00    +0.000 OA
ATOM     21  C   UNL     1       1.932   4.777  20.330  0.00  0.00    +0.000 C 
BRANCH  21  22
ATOM     22  O   UNL     1       2.567   4.872  21.514  0.00  0.00    +0.000 OA
ATOM     23  H   UNL     1       3.219   4.172  21.705  0.00  0.00    +0.000 HD
ENDBRANCH  21  22
ENDBRANCH   1  21
TORSDOF 3
ENDMDL
MODEL 9
REMARK VINA RESULT:      -7.0      2.771      3.937
REMARK  Name = 
REMARK  3 active torsions:
REMARK  status: ('A' for Active; 'I' for Inactive)
REMARK    1  A    between atoms: C_2  and  O_3
REMARK    2  A    between atoms: C_2  and  C_4
REMARK    3  A    between atoms: C_6  and  C_7
REMARK                            x       y       z     vdW  Elec       q    Type
REMARK                         _______ _______ _______ _____ _____    ______ ____
ROOT
ATOM      1  C   UNL     1       4.201   6.724  17.688  0.00  0.00    +0.000 A 
ATOM      2  C   UNL     1       3.341   7.820  17.852  0.00  0.00    +0.000 A 
ATOM      3  C   UNL     1       2.343   7.772  18.799  0.00  0.00    +0.000 A 
ATOM      4  N   UNL     1       2.198   6.676  19.579  0.00  0.00    +0.000 NA
ATOM      5  C   UNL     1       3.027   5.629  19.449  0.00  0.00    +0.000 A 
ATOM      6  C   UNL     1       2.767   4.559  20.291  0.00  0.00    +0.000 A 
ATOM      7  C   UNL     1       3.545   3.411  20.274  0.00  0.00    +0.000 A 
ATOM      8 CL   UNL     1       3.167   2.098  21.315  0.00  0.00    +0.000 Cl
ATOM      9  C   UNL     1       4.634   3.329  19.428  0.00  0.00    +0.000 A 
ATOM     10  C   UNL     1       4.926   4.404  18.583  0.00  0.00    +0.000 A 
ATOM     11 CL   UNL     1       6.379   4.223  17.664  0.00  0.00    +0.000 Cl
ATOM     12  C   UNL     1       4.099   5.575  18.529  0.00  0.00    +0.000 A 
ENDROOT
BRANCH   3  13
ATOM     13  C   UNL     1       1.365   8.861  19.016  0.00  0.00    +0.000 A 
ATOM     14  C   UNL     1       0.786   9.563  17.940  0.00  0.00    +0.000 A 
ATOM     15  C   UNL     1      -0.159  10.574  18.149  0.00  0.00    +0.000 A 
ATOM     16  C   UNL     1      -0.546  10.902  19.443  0.00  0.00    +0.000 A 
ATOM     17 BR   UNL     1      -1.840  12.249  19.724  0.00  0.00    +0.000 Br
ATOM     18  C   UNL     1       0.012  10.235  20.530  0.00  0.00    +0.000 A 
ATOM     19  C   UNL     1       0.957   9.224  20.314  0.00  0.00    +0.000 A 
ENDBRANCH   3  13
BRANCH   1  21
ATOM     20  O   UNL     1       4.937   6.413  15.460  0.00  0.00    +0.000 OA
ATOM     21  C   UNL     1       5.144   6.907  16.556  0.00  0.00    +0.000 C 
BRANCH  21  22
ATOM     22  O   UNL     1       6.332   7.441  16.901  0.00  0.00    +0.000 OA
ATOM     23  H   UNL     1       6.590   7.339  17.835  0.00  0.00    +0.000 HD
ENDBRANCH  21  22
ENDBRANCH   1  21
TORSDOF 3
ENDMDL
