MODEL 1
REMARK VINA RESULT:      -6.5      0.000      0.000
REMARK  Name = 
REMARK  7 active torsions:
REMARK  status: ('A' for Active; 'I' for Inactive)
REMARK    1  A    between atoms: C_1  and  C_2
REMARK    2  A    between atoms: C_5  and  C_6
REMARK    3  A    between atoms: C_6  and  N_7
REMARK    4  A    between atoms: C_16  and  O_17
REMARK    5  A    between atoms: C_16  and  C_24
REMARK    6  A    between atoms: O_17  and  C_18
REMARK    7  A    between atoms: C_21  and  O_22
REMARK                            x       y       z     vdW  Elec       q    Type
REMARK                         _______ _______ _______ _____ _____    ______ ____
ROOT
ATOM      1  N   UNL     1       0.640  12.062  19.381  0.00  0.00    +0.000 N 
ATOM      2  C   UNL     1       1.390  11.174  18.596  0.00  0.00    +0.000 C 
ATOM      3  O   UNL     1       2.291  11.429  17.819  0.00  0.00    +0.000 OA
ATOM      4  C   UNL     1       1.118   9.846  19.161  0.00  0.00    +0.000 A 
ATOM      5  C   UNL     1       1.941   8.747  19.038  0.00  0.00    +0.000 A 
ATOM      6  C   UNL     1       1.802   7.773  20.012  0.00  0.00    +0.000 A 
ATOM      7  C   UNL     1       0.880   7.946  21.066  0.00  0.00    +0.000 A 
ATOM      8  C   UNL     1       0.009   9.053  21.124  0.00  0.00    +0.000 A 
ATOM      9  C   UNL     1       0.100  10.002  20.129  0.00  0.00    +0.000 A 
ATOM     10  C   UNL     1      -0.570  11.315  19.802  0.00  0.00    +0.000 C 
ENDROOT
BRANCH  10  11
ATOM     11  C   UNL     1      -1.486  12.190  20.669  0.00  0.00    +0.000 A 
ATOM     12  C   UNL     1      -1.549  11.901  22.063  0.00  0.00    +0.000 A 
ATOM     13  C   UNL     1      -2.279  12.673  22.972  0.00  0.00    +0.000 A 
ATOM     14  C   UNL     1      -2.931  13.800  22.519  0.00  0.00    +0.000 A 
ATOM     15 CL   UNL     1      -3.804  14.794  23.621  0.00  0.00    +0.000 Cl
ATOM     16  C   UNL     1      -2.864  14.148  21.160  0.00  0.00    +0.000 A 
ATOM     17  C   UNL     1      -2.149  13.350  20.243  0.00  0.00    +0.000 A 
ENDBRANCH  10  11
BRANCH   1  18
ATOM     18  C   UNL     1       1.482  12.633  20.454  0.00  0.00    +0.000 C 
BRANCH  18  23
ATOM     19  C   UNL     1      -0.190  18.102  21.065  0.00  0.00    +0.000 C 
ATOM     20  C   UNL     1       0.460  16.761  20.938  0.00  0.00    +0.000 A 
ATOM     21  C   UNL     1       0.578  15.937  22.064  0.00  0.00    +0.000 A 
ATOM     22  C   UNL     1       0.987  14.615  21.921  0.00  0.00    +0.000 A 
ATOM     23  C   UNL     1       1.265  14.102  20.647  0.00  0.00    +0.000 A 
ATOM     24  C   UNL     1       1.277  14.961  19.545  0.00  0.00    +0.000 A 
ATOM     25  C   UNL     1       0.872  16.283  19.689  0.00  0.00    +0.000 A 
ENDBRANCH  18  23
ENDBRANCH   1  18
BRANCH  10  26
ATOM     26  O   UNL     1      -1.332  11.164  18.582  0.00  0.00    +0.000 OA
BRANCH  26  27
ATOM     27  C   UNL     1      -2.253  10.083  18.390  0.00  0.00    +0.000 C 
ATOM     28  C   UNL     1      -3.658  10.564  18.229  0.00  0.00    +0.000 C 
ATOM     29  C   UNL     1      -3.888  10.923  16.956  0.00  0.00    +0.000 C 
ATOM     30  C   UNL     1      -2.687  10.670  16.108  0.00  0.00    +0.000 C 
ATOM     31  C   UNL     1      -1.982   9.600  16.953  0.00  0.00    +0.000 C 
BRANCH  30  32
ATOM     32  O   UNL     1      -1.924  11.862  16.028  0.00  0.00    +0.000 OA
ATOM     33  H   UNL     1      -1.349  11.785  15.235  0.00  0.00    +0.000 HD
ENDBRANCH  30  32
ENDBRANCH  26  27
ENDBRANCH  10  26
TORSDOF 6
ENDMDL
MODEL 2
REMARK VINA RESULT:      -6.3      0.554      1.014
REMARK  Name = 
REMARK  7 active torsions:
REMARK  status: ('A' for Active; 'I' for Inactive)
REMARK    1  A    between atoms: C_1  and  C_2
REMARK    2  A    between atoms: C_5  and  C_6
REMARK    3  A    between atoms: C_6  and  N_7
REMARK    4  A    between atoms: C_16  and  O_17
REMARK    5  A    between atoms: C_16  and  C_24
REMARK    6  A    between atoms: O_17  and  C_18
REMARK    7  A    between atoms: C_21  and  O_22
REMARK                            x       y       z     vdW  Elec       q    Type
REMARK                         _______ _______ _______ _____ _____    ______ ____
ROOT
ATOM      1  N   UNL     1       0.677  12.089  19.581  0.00  0.00    +0.000 N 
ATOM      2  C   UNL     1       1.405  11.225  18.752  0.00  0.00    +0.000 C 
ATOM      3  O   UNL     1       2.298  11.500  17.971  0.00  0.00    +0.000 OA
ATOM      4  C   UNL     1       1.127   9.878  19.268  0.00  0.00    +0.000 A 
ATOM      5  C   UNL     1       1.936   8.776  19.091  0.00  0.00    +0.000 A 
ATOM      6  C   UNL     1       1.800   7.766  20.028  0.00  0.00    +0.000 A 
ATOM      7  C   UNL     1       0.895   7.909  21.101  0.00  0.00    +0.000 A 
ATOM      8  C   UNL     1       0.038   9.021  21.215  0.00  0.00    +0.000 A 
ATOM      9  C   UNL     1       0.125  10.008  20.257  0.00  0.00    +0.000 A 
ATOM     10  C   UNL     1      -0.535  11.339  19.991  0.00  0.00    +0.000 C 
ENDROOT
BRANCH  10  11
ATOM     11  C   UNL     1      -1.428  12.190  20.905  0.00  0.00    +0.000 A 
ATOM     12  C   UNL     1      -2.118  13.289  20.316  0.00  0.00    +0.000 A 
ATOM     13  C   UNL     1      -3.025  14.089  21.019  0.00  0.00    +0.000 A 
ATOM     14  C   UNL     1      -3.311  13.779  22.331  0.00  0.00    +0.000 A 
ATOM     15 CL   UNL     1      -4.452  14.720  23.211  0.00  0.00    +0.000 Cl
ATOM     16  C   UNL     1      -2.685  12.681  22.943  0.00  0.00    +0.000 A 
ATOM     17  C   UNL     1      -1.751  11.894  22.237  0.00  0.00    +0.000 A 
ENDBRANCH  10  11
BRANCH   1  18
ATOM     18  C   UNL     1       1.542  12.608  20.663  0.00  0.00    +0.000 C 
BRANCH  18  23
ATOM     19  C   UNL     1       1.213  18.329  20.164  0.00  0.00    +0.000 C 
ATOM     20  C   UNL     1       1.487  16.882  20.423  0.00  0.00    +0.000 A 
ATOM     21  C   UNL     1       0.860  16.237  21.497  0.00  0.00    +0.000 A 
ATOM     22  C   UNL     1       0.942  14.854  21.623  0.00  0.00    +0.000 A 
ATOM     23  C   UNL     1       1.637  14.103  20.667  0.00  0.00    +0.000 A 
ATOM     24  C   UNL     1       2.373  14.759  19.676  0.00  0.00    +0.000 A 
ATOM     25  C   UNL     1       2.294  16.141  19.552  0.00  0.00    +0.000 A 
ENDBRANCH  18  23
ENDBRANCH   1  18
BRANCH  10  26
ATOM     26  O   UNL     1      -1.316  11.244  18.778  0.00  0.00    +0.000 OA
BRANCH  26  27
ATOM     27  C   UNL     1      -2.202  10.146  18.529  0.00  0.00    +0.000 C 
ATOM     28  C   UNL     1      -3.615  10.595  18.342  0.00  0.00    +0.000 C 
ATOM     29  C   UNL     1      -3.819  10.985  17.073  0.00  0.00    +0.000 C 
ATOM     30  C   UNL     1      -2.588  10.789  16.253  0.00  0.00    +0.000 C 
ATOM     31  C   UNL     1      -1.879   9.713  17.086  0.00  0.00    +0.000 C 
BRANCH  30  32
ATOM     32  O   UNL     1      -1.856  12.003  16.229  0.00  0.00    +0.000 OA
ATOM     33  H   UNL     1      -2.173  12.547  16.983  0.00  0.00    +0.000 HD
ENDBRANCH  30  32
ENDBRANCH  26  27
ENDBRANCH  10  26
TORSDOF 6
ENDMDL
MODEL 3
REMARK VINA RESULT:      -6.2      1.148      1.651
REMARK  Name = 
REMARK  7 active torsions:
REMARK  status: ('A' for Active; 'I' for Inactive)
REMARK    1  A    between atoms: C_1  and  C_2
REMARK    2  A    between atoms: C_5  and  C_6
REMARK    3  A    between atoms: C_6  and  N_7
REMARK    4  A    between atoms: C_16  and  O_17
REMARK    5  A    between atoms: C_16  and  C_24
REMARK    6  A    between atoms: O_17  and  C_18
REMARK    7  A    between atoms: C_21  and  O_22
REMARK                            x       y       z     vdW  Elec       q    Type
REMARK                         _______ _______ _______ _____ _____    ______ ____
ROOT
ATOM      1  N   UNL     1       0.386  12.194  19.709  0.00  0.00    +0.000 N 
ATOM      2  C   UNL     1       1.188  11.361  18.916  0.00  0.00    +0.000 C 
ATOM      3  O   UNL     1       2.108  11.674  18.183  0.00  0.00    +0.000 OA
ATOM      4  C   UNL     1       0.936  10.003  19.415  0.00  0.00    +0.000 A 
ATOM      5  C   UNL     1       1.796   8.934  19.277  0.00  0.00    +0.000 A 
ATOM      6  C   UNL     1       1.652   7.916  20.204  0.00  0.00    +0.000 A 
ATOM      7  C   UNL     1       0.688   8.018  21.229  0.00  0.00    +0.000 A 
ATOM      8  C   UNL     1      -0.216   9.096  21.302  0.00  0.00    +0.000 A 
ATOM      9  C   UNL     1      -0.118  10.090  20.352  0.00  0.00    +0.000 A 
ATOM     10  C   UNL     1      -0.816  11.395  20.055  0.00  0.00    +0.000 C 
ENDROOT
BRANCH  10  11
ATOM     11  C   UNL     1      -1.787  12.207  20.924  0.00  0.00    +0.000 A 
ATOM     12  C   UNL     1      -1.873  11.871  22.307  0.00  0.00    +0.000 A 
ATOM     13  C   UNL     1      -2.655  12.586  23.220  0.00  0.00    +0.000 A 
ATOM     14  C   UNL     1      -3.339  13.701  22.785  0.00  0.00    +0.000 A 
ATOM     15 CL   UNL     1      -4.278  14.625  23.893  0.00  0.00    +0.000 Cl
ATOM     16  C   UNL     1      -3.252  14.094  21.439  0.00  0.00    +0.000 A 
ATOM     17  C   UNL     1      -2.484  13.353  20.517  0.00  0.00    +0.000 A 
ENDBRANCH  10  11
BRANCH   1  18
ATOM     18  C   UNL     1       1.173  12.741  20.835  0.00  0.00    +0.000 C 
BRANCH  18  23
ATOM     19  C   UNL     1       4.656  16.750  18.626  0.00  0.00    +0.000 C 
ATOM     20  C   UNL     1       3.718  15.857  19.374  0.00  0.00    +0.000 A 
ATOM     21  C   UNL     1       2.351  15.878  19.074  0.00  0.00    +0.000 A 
ATOM     22  C   UNL     1       1.505  14.913  19.611  0.00  0.00    +0.000 A 
ATOM     23  C   UNL     1       2.023  13.909  20.439  0.00  0.00    +0.000 A 
ATOM     24  C   UNL     1       3.359  13.971  20.844  0.00  0.00    +0.000 A 
ATOM     25  C   UNL     1       4.204  14.937  20.311  0.00  0.00    +0.000 A 
ENDBRANCH  18  23
ENDBRANCH   1  18
BRANCH  10  26
ATOM     26  O   UNL     1      -1.529  11.275  18.803  0.00  0.00    +0.000 OA
BRANCH  26  27
ATOM     27  C   UNL     1      -2.414  10.181  18.536  0.00  0.00    +0.000 C 
ATOM     28  C   UNL     1      -3.801  10.641  18.227  0.00  0.00    +0.000 C 
ATOM     29  C   UNL     1      -3.906  10.980  16.932  0.00  0.00    +0.000 C 
ATOM     30  C   UNL     1      -2.623  10.732  16.212  0.00  0.00    +0.000 C 
ATOM     31  C   UNL     1      -1.995   9.682  17.139  0.00  0.00    +0.000 C 
BRANCH  30  32
ATOM     32  O   UNL     1      -1.869  11.933  16.193  0.00  0.00    +0.000 OA
ATOM     33  H   UNL     1      -2.487  12.658  15.953  0.00  0.00    +0.000 HD
ENDBRANCH  30  32
ENDBRANCH  26  27
ENDBRANCH  10  26
TORSDOF 6
ENDMDL
MODEL 4
REMARK VINA RESULT:      -6.1      2.804      6.954
REMARK  Name = 
REMARK  7 active torsions:
REMARK  status: ('A' for Active; 'I' for Inactive)
REMARK    1  A    between atoms: C_1  and  C_2
REMARK    2  A    between atoms: C_5  and  C_6
REMARK    3  A    between atoms: C_6  and  N_7
REMARK    4  A    between atoms: C_16  and  O_17
REMARK    5  A    between atoms: C_16  and  C_24
REMARK    6  A    between atoms: O_17  and  C_18
REMARK    7  A    between atoms: C_21  and  O_22
REMARK                            x       y       z     vdW  Elec       q    Type
REMARK                         _______ _______ _______ _____ _____    ______ ____
ROOT
ATOM      1  N   UNL     1      -3.880  12.951  19.880  0.00  0.00    +0.000 N 
ATOM      2  C   UNL     1      -4.772  13.816  20.531  0.00  0.00    +0.000 C 
ATOM      3  O   UNL     1      -5.780  14.335  20.088  0.00  0.00    +0.000 OA
ATOM      4  C   UNL     1      -4.450  13.691  21.958  0.00  0.00    +0.000 A 
ATOM      5  C   UNL     1      -5.313  13.974  22.995  0.00  0.00    +0.000 A 
ATOM      6  C   UNL     1      -5.046  13.342  24.197  0.00  0.00    +0.000 A 
ATOM      7  C   UNL     1      -3.960  12.447  24.305  0.00  0.00    +0.000 A 
ATOM      8  C   UNL     1      -3.061  12.230  23.242  0.00  0.00    +0.000 A 
ATOM      9  C   UNL     1      -3.285  12.896  22.057  0.00  0.00    +0.000 A 
ATOM     10  C   UNL     1      -2.640  12.955  20.693  0.00  0.00    +0.000 C 
ENDROOT
BRANCH  10  11
ATOM     11  C   UNL     1      -1.571  12.043  20.074  0.00  0.00    +0.000 A 
ATOM     12  C   UNL     1      -1.044  12.413  18.803  0.00  0.00    +0.000 A 
ATOM     13  C   UNL     1      -0.010  11.715  18.172  0.00  0.00    +0.000 A 
ATOM     14  C   UNL     1       0.570  10.646  18.822  0.00  0.00    +0.000 A 
ATOM     15 CL   UNL     1       1.872   9.792  18.088  0.00  0.00    +0.000 Cl
ATOM     16  C   UNL     1       0.111  10.269  20.094  0.00  0.00    +0.000 A 
ATOM     17  C   UNL     1      -0.952  10.960  20.715  0.00  0.00    +0.000 A 
ENDBRANCH  10  11
BRANCH   1  18
ATOM     18  C   UNL     1      -4.522  11.640  19.643  0.00  0.00    +0.000 C 
BRANCH  18  23
ATOM     19  C   UNL     1      -2.856  10.097  14.358  0.00  0.00    +0.000 C 
ATOM     20  C   UNL     1      -3.473  10.362  15.695  0.00  0.00    +0.000 A 
ATOM     21  C   UNL     1      -3.101   9.586  16.799  0.00  0.00    +0.000 A 
ATOM     22  C   UNL     1      -3.506   9.953  18.078  0.00  0.00    +0.000 A 
ATOM     23  C   UNL     1      -4.273  11.110  18.264  0.00  0.00    +0.000 A 
ATOM     24  C   UNL     1      -4.755  11.805  17.152  0.00  0.00    +0.000 A 
ATOM     25  C   UNL     1      -4.353  11.436  15.873  0.00  0.00    +0.000 A 
ENDBRANCH  18  23
ENDBRANCH   1  18
BRANCH  10  26
ATOM     26  O   UNL     1      -2.090  14.277  20.488  0.00  0.00    +0.000 OA
BRANCH  26  27
ATOM     27  C   UNL     1      -1.176  14.872  21.417  0.00  0.00    +0.000 C 
ATOM     28  C   UNL     1       0.109  15.268  20.767  0.00  0.00    +0.000 C 
ATOM     29  C   UNL     1      -0.011  16.473  20.186  0.00  0.00    +0.000 C 
ATOM     30  C   UNL     1      -1.366  17.048  20.430  0.00  0.00    +0.000 C 
ATOM     31  C   UNL     1      -1.764  16.269  21.692  0.00  0.00    +0.000 C 
BRANCH  30  32
ATOM     32  O   UNL     1      -2.203  16.728  19.331  0.00  0.00    +0.000 OA
ATOM     33  H   UNL     1      -3.114  16.623  19.682  0.00  0.00    +0.000 HD
ENDBRANCH  30  32
ENDBRANCH  26  27
ENDBRANCH  10  26
TORSDOF 6
ENDMDL
MODEL 5
REMARK VINA RESULT:      -6.0      3.143      7.004
REMARK  Name = 
REMARK  7 active torsions:
REMARK  status: ('A' for Active; 'I' for Inactive)
REMARK    1  A    between atoms: C_1  and  C_2
REMARK    2  A    between atoms: C_5  and  C_6
REMARK    3  A    between atoms: C_6  and  N_7
REMARK    4  A    between atoms: C_16  and  O_17
REMARK    5  A    between atoms: C_16  and  C_24
REMARK    6  A    between atoms: O_17  and  C_18
REMARK    7  A    between atoms: C_21  and  O_22
REMARK                            x       y       z     vdW  Elec       q    Type
REMARK                         _______ _______ _______ _____ _____    ______ ____
ROOT
ATOM      1  N   UNL     1      -4.006  13.091  20.021  0.00  0.00    +0.000 N 
ATOM      2  C   UNL     1      -5.186  13.499  20.658  0.00  0.00    +0.000 C 
ATOM      3  O   UNL     1      -6.299  13.622  20.181  0.00  0.00    +0.000 OA
ATOM      4  C   UNL     1      -4.894  13.407  22.095  0.00  0.00    +0.000 A 
ATOM      5  C   UNL     1      -5.838  13.264  23.089  0.00  0.00    +0.000 A 
ATOM      6  C   UNL     1      -5.392  12.700  24.272  0.00  0.00    +0.000 A 
ATOM      7  C   UNL     1      -4.049  12.285  24.401  0.00  0.00    +0.000 A 
ATOM      8  C   UNL     1      -3.097  12.506  23.386  0.00  0.00    +0.000 A 
ATOM      9  C   UNL     1      -3.517  13.116  22.224  0.00  0.00    +0.000 A 
ATOM     10  C   UNL     1      -2.895  13.514  20.908  0.00  0.00    +0.000 C 
ENDROOT
BRANCH  10  11
ATOM     11  C   UNL     1      -1.534  13.128  20.311  0.00  0.00    +0.000 A 
ATOM     12  C   UNL     1      -1.105  13.822  19.143  0.00  0.00    +0.000 A 
ATOM     13  C   UNL     1       0.147  13.624  18.551  0.00  0.00    +0.000 A 
ATOM     14  C   UNL     1       1.037  12.755  19.146  0.00  0.00    +0.000 A 
ATOM     15 CL   UNL     1       2.600  12.520  18.464  0.00  0.00    +0.000 Cl
ATOM     16  C   UNL     1       0.674  12.078  20.322  0.00  0.00    +0.000 A 
ATOM     17  C   UNL     1      -0.601  12.261  20.898  0.00  0.00    +0.000 A 
ENDBRANCH  10  11
BRANCH   1  18
ATOM     18  C   UNL     1      -4.080  11.654  19.679  0.00  0.00    +0.000 C 
BRANCH  18  23
ATOM     19  C   UNL     1      -2.988   9.833  14.333  0.00  0.00    +0.000 C 
ATOM     20  C   UNL     1      -3.139  10.488  15.669  0.00  0.00    +0.000 A 
ATOM     21  C   UNL     1      -4.230  11.332  15.911  0.00  0.00    +0.000 A 
ATOM     22  C   UNL     1      -4.494  11.778  17.201  0.00  0.00    +0.000 A 
ATOM     23  C   UNL     1      -3.678  11.370  18.264  0.00  0.00    +0.000 A 
ATOM     24  C   UNL     1      -2.515  10.642  18.001  0.00  0.00    +0.000 A 
ATOM     25  C   UNL     1      -2.249  10.199  16.710  0.00  0.00    +0.000 A 
ENDBRANCH  18  23
ENDBRANCH   1  18
BRANCH  10  26
ATOM     26  O   UNL     1      -2.892  14.956  20.804  0.00  0.00    +0.000 OA
BRANCH  26  27
ATOM     27  C   UNL     1      -2.542  15.797  21.910  0.00  0.00    +0.000 C 
ATOM     28  C   UNL     1      -1.117  16.243  21.849  0.00  0.00    +0.000 C 
ATOM     29  C   UNL     1      -0.996  17.318  21.055  0.00  0.00    +0.000 C 
ATOM     30  C   UNL     1      -2.328  17.752  20.541  0.00  0.00    +0.000 C 
ATOM     31  C   UNL     1      -3.241  17.136  21.610  0.00  0.00    +0.000 C 
BRANCH  30  32
ATOM     32  O   UNL     1      -2.540  17.165  19.268  0.00  0.00    +0.000 OA
ATOM     33  H   UNL     1      -3.511  17.120  19.129  0.00  0.00    +0.000 HD
ENDBRANCH  30  32
ENDBRANCH  26  27
ENDBRANCH  10  26
TORSDOF 6
ENDMDL
MODEL 6
REMARK VINA RESULT:      -5.9      1.279      1.690
REMARK  Name = 
REMARK  7 active torsions:
REMARK  status: ('A' for Active; 'I' for Inactive)
REMARK    1  A    between atoms: C_1  and  C_2
REMARK    2  A    between atoms: C_5  and  C_6
REMARK    3  A    between atoms: C_6  and  N_7
REMARK    4  A    between atoms: C_16  and  O_17
REMARK    5  A    between atoms: C_16  and  C_24
REMARK    6  A    between atoms: O_17  and  C_18
REMARK    7  A    between atoms: C_21  and  O_22
REMARK                            x       y       z     vdW  Elec       q    Type
REMARK                         _______ _______ _______ _____ _____    ______ ____
ROOT
ATOM      1  N   UNL     1       0.827  11.908  19.004  0.00  0.00    +0.000 N 
ATOM      2  C   UNL     1       1.380  10.765  18.409  0.00  0.00    +0.000 C 
ATOM      3  O   UNL     1       2.227  10.701  17.538  0.00  0.00    +0.000 OA
ATOM      4  C   UNL     1       0.999   9.655  19.292  0.00  0.00    +0.000 A 
ATOM      5  C   UNL     1       1.661   8.449  19.384  0.00  0.00    +0.000 A 
ATOM      6  C   UNL     1       1.495   7.755  20.570  0.00  0.00    +0.000 A 
ATOM      7  C   UNL     1       0.707   8.297  21.608  0.00  0.00    +0.000 A 
ATOM      8  C   UNL     1      -0.008   9.501  21.454  0.00  0.00    +0.000 A 
ATOM      9  C   UNL     1       0.107  10.175  20.257  0.00  0.00    +0.000 A 
ATOM     10  C   UNL     1      -0.422  11.460  19.668  0.00  0.00    +0.000 C 
ENDROOT
BRANCH  10  11
ATOM     11  C   UNL     1      -1.133  12.634  20.356  0.00  0.00    +0.000 A 
ATOM     12  C   UNL     1      -1.357  12.539  21.760  0.00  0.00    +0.000 A 
ATOM     13  C   UNL     1      -1.917  13.572  22.517  0.00  0.00    +0.000 A 
ATOM     14  C   UNL     1      -2.225  14.764  21.897  0.00  0.00    +0.000 A 
ATOM     15 CL   UNL     1      -2.879  16.069  22.810  0.00  0.00    +0.000 Cl
ATOM     16  C   UNL     1      -1.985  14.919  20.522  0.00  0.00    +0.000 A 
ATOM     17  C   UNL     1      -1.445  13.863  19.757  0.00  0.00    +0.000 A 
ENDBRANCH  10  11
BRANCH   1  18
ATOM     18  C   UNL     1       1.834  12.580  19.853  0.00  0.00    +0.000 C 
BRANCH  18  23
ATOM     19  C   UNL     1       2.835  17.585  17.201  0.00  0.00    +0.000 C 
ATOM     20  C   UNL     1       2.762  16.334  18.018  0.00  0.00    +0.000 A 
ATOM     21  C   UNL     1       1.963  16.300  19.168  0.00  0.00    +0.000 A 
ATOM     22  C   UNL     1       1.723  15.093  19.814  0.00  0.00    +0.000 A 
ATOM     23  C   UNL     1       2.266  13.906  19.306  0.00  0.00    +0.000 A 
ATOM     24  C   UNL     1       3.170  13.961  18.242  0.00  0.00    +0.000 A 
ATOM     25  C   UNL     1       3.413  15.169  17.598  0.00  0.00    +0.000 A 
ENDBRANCH  18  23
ENDBRANCH   1  18
BRANCH  10  26
ATOM     26  O   UNL     1      -1.309  11.146  18.570  0.00  0.00    +0.000 OA
BRANCH  26  27
ATOM     27  C   UNL     1      -2.546  10.450  18.769  0.00  0.00    +0.000 C 
ATOM     28  C   UNL     1      -3.726  11.362  18.681  0.00  0.00    +0.000 C 
ATOM     29  C   UNL     1      -4.087  11.539  17.399  0.00  0.00    +0.000 C 
ATOM     30  C   UNL     1      -3.231  10.724  16.489  0.00  0.00    +0.000 C 
ATOM     31  C   UNL     1      -2.746   9.647  17.470  0.00  0.00    +0.000 C 
BRANCH  30  32
ATOM     32  O   UNL     1      -2.161  11.529  16.023  0.00  0.00    +0.000 OA
ATOM     33  H   UNL     1      -2.472  11.979  15.207  0.00  0.00    +0.000 HD
ENDBRANCH  30  32
ENDBRANCH  26  27
ENDBRANCH  10  26
TORSDOF 6
ENDMDL
MODEL 7
REMARK VINA RESULT:      -5.9      1.593      2.122
REMARK  Name = 
REMARK  7 active torsions:
REMARK  status: ('A' for Active; 'I' for Inactive)
REMARK    1  A    between atoms: C_1  and  C_2
REMARK    2  A    between atoms: C_5  and  C_6
REMARK    3  A    between atoms: C_6  and  N_7
REMARK    4  A    between atoms: C_16  and  O_17
REMARK    5  A    between atoms: C_16  and  C_24
REMARK    6  A    between atoms: O_17  and  C_18
REMARK    7  A    between atoms: C_21  and  O_22
REMARK                            x       y       z     vdW  Elec       q    Type
REMARK                         _______ _______ _______ _____ _____    ______ ____
ROOT
ATOM      1  N   UNL     1      -0.714  13.285  19.794  0.00  0.00    +0.000 N 
ATOM      2  C   UNL     1       0.139  12.709  18.842  0.00  0.00    +0.000 C 
ATOM      3  O   UNL     1       0.921  13.265  18.093  0.00  0.00    +0.000 OA
ATOM      4  C   UNL     1       0.166  11.278  19.172  0.00  0.00    +0.000 A 
ATOM      5  C   UNL     1       1.176  10.403  18.831  0.00  0.00    +0.000 A 
ATOM      6  C   UNL     1       1.292   9.273  19.622  0.00  0.00    +0.000 A 
ATOM      7  C   UNL     1       0.425   9.079  20.718  0.00  0.00    +0.000 A 
ATOM      8  C   UNL     1      -0.637   9.963  20.998  0.00  0.00    +0.000 A 
ATOM      9  C   UNL     1      -0.796  11.063  20.184  0.00  0.00    +0.000 A 
ATOM     10  C   UNL     1      -1.727  12.250  20.115  0.00  0.00    +0.000 C 
ENDROOT
BRANCH  10  11
ATOM     11  C   UNL     1      -2.735  12.767  21.152  0.00  0.00    +0.000 A 
ATOM     12  C   UNL     1      -3.678  13.745  20.723  0.00  0.00    +0.000 A 
ATOM     13  C   UNL     1      -4.699  14.234  21.545  0.00  0.00    +0.000 A 
ATOM     14  C   UNL     1      -4.841  13.716  22.814  0.00  0.00    +0.000 A 
ATOM     15 CL   UNL     1      -6.113  14.269  23.835  0.00  0.00    +0.000 Cl
ATOM     16  C   UNL     1      -3.959  12.721  23.266  0.00  0.00    +0.000 A 
ATOM     17  C   UNL     1      -2.914  12.251  22.443  0.00  0.00    +0.000 A 
ENDBRANCH  10  11
BRANCH   1  18
ATOM     18  C   UNL     1       0.072  13.826  20.924  0.00  0.00    +0.000 C 
BRANCH  18  23
ATOM     19  C   UNL     1      -3.042  18.106  23.174  0.00  0.00    +0.000 C 
ATOM     20  C   UNL     1      -2.051  17.135  22.616  0.00  0.00    +0.000 A 
ATOM     21  C   UNL     1      -1.461  16.183  23.457  0.00  0.00    +0.000 A 
ATOM     22  C   UNL     1      -0.703  15.150  22.917  0.00  0.00    +0.000 A 
ATOM     23  C   UNL     1      -0.543  15.050  21.529  0.00  0.00    +0.000 A 
ATOM     24  C   UNL     1      -1.017  16.074  20.705  0.00  0.00    +0.000 A 
ATOM     25  C   UNL     1      -1.772  17.109  21.245  0.00  0.00    +0.000 A 
ENDBRANCH  18  23
ENDBRANCH   1  18
BRANCH  10  26
ATOM     26  O   UNL     1      -2.524  12.154  18.913  0.00  0.00    +0.000 OA
BRANCH  26  27
ATOM     27  C   UNL     1      -3.546  11.163  18.756  0.00  0.00    +0.000 C 
ATOM     28  C   UNL     1      -4.675  11.647  17.905  0.00  0.00    +0.000 C 
ATOM     29  C   UNL     1      -4.384  11.485  16.604  0.00  0.00    +0.000 C 
ATOM     30  C   UNL     1      -3.059  10.822  16.434  0.00  0.00    +0.000 C 
ATOM     31  C   UNL     1      -2.931  10.126  17.797  0.00  0.00    +0.000 C 
BRANCH  30  32
ATOM     32  O   UNL     1      -2.067  11.820  16.259  0.00  0.00    +0.000 OA
ATOM     33  H   UNL     1      -1.245  11.364  15.975  0.00  0.00    +0.000 HD
ENDBRANCH  30  32
ENDBRANCH  26  27
ENDBRANCH  10  26
TORSDOF 6
ENDMDL
MODEL 8
REMARK VINA RESULT:      -5.9      1.968      2.903
REMARK  Name = 
REMARK  7 active torsions:
REMARK  status: ('A' for Active; 'I' for Inactive)
REMARK    1  A    between atoms: C_1  and  C_2
REMARK    2  A    between atoms: C_5  and  C_6
REMARK    3  A    between atoms: C_6  and  N_7
REMARK    4  A    between atoms: C_16  and  O_17
REMARK    5  A    between atoms: C_16  and  C_24
REMARK    6  A    between atoms: O_17  and  C_18
REMARK    7  A    between atoms: C_21  and  O_22
REMARK                            x       y       z     vdW  Elec       q    Type
REMARK                         _______ _______ _______ _____ _____    ______ ____
ROOT
ATOM      1  N   UNL     1       0.850  11.867  19.456  0.00  0.00    +0.000 N 
ATOM      2  C   UNL     1       0.857  10.466  19.494  0.00  0.00    +0.000 C 
ATOM      3  O   UNL     1       1.619   9.699  18.935  0.00  0.00    +0.000 OA
ATOM      4  C   UNL     1      -0.011  10.112  20.625  0.00  0.00    +0.000 A 
ATOM      5  C   UNL     1       0.041   8.926  21.325  0.00  0.00    +0.000 A 
ATOM      6  C   UNL     1      -0.460   8.961  22.615  0.00  0.00    +0.000 A 
ATOM      7  C   UNL     1      -0.962  10.166  23.152  0.00  0.00    +0.000 A 
ATOM      8  C   UNL     1      -1.059  11.343  22.384  0.00  0.00    +0.000 A 
ATOM      9  C   UNL     1      -0.613  11.306  21.081  0.00  0.00    +0.000 A 
ATOM     10  C   UNL     1      -0.491  12.283  19.936  0.00  0.00    +0.000 C 
ENDROOT
BRANCH  10  11
ATOM     11  C   UNL     1      -0.629  13.812  19.933  0.00  0.00    +0.000 A 
ATOM     12  C   UNL     1      -0.447  14.489  18.692  0.00  0.00    +0.000 A 
ATOM     13  C   UNL     1      -0.627  15.867  18.539  0.00  0.00    +0.000 A 
ATOM     14  C   UNL     1      -1.050  16.610  19.619  0.00  0.00    +0.000 A 
ATOM     15 CL   UNL     1      -1.320  18.302  19.452  0.00  0.00    +0.000 Cl
ATOM     16  C   UNL     1      -1.282  15.980  20.853  0.00  0.00    +0.000 A 
ATOM     17  C   UNL     1      -1.072  14.594  21.010  0.00  0.00    +0.000 A 
ENDBRANCH  10  11
BRANCH   1  18
ATOM     18  C   UNL     1       2.019  12.405  20.185  0.00  0.00    +0.000 C 
BRANCH  18  23
ATOM     19  C   UNL     1       3.443  17.267  17.462  0.00  0.00    +0.000 C 
ATOM     20  C   UNL     1       3.300  15.980  18.210  0.00  0.00    +0.000 A 
ATOM     21  C   UNL     1       3.038  16.000  19.586  0.00  0.00    +0.000 A 
ATOM     22  C   UNL     1       2.698  14.826  20.248  0.00  0.00    +0.000 A 
ATOM     23  C   UNL     1       2.601  13.623  19.537  0.00  0.00    +0.000 A 
ATOM     24  C   UNL     1       2.994  13.581  18.197  0.00  0.00    +0.000 A 
ATOM     25  C   UNL     1       3.337  14.754  17.535  0.00  0.00    +0.000 A 
ENDBRANCH  18  23
ENDBRANCH   1  18
BRANCH  10  26
ATOM     26  O   UNL     1      -1.385  11.878  18.874  0.00  0.00    +0.000 OA
BRANCH  26  27
ATOM     27  C   UNL     1      -2.571  11.116  19.128  0.00  0.00    +0.000 C 
ATOM     28  C   UNL     1      -3.812  11.880  18.801  0.00  0.00    +0.000 C 
ATOM     29  C   UNL     1      -4.090  11.785  17.491  0.00  0.00    +0.000 C 
ATOM     30  C   UNL     1      -3.104  10.902  16.801  0.00  0.00    +0.000 C 
ATOM     31  C   UNL     1      -2.607  10.073  17.994  0.00  0.00    +0.000 C 
BRANCH  30  32
ATOM     32  O   UNL     1      -2.073  11.707  16.255  0.00  0.00    +0.000 OA
ATOM     33  H   UNL     1      -2.485  12.551  15.969  0.00  0.00    +0.000 HD
ENDBRANCH  30  32
ENDBRANCH  26  27
ENDBRANCH  10  26
TORSDOF 6
ENDMDL
MODEL 9
REMARK VINA RESULT:      -5.8      3.212      7.259
REMARK  Name = 
REMARK  7 active torsions:
REMARK  status: ('A' for Active; 'I' for Inactive)
REMARK    1  A    between atoms: C_1  and  C_2
REMARK    2  A    between atoms: C_5  and  C_6
REMARK    3  A    between atoms: C_6  and  N_7
REMARK    4  A    between atoms: C_16  and  O_17
REMARK    5  A    between atoms: C_16  and  C_24
REMARK    6  A    between atoms: O_17  and  C_18
REMARK    7  A    between atoms: C_21  and  O_22
REMARK                            x       y       z     vdW  Elec       q    Type
REMARK                         _______ _______ _______ _____ _____    ______ ____
ROOT
ATOM      1  N   UNL     1      -3.973  13.362  20.514  0.00  0.00    +0.000 N 
ATOM      2  C   UNL     1      -5.077  14.225  20.545  0.00  0.00    +0.000 C 
ATOM      3  O   UNL     1      -5.695  14.696  19.608  0.00  0.00    +0.000 OA
ATOM      4  C   UNL     1      -5.566  14.166  21.929  0.00  0.00    +0.000 A 
ATOM      5  C   UNL     1      -6.851  14.465  22.331  0.00  0.00    +0.000 A 
ATOM      6  C   UNL     1      -7.263  13.890  23.521  0.00  0.00    +0.000 A 
ATOM      7  C   UNL     1      -6.399  13.033  24.234  0.00  0.00    +0.000 A 
ATOM      8  C   UNL     1      -5.070  12.801  23.826  0.00  0.00    +0.000 A 
ATOM      9  C   UNL     1      -4.630  13.412  22.672  0.00  0.00    +0.000 A 
ATOM     10  C   UNL     1      -3.357  13.436  21.861  0.00  0.00    +0.000 C 
ENDROOT
BRANCH  10  11
ATOM     11  C   UNL     1      -2.119  12.532  21.953  0.00  0.00    +0.000 A 
ATOM     12  C   UNL     1      -2.093  11.553  22.989  0.00  0.00    +0.000 A 
ATOM     13  C   UNL     1      -1.065  10.616  23.129  0.00  0.00    +0.000 A 
ATOM     14  C   UNL     1      -0.048  10.594  22.198  0.00  0.00    +0.000 A 
ATOM     15 CL   UNL     1       1.211   9.427  22.321  0.00  0.00    +0.000 Cl
ATOM     16  C   UNL     1      -0.052  11.514  21.137  0.00  0.00    +0.000 A 
ATOM     17  C   UNL     1      -1.078  12.476  21.016  0.00  0.00    +0.000 A 
ENDBRANCH  10  11
BRANCH   1  18
ATOM     18  C   UNL     1      -4.383  12.023  20.037  0.00  0.00    +0.000 C 
BRANCH  18  23
ATOM     19  C   UNL     1      -2.953  10.141  14.794  0.00  0.00    +0.000 C 
ATOM     20  C   UNL     1      -3.240  10.834  16.087  0.00  0.00    +0.000 A 
ATOM     21  C   UNL     1      -4.497  11.411  16.304  0.00  0.00    +0.000 A 
ATOM     22  C   UNL     1      -4.844  11.872  17.569  0.00  0.00    +0.000 A 
ATOM     23  C   UNL     1      -3.942  11.744  18.633  0.00  0.00    +0.000 A 
ATOM     24  C   UNL     1      -2.643  11.294  18.385  0.00  0.00    +0.000 A 
ATOM     25  C   UNL     1      -2.294  10.837  17.120  0.00  0.00    +0.000 A 
ENDBRANCH  18  23
ENDBRANCH   1  18
BRANCH  10  26
ATOM     26  O   UNL     1      -2.789  14.764  21.915  0.00  0.00    +0.000 OA
BRANCH  26  27
ATOM     27  C   UNL     1      -2.344  15.351  23.144  0.00  0.00    +0.000 C 
ATOM     28  C   UNL     1      -0.924  15.812  23.066  0.00  0.00    +0.000 C 
ATOM     29  C   UNL     1      -0.858  17.034  22.514  0.00  0.00    +0.000 C 
ATOM     30  C   UNL     1      -2.223  17.556  22.213  0.00  0.00    +0.000 C 
ATOM     31  C   UNL     1      -3.053  16.718  23.195  0.00  0.00    +0.000 C 
BRANCH  30  32
ATOM     32  O   UNL     1      -2.541  17.254  20.865  0.00  0.00    +0.000 OA
ATOM     33  H   UNL     1      -3.502  17.052  20.833  0.00  0.00    +0.000 HD
ENDBRANCH  30  32
ENDBRANCH  26  27
ENDBRANCH  10  26
TORSDOF 6
ENDMDL
