MODEL 1
REMARK VINA RESULT:      -8.1      0.000      0.000
REMARK  Name = 
REMARK  5 active torsions:
REMARK  status: ('A' for Active; 'I' for Inactive)
REMARK    1  A    between atoms: C_1  and  C_2
REMARK    2  A    between atoms: C_5  and  S_6
REMARK    3  A    between atoms: S_6  and  C_9
REMARK    4  A    between atoms: C_11  and  C_12
REMARK    5  A    between atoms: C_20  and  N_21
REMARK                            x       y       z     vdW  Elec       q    Type
REMARK                         _______ _______ _______ _____ _____    ______ ____
ROOT
ATOM      1  C   UNL     1       4.574   6.092  18.251  0.00  0.00    +0.000 A 
ATOM      2  N   UNL     1       4.120   7.414  18.280  0.00  0.00    +0.000 NA
ATOM      3  C   UNL     1       2.863   7.304  18.652  0.00  0.00    +0.000 A 
ATOM      4  O   UNL     1       2.469   6.024  18.881  0.00  0.00    +0.000 OA
ATOM      5  C   UNL     1       3.557   5.224  18.622  0.00  0.00    +0.000 A 
ENDROOT
BRANCH   3   6
ATOM      6  C   UNL     1       1.853   8.342  18.827  0.00  0.00    +0.000 A 
ATOM      7  C   UNL     1       1.395   9.067  17.714  0.00  0.00    +0.000 A 
ATOM      8  C   UNL     1       0.391  10.032  17.849  0.00  0.00    +0.000 A 
ATOM      9  C   UNL     1      -0.169  10.289  19.098  0.00  0.00    +0.000 A 
ATOM     10  C   UNL     1       0.285   9.593  20.215  0.00  0.00    +0.000 A 
ATOM     11  C   UNL     1       1.287   8.634  20.074  0.00  0.00    +0.000 A 
ATOM     12  F   UNL     1       1.680   7.988  21.185  0.00  0.00    +0.000 F 
ENDBRANCH   3   6
BRANCH   5  13
ATOM     13  N   UNL     1       3.350   3.893  18.815  0.00  0.00    +0.000 N 
ATOM     14  C   UNL     1       3.657   3.258  20.103  0.00  0.00    +0.000 C 
ATOM     15  C   UNL     1       4.395   1.943  19.849  0.00  0.00    +0.000 C 
ATOM     16  C   UNL     1       3.635   1.036  18.882  0.00  0.00    +0.000 C 
ATOM     17  C   UNL     1       3.227   1.783  17.615  0.00  0.00    +0.000 C 
ATOM     18  C   UNL     1       2.502   3.083  17.946  0.00  0.00    +0.000 C 
ENDBRANCH   5  13
BRANCH   1  19
ATOM     19  S   UNL     1       6.201   5.710  17.832  0.00  0.00    +0.000 S 
ATOM     20  O   UNL     1       6.593   4.632  18.722  0.00  0.00    +0.000 OA
ATOM     21  O   UNL     1       6.906   6.975  17.796  0.00  0.00    +0.000 OA
BRANCH  19  26
ATOM     22  C   UNL     1       6.111   3.406  12.224  0.00  0.00    +0.000 C 
ATOM     23  C   UNL     1       6.117   4.004  13.601  0.00  0.00    +0.000 A 
ATOM     24  C   UNL     1       7.253   4.667  14.081  0.00  0.00    +0.000 A 
ATOM     25  C   UNL     1       7.268   5.187  15.373  0.00  0.00    +0.000 A 
ATOM     26  C   UNL     1       6.147   5.036  16.193  0.00  0.00    +0.000 A 
ATOM     27  C   UNL     1       4.992   4.409  15.718  0.00  0.00    +0.000 A 
ATOM     28  C   UNL     1       4.986   3.890  14.423  0.00  0.00    +0.000 A 
ENDBRANCH  19  26
ENDBRANCH   1  19
TORSDOF 4
ENDMDL
MODEL 2
REMARK VINA RESULT:      -7.9      0.632      1.136
REMARK  Name = 
REMARK  5 active torsions:
REMARK  status: ('A' for Active; 'I' for Inactive)
REMARK    1  A    between atoms: C_1  and  C_2
REMARK    2  A    between atoms: C_5  and  S_6
REMARK    3  A    between atoms: S_6  and  C_9
REMARK    4  A    between atoms: C_11  and  C_12
REMARK    5  A    between atoms: C_20  and  N_21
REMARK                            x       y       z     vdW  Elec       q    Type
REMARK                         _______ _______ _______ _____ _____    ______ ____
ROOT
ATOM      1  C   UNL     1       4.735   6.458  17.762  0.00  0.00    +0.000 A 
ATOM      2  N   UNL     1       4.173   7.730  17.899  0.00  0.00    +0.000 NA
ATOM      3  C   UNL     1       2.966   7.491  18.365  0.00  0.00    +0.000 A 
ATOM      4  O   UNL     1       2.704   6.171  18.556  0.00  0.00    +0.000 OA
ATOM      5  C   UNL     1       3.830   5.485  18.166  0.00  0.00    +0.000 A 
ENDROOT
BRANCH   3   6
ATOM      6  C   UNL     1       1.889   8.424  18.677  0.00  0.00    +0.000 A 
ATOM      7  C   UNL     1       1.255   9.131  17.642  0.00  0.00    +0.000 A 
ATOM      8  C   UNL     1       0.187   9.993  17.912  0.00  0.00    +0.000 A 
ATOM      9  C   UNL     1      -0.262  10.164  19.220  0.00  0.00    +0.000 A 
ATOM     10  C   UNL     1       0.367   9.486  20.260  0.00  0.00    +0.000 A 
ATOM     11  C   UNL     1       1.432   8.629  19.985  0.00  0.00    +0.000 A 
ATOM     12  F   UNL     1       1.995   7.994  21.027  0.00  0.00    +0.000 F 
ENDBRANCH   3   6
BRANCH   5  13
ATOM     13  N   UNL     1       3.756   4.133  18.303  0.00  0.00    +0.000 N 
ATOM     14  C   UNL     1       3.031   3.311  17.327  0.00  0.00    +0.000 C 
ATOM     15  C   UNL     1       2.174   2.288  18.073  0.00  0.00    +0.000 C 
ATOM     16  C   UNL     1       2.993   1.473  19.073  0.00  0.00    +0.000 C 
ATOM     17  C   UNL     1       3.829   2.374  19.980  0.00  0.00    +0.000 C 
ATOM     18  C   UNL     1       4.652   3.369  19.167  0.00  0.00    +0.000 C 
ENDBRANCH   5  13
BRANCH   1  19
ATOM     19  S   UNL     1       6.346   6.243  17.192  0.00  0.00    +0.000 S 
ATOM     20  O   UNL     1       6.994   5.379  18.161  0.00  0.00    +0.000 OA
ATOM     21  O   UNL     1       6.838   7.573  16.894  0.00  0.00    +0.000 OA
BRANCH  19  26
ATOM     22  C   UNL     1       6.012   3.090  12.024  0.00  0.00    +0.000 C 
ATOM     23  C   UNL     1       6.084   3.898  13.287  0.00  0.00    +0.000 A 
ATOM     24  C   UNL     1       7.305   4.430  13.720  0.00  0.00    +0.000 A 
ATOM     25  C   UNL     1       7.374   5.147  14.912  0.00  0.00    +0.000 A 
ATOM     26  C   UNL     1       6.222   5.326  15.680  0.00  0.00    +0.000 A 
ATOM     27  C   UNL     1       4.988   4.833  15.246  0.00  0.00    +0.000 A 
ATOM     28  C   UNL     1       4.928   4.114  14.050  0.00  0.00    +0.000 A 
ENDBRANCH  19  26
ENDBRANCH   1  19
TORSDOF 4
ENDMDL
MODEL 3
REMARK VINA RESULT:      -7.8      0.939      1.400
REMARK  Name = 
REMARK  5 active torsions:
REMARK  status: ('A' for Active; 'I' for Inactive)
REMARK    1  A    between atoms: C_1  and  C_2
REMARK    2  A    between atoms: C_5  and  S_6
REMARK    3  A    between atoms: S_6  and  C_9
REMARK    4  A    between atoms: C_11  and  C_12
REMARK    5  A    between atoms: C_20  and  N_21
REMARK                            x       y       z     vdW  Elec       q    Type
REMARK                         _______ _______ _______ _____ _____    ______ ____
ROOT
ATOM      1  C   UNL     1       4.332   5.802  18.703  0.00  0.00    +0.000 A 
ATOM      2  N   UNL     1       4.085   7.176  18.632  0.00  0.00    +0.000 NA
ATOM      3  C   UNL     1       2.804   7.278  18.909  0.00  0.00    +0.000 A 
ATOM      4  O   UNL     1       2.202   6.087  19.169  0.00  0.00    +0.000 OA
ATOM      5  C   UNL     1       3.170   5.120  19.035  0.00  0.00    +0.000 A 
ENDROOT
BRANCH   3   6
ATOM      6  C   UNL     1       1.955   8.464  18.954  0.00  0.00    +0.000 A 
ATOM      7  C   UNL     1       1.797   9.254  17.804  0.00  0.00    +0.000 A 
ATOM      8  C   UNL     1       0.949  10.367  17.808  0.00  0.00    +0.000 A 
ATOM      9  C   UNL     1       0.248  10.708  18.962  0.00  0.00    +0.000 A 
ATOM     10  C   UNL     1       0.406   9.947  20.117  0.00  0.00    +0.000 A 
ATOM     11  C   UNL     1       1.253   8.840  20.107  0.00  0.00    +0.000 A 
ATOM     12  F   UNL     1       1.360   8.138  21.247  0.00  0.00    +0.000 F 
ENDBRANCH   3   6
BRANCH   5  13
ATOM     13  N   UNL     1       2.748   3.848  19.277  0.00  0.00    +0.000 N 
ATOM     14  C   UNL     1       2.391   2.946  18.174  0.00  0.00    +0.000 C 
ATOM     15  C   UNL     1       1.087   2.225  18.522  0.00  0.00    +0.000 C 
ATOM     16  C   UNL     1       1.159   1.534  19.882  0.00  0.00    +0.000 C 
ATOM     17  C   UNL     1       1.660   2.483  20.968  0.00  0.00    +0.000 C 
ATOM     18  C   UNL     1       2.958   3.167  20.551  0.00  0.00    +0.000 C 
ENDBRANCH   5  13
BRANCH   1  19
ATOM     19  S   UNL     1       5.906   5.157  18.431  0.00  0.00    +0.000 S 
ATOM     20  O   UNL     1       5.953   3.911  19.175  0.00  0.00    +0.000 OA
ATOM     21  O   UNL     1       6.827   6.244  18.690  0.00  0.00    +0.000 OA
BRANCH  19  26
ATOM     22  C   UNL     1       6.258   3.729  12.549  0.00  0.00    +0.000 C 
ATOM     23  C   UNL     1       6.153   4.110  13.997  0.00  0.00    +0.000 A 
ATOM     24  C   UNL     1       7.208   4.776  14.634  0.00  0.00    +0.000 A 
ATOM     25  C   UNL     1       7.122   5.093  15.987  0.00  0.00    +0.000 A 
ATOM     26  C   UNL     1       5.981   4.737  16.711  0.00  0.00    +0.000 A 
ATOM     27  C   UNL     1       4.905   4.105  16.084  0.00  0.00    +0.000 A 
ATOM     28  C   UNL     1       5.000   3.789  14.727  0.00  0.00    +0.000 A 
ENDBRANCH  19  26
ENDBRANCH   1  19
TORSDOF 4
ENDMDL
MODEL 4
REMARK VINA RESULT:      -7.7      4.695      7.925
REMARK  Name = 
REMARK  5 active torsions:
REMARK  status: ('A' for Active; 'I' for Inactive)
REMARK    1  A    between atoms: C_1  and  C_2
REMARK    2  A    between atoms: C_5  and  S_6
REMARK    3  A    between atoms: S_6  and  C_9
REMARK    4  A    between atoms: C_11  and  C_12
REMARK    5  A    between atoms: C_20  and  N_21
REMARK                            x       y       z     vdW  Elec       q    Type
REMARK                         _______ _______ _______ _____ _____    ______ ____
ROOT
ATOM      1  C   UNL     1       0.514  11.265  19.749  0.00  0.00    +0.000 A 
ATOM      2  N   UNL     1       1.475  12.275  19.850  0.00  0.00    +0.000 NA
ATOM      3  C   UNL     1       1.088  13.165  18.964  0.00  0.00    +0.000 A 
ATOM      4  O   UNL     1      -0.053  12.825  18.307  0.00  0.00    +0.000 OA
ATOM      5  C   UNL     1      -0.437  11.598  18.793  0.00  0.00    +0.000 A 
ENDROOT
BRANCH   3   6
ATOM      6  C   UNL     1       1.711  14.429  18.583  0.00  0.00    +0.000 A 
ATOM      7  C   UNL     1       2.954  14.426  17.929  0.00  0.00    +0.000 A 
ATOM      8  C   UNL     1       3.547  15.621  17.510  0.00  0.00    +0.000 A 
ATOM      9  C   UNL     1       2.909  16.838  17.739  0.00  0.00    +0.000 A 
ATOM     10  C   UNL     1       1.685  16.861  18.402  0.00  0.00    +0.000 A 
ATOM     11  C   UNL     1       1.099  15.667  18.819  0.00  0.00    +0.000 A 
ATOM     12  F   UNL     1      -0.086  15.749  19.446  0.00  0.00    +0.000 F 
ENDBRANCH   3   6
BRANCH   5  13
ATOM     13  N   UNL     1      -1.583  11.099  18.255  0.00  0.00    +0.000 N 
ATOM     14  C   UNL     1      -1.556   9.934  17.362  0.00  0.00    +0.000 C 
ATOM     15  C   UNL     1      -2.460  10.205  16.159  0.00  0.00    +0.000 C 
ATOM     16  C   UNL     1      -3.868  10.622  16.582  0.00  0.00    +0.000 C 
ATOM     17  C   UNL     1      -3.834  11.751  17.610  0.00  0.00    +0.000 C 
ATOM     18  C   UNL     1      -2.910  11.412  18.776  0.00  0.00    +0.000 C 
ENDBRANCH   5  13
BRANCH   1  19
ATOM     19  S   UNL     1       0.578   9.860  20.743  0.00  0.00    +0.000 S 
ATOM     20  O   UNL     1      -0.789   9.379  20.831  0.00  0.00    +0.000 OA
ATOM     21  O   UNL     1       1.337  10.243  21.916  0.00  0.00    +0.000 OA
BRANCH  19  26
ATOM     22  C   UNL     1       3.752   5.780  17.574  0.00  0.00    +0.000 C 
ATOM     23  C   UNL     1       2.937   6.773  18.352  0.00  0.00    +0.000 A 
ATOM     24  C   UNL     1       2.563   7.992  17.772  0.00  0.00    +0.000 A 
ATOM     25  C   UNL     1       1.840   8.927  18.509  0.00  0.00    +0.000 A 
ATOM     26  C   UNL     1       1.497   8.648  19.834  0.00  0.00    +0.000 A 
ATOM     27  C   UNL     1       1.831   7.423  20.417  0.00  0.00    +0.000 A 
ATOM     28  C   UNL     1       2.557   6.492  19.672  0.00  0.00    +0.000 A 
ENDBRANCH  19  26
ENDBRANCH   1  19
TORSDOF 4
ENDMDL
MODEL 5
REMARK VINA RESULT:      -7.7      4.611      7.920
REMARK  Name = 
REMARK  5 active torsions:
REMARK  status: ('A' for Active; 'I' for Inactive)
REMARK    1  A    between atoms: C_1  and  C_2
REMARK    2  A    between atoms: C_5  and  S_6
REMARK    3  A    between atoms: S_6  and  C_9
REMARK    4  A    between atoms: C_11  and  C_12
REMARK    5  A    between atoms: C_20  and  N_21
REMARK                            x       y       z     vdW  Elec       q    Type
REMARK                         _______ _______ _______ _____ _____    ______ ____
ROOT
ATOM      1  C   UNL     1       0.484  11.281  19.731  0.00  0.00    +0.000 A 
ATOM      2  N   UNL     1       1.430  12.303  19.842  0.00  0.00    +0.000 NA
ATOM      3  C   UNL     1       1.031  13.197  18.963  0.00  0.00    +0.000 A 
ATOM      4  O   UNL     1      -0.105  12.847  18.303  0.00  0.00    +0.000 OA
ATOM      5  C   UNL     1      -0.471  11.610  18.779  0.00  0.00    +0.000 A 
ENDROOT
BRANCH   3   6
ATOM      6  C   UNL     1       1.636  14.472  18.594  0.00  0.00    +0.000 A 
ATOM      7  C   UNL     1       0.908  15.663  18.751  0.00  0.00    +0.000 A 
ATOM      8  C   UNL     1       1.484  16.902  18.451  0.00  0.00    +0.000 A 
ATOM      9  C   UNL     1       2.797  16.969  17.988  0.00  0.00    +0.000 A 
ATOM     10  C   UNL     1       3.527  15.798  17.810  0.00  0.00    +0.000 A 
ATOM     11  C   UNL     1       2.946  14.566  18.109  0.00  0.00    +0.000 A 
ATOM     12  F   UNL     1       3.701  13.470  17.925  0.00  0.00    +0.000 F 
ENDBRANCH   3   6
BRANCH   5  13
ATOM     13  N   UNL     1      -1.611  11.100  18.236  0.00  0.00    +0.000 N 
ATOM     14  C   UNL     1      -1.570   9.926  17.354  0.00  0.00    +0.000 C 
ATOM     15  C   UNL     1      -2.466  10.180  16.142  0.00  0.00    +0.000 C 
ATOM     16  C   UNL     1      -3.880  10.594  16.549  0.00  0.00    +0.000 C 
ATOM     17  C   UNL     1      -3.860  11.733  17.566  0.00  0.00    +0.000 C 
ATOM     18  C   UNL     1      -2.944  11.411  18.742  0.00  0.00    +0.000 C 
ENDBRANCH   5  13
BRANCH   1  19
ATOM     19  S   UNL     1       0.568   9.868  20.712  0.00  0.00    +0.000 S 
ATOM     20  O   UNL     1      -0.795   9.379  20.814  0.00  0.00    +0.000 OA
ATOM     21  O   UNL     1       1.341  10.244  21.878  0.00  0.00    +0.000 OA
BRANCH  19  26
ATOM     22  C   UNL     1       3.665   5.698  17.585  0.00  0.00    +0.000 C 
ATOM     23  C   UNL     1       2.927   6.746  18.367  0.00  0.00    +0.000 A 
ATOM     24  C   UNL     1       2.539   6.502  19.690  0.00  0.00    +0.000 A 
ATOM     25  C   UNL     1       1.821   7.462  20.398  0.00  0.00    +0.000 A 
ATOM     26  C   UNL     1       1.482   8.669  19.781  0.00  0.00    +0.000 A 
ATOM     27  C   UNL     1       1.892   8.943  18.474  0.00  0.00    +0.000 A 
ATOM     28  C   UNL     1       2.609   7.975  17.770  0.00  0.00    +0.000 A 
ENDBRANCH  19  26
ENDBRANCH   1  19
TORSDOF 4
ENDMDL
MODEL 6
REMARK VINA RESULT:      -7.7      4.402      9.766
REMARK  Name = 
REMARK  5 active torsions:
REMARK  status: ('A' for Active; 'I' for Inactive)
REMARK    1  A    between atoms: C_1  and  C_2
REMARK    2  A    between atoms: C_5  and  S_6
REMARK    3  A    between atoms: S_6  and  C_9
REMARK    4  A    between atoms: C_11  and  C_12
REMARK    5  A    between atoms: C_20  and  N_21
REMARK                            x       y       z     vdW  Elec       q    Type
REMARK                         _______ _______ _______ _____ _____    ______ ____
ROOT
ATOM      1  C   UNL     1       0.222  11.147  18.943  0.00  0.00    +0.000 A 
ATOM      2  N   UNL     1       1.422  10.477  19.196  0.00  0.00    +0.000 NA
ATOM      3  C   UNL     1       1.251   9.304  18.628  0.00  0.00    +0.000 A 
ATOM      4  O   UNL     1       0.047   9.162  18.013  0.00  0.00    +0.000 OA
ATOM      5  C   UNL     1      -0.636  10.339  18.210  0.00  0.00    +0.000 A 
ENDROOT
BRANCH   3   6
ATOM      6  C   UNL     1       2.148   8.153  18.585  0.00  0.00    +0.000 A 
ATOM      7  C   UNL     1       3.029   7.994  17.504  0.00  0.00    +0.000 A 
ATOM      8  C   UNL     1       3.932   6.926  17.465  0.00  0.00    +0.000 A 
ATOM      9  C   UNL     1       3.967   6.001  18.506  0.00  0.00    +0.000 A 
ATOM     10  C   UNL     1       3.088   6.133  19.578  0.00  0.00    +0.000 A 
ATOM     11  C   UNL     1       2.189   7.198  19.609  0.00  0.00    +0.000 A 
ATOM     12  F   UNL     1       1.371   7.280  20.672  0.00  0.00    +0.000 F 
ENDBRANCH   3   6
BRANCH   5  13
ATOM     13  N   UNL     1      -1.873  10.386  17.644  0.00  0.00    +0.000 N 
ATOM     14  C   UNL     1      -2.107   9.871  16.289  0.00  0.00    +0.000 C 
ATOM     15  C   UNL     1      -2.967  10.872  15.516  0.00  0.00    +0.000 C 
ATOM     16  C   UNL     1      -4.249  11.228  16.267  0.00  0.00    +0.000 C 
ATOM     17  C   UNL     1      -3.959  11.632  17.711  0.00  0.00    +0.000 C 
ATOM     18  C   UNL     1      -3.096  10.591  18.416  0.00  0.00    +0.000 C 
ENDBRANCH   5  13
BRANCH   1  19
ATOM     19  S   UNL     1      -0.037  12.763  19.482  0.00  0.00    +0.000 S 
ATOM     20  O   UNL     1      -0.726  13.434  18.395  0.00  0.00    +0.000 OA
ATOM     21  O   UNL     1       1.243  13.220  19.983  0.00  0.00    +0.000 OA
BRANCH  19  26
ATOM     22  C   UNL     1      -3.871  12.386  24.165  0.00  0.00    +0.000 C 
ATOM     23  C   UNL     1      -2.938  12.454  22.990  0.00  0.00    +0.000 A 
ATOM     24  C   UNL     1      -1.692  11.818  23.037  0.00  0.00    +0.000 A 
ATOM     25  C   UNL     1      -0.814  11.916  21.960  0.00  0.00    +0.000 A 
ATOM     26  C   UNL     1      -1.178  12.659  20.834  0.00  0.00    +0.000 A 
ATOM     27  C   UNL     1      -2.433  13.270  20.756  0.00  0.00    +0.000 A 
ATOM     28  C   UNL     1      -3.306  13.169  21.841  0.00  0.00    +0.000 A 
ENDBRANCH  19  26
ENDBRANCH   1  19
TORSDOF 4
ENDMDL
MODEL 7
REMARK VINA RESULT:      -7.5      0.889      1.563
REMARK  Name = 
REMARK  5 active torsions:
REMARK  status: ('A' for Active; 'I' for Inactive)
REMARK    1  A    between atoms: C_1  and  C_2
REMARK    2  A    between atoms: C_5  and  S_6
REMARK    3  A    between atoms: S_6  and  C_9
REMARK    4  A    between atoms: C_11  and  C_12
REMARK    5  A    between atoms: C_20  and  N_21
REMARK                            x       y       z     vdW  Elec       q    Type
REMARK                         _______ _______ _______ _____ _____    ______ ____
ROOT
ATOM      1  C   UNL     1       4.600   6.008  18.495  0.00  0.00    +0.000 A 
ATOM      2  N   UNL     1       4.144   7.326  18.577  0.00  0.00    +0.000 NA
ATOM      3  C   UNL     1       2.893   7.201  18.963  0.00  0.00    +0.000 A 
ATOM      4  O   UNL     1       2.504   5.913  19.153  0.00  0.00    +0.000 OA
ATOM      5  C   UNL     1       3.589   5.125  18.850  0.00  0.00    +0.000 A 
ENDROOT
BRANCH   3   6
ATOM      6  C   UNL     1       1.883   8.231  19.189  0.00  0.00    +0.000 A 
ATOM      7  C   UNL     1       1.269   8.342  20.447  0.00  0.00    +0.000 A 
ATOM      8  C   UNL     1       0.335   9.352  20.702  0.00  0.00    +0.000 A 
ATOM      9  C   UNL     1      -0.000  10.265  19.704  0.00  0.00    +0.000 A 
ATOM     10  C   UNL     1       0.586  10.158  18.446  0.00  0.00    +0.000 A 
ATOM     11  C   UNL     1       1.514   9.148  18.197  0.00  0.00    +0.000 A 
ATOM     12  F   UNL     1       2.053   9.099  16.968  0.00  0.00    +0.000 F 
ENDBRANCH   3   6
BRANCH   5  13
ATOM     13  N   UNL     1       3.387   3.787  19.000  0.00  0.00    +0.000 N 
ATOM     14  C   UNL     1       3.826   3.086  20.214  0.00  0.00    +0.000 C 
ATOM     15  C   UNL     1       4.514   1.780  19.815  0.00  0.00    +0.000 C 
ATOM     16  C   UNL     1       3.640   0.928  18.896  0.00  0.00    +0.000 C 
ATOM     17  C   UNL     1       3.104   1.741  17.720  0.00  0.00    +0.000 C 
ATOM     18  C   UNL     1       2.437   3.029  18.193  0.00  0.00    +0.000 C 
ENDBRANCH   5  13
BRANCH   1  19
ATOM     19  S   UNL     1       6.220   5.644  18.038  0.00  0.00    +0.000 S 
ATOM     20  O   UNL     1       6.630   4.541  18.889  0.00  0.00    +0.000 OA
ATOM     21  O   UNL     1       6.920   6.912  18.028  0.00  0.00    +0.000 OA
BRANCH  19  26
ATOM     22  C   UNL     1       5.860   3.499  12.378  0.00  0.00    +0.000 C 
ATOM     23  C   UNL     1       5.968   4.003  13.788  0.00  0.00    +0.000 A 
ATOM     24  C   UNL     1       4.933   3.777  14.703  0.00  0.00    +0.000 A 
ATOM     25  C   UNL     1       5.020   4.279  15.999  0.00  0.00    +0.000 A 
ATOM     26  C   UNL     1       6.142   5.019  16.381  0.00  0.00    +0.000 A 
ATOM     27  C   UNL     1       7.200   5.224  15.492  0.00  0.00    +0.000 A 
ATOM     28  C   UNL     1       7.104   4.718  14.194  0.00  0.00    +0.000 A 
ENDBRANCH  19  26
ENDBRANCH   1  19
TORSDOF 4
ENDMDL
MODEL 8
REMARK VINA RESULT:      -7.5      2.344      3.343
REMARK  Name = 
REMARK  5 active torsions:
REMARK  status: ('A' for Active; 'I' for Inactive)
REMARK    1  A    between atoms: C_1  and  C_2
REMARK    2  A    between atoms: C_5  and  S_6
REMARK    3  A    between atoms: S_6  and  C_9
REMARK    4  A    between atoms: C_11  and  C_12
REMARK    5  A    between atoms: C_20  and  N_21
REMARK                            x       y       z     vdW  Elec       q    Type
REMARK                         _______ _______ _______ _____ _____    ______ ____
ROOT
ATOM      1  C   UNL     1       4.035   6.463  17.642  0.00  0.00    +0.000 A 
ATOM      2  N   UNL     1       3.561   7.769  17.792  0.00  0.00    +0.000 NA
ATOM      3  C   UNL     1       2.446   7.621  18.474  0.00  0.00    +0.000 A 
ATOM      4  O   UNL     1       2.165   6.330  18.792  0.00  0.00    +0.000 OA
ATOM      5  C   UNL     1       3.175   5.564  18.259  0.00  0.00    +0.000 A 
ENDROOT
BRANCH   3   6
ATOM      6  C   UNL     1       1.482   8.627  18.907  0.00  0.00    +0.000 A 
ATOM      7  C   UNL     1       0.814   9.412  17.953  0.00  0.00    +0.000 A 
ATOM      8  C   UNL     1      -0.151  10.348  18.341  0.00  0.00    +0.000 A 
ATOM      9  C   UNL     1      -0.462  10.514  19.689  0.00  0.00    +0.000 A 
ATOM     10  C   UNL     1       0.203   9.757  20.650  0.00  0.00    +0.000 A 
ATOM     11  C   UNL     1       1.165   8.828  20.257  0.00  0.00    +0.000 A 
ATOM     12  F   UNL     1       1.768   8.120  21.226  0.00  0.00    +0.000 F 
ENDBRANCH   3   6
BRANCH   5  13
ATOM     13  N   UNL     1       3.068   4.227  18.493  0.00  0.00    +0.000 N 
ATOM     14  C   UNL     1       3.263   3.677  19.841  0.00  0.00    +0.000 C 
ATOM     15  C   UNL     1       4.145   2.431  19.749  0.00  0.00    +0.000 C 
ATOM     16  C   UNL     1       3.602   1.416  18.743  0.00  0.00    +0.000 C 
ATOM     17  C   UNL     1       3.295   2.070  17.398  0.00  0.00    +0.000 C 
ATOM     18  C   UNL     1       2.416   3.305  17.568  0.00  0.00    +0.000 C 
ENDBRANCH   5  13
BRANCH   1  19
ATOM     19  S   UNL     1       5.510   6.131  16.817  0.00  0.00    +0.000 S 
ATOM     20  O   UNL     1       5.293   6.548  15.443  0.00  0.00    +0.000 OA
ATOM     21  O   UNL     1       5.856   4.767  17.163  0.00  0.00    +0.000 OA
BRANCH  19  26
ATOM     22  C   UNL     1       9.607   9.943  19.149  0.00  0.00    +0.000 C 
ATOM     23  C   UNL     1       8.616   8.988  18.549  0.00  0.00    +0.000 A 
ATOM     24  C   UNL     1       7.684   9.434  17.604  0.00  0.00    +0.000 A 
ATOM     25  C   UNL     1       6.742   8.554  17.079  0.00  0.00    +0.000 A 
ATOM     26  C   UNL     1       6.723   7.224  17.505  0.00  0.00    +0.000 A 
ATOM     27  C   UNL     1       7.668   6.753  18.421  0.00  0.00    +0.000 A 
ATOM     28  C   UNL     1       8.608   7.642  18.944  0.00  0.00    +0.000 A 
ENDBRANCH  19  26
ENDBRANCH   1  19
TORSDOF 4
ENDMDL
MODEL 9
REMARK VINA RESULT:      -7.4      4.835     10.226
REMARK  Name = 
REMARK  5 active torsions:
REMARK  status: ('A' for Active; 'I' for Inactive)
REMARK    1  A    between atoms: C_1  and  C_2
REMARK    2  A    between atoms: C_5  and  S_6
REMARK    3  A    between atoms: S_6  and  C_9
REMARK    4  A    between atoms: C_11  and  C_12
REMARK    5  A    between atoms: C_20  and  N_21
REMARK                            x       y       z     vdW  Elec       q    Type
REMARK                         _______ _______ _______ _____ _____    ______ ____
ROOT
ATOM      1  C   UNL     1       0.060  11.708  19.802  0.00  0.00    +0.000 A 
ATOM      2  N   UNL     1       1.161  10.872  20.009  0.00  0.00    +0.000 NA
ATOM      3  C   UNL     1       0.932   9.851  19.214  0.00  0.00    +0.000 A 
ATOM      4  O   UNL     1      -0.217   9.961  18.497  0.00  0.00    +0.000 OA
ATOM      5  C   UNL     1      -0.800  11.150  18.867  0.00  0.00    +0.000 A 
ENDROOT
BRANCH   3   6
ATOM      6  C   UNL     1       1.713   8.634  19.015  0.00  0.00    +0.000 A 
ATOM      7  C   UNL     1       2.443   8.459  17.828  0.00  0.00    +0.000 A 
ATOM      8  C   UNL     1       3.239   7.324  17.636  0.00  0.00    +0.000 A 
ATOM      9  C   UNL     1       3.317   6.348  18.627  0.00  0.00    +0.000 A 
ATOM     10  C   UNL     1       2.586   6.497  19.802  0.00  0.00    +0.000 A 
ATOM     11  C   UNL     1       1.793   7.629  19.987  0.00  0.00    +0.000 A 
ATOM     12  F   UNL     1       1.117   7.723  21.144  0.00  0.00    +0.000 F 
ENDBRANCH   3   6
BRANCH   5  13
ATOM     13  N   UNL     1      -1.969  11.440  18.232  0.00  0.00    +0.000 N 
ATOM     14  C   UNL     1      -3.133  11.935  18.977  0.00  0.00    +0.000 C 
ATOM     15  C   UNL     1      -4.384  11.195  18.500  0.00  0.00    +0.000 C 
ATOM     16  C   UNL     1      -4.549  11.266  16.983  0.00  0.00    +0.000 C 
ATOM     17  C   UNL     1      -3.267  10.864  16.259  0.00  0.00    +0.000 C 
ATOM     18  C   UNL     1      -2.064  11.638  16.789  0.00  0.00    +0.000 C 
ENDBRANCH   5  13
BRANCH   1  19
ATOM     19  S   UNL     1      -0.092  13.215  20.624  0.00  0.00    +0.000 S 
ATOM     20  O   UNL     1      -0.564  14.159  19.627  0.00  0.00    +0.000 OA
ATOM     21  O   UNL     1       1.157  13.403  21.333  0.00  0.00    +0.000 OA
BRANCH  19  26
ATOM     22  C   UNL     1      -4.507  12.447  24.708  0.00  0.00    +0.000 C 
ATOM     23  C   UNL     1      -3.435  12.627  23.672  0.00  0.00    +0.000 A 
ATOM     24  C   UNL     1      -2.463  11.638  23.479  0.00  0.00    +0.000 A 
ATOM     25  C   UNL     1      -1.448  11.825  22.544  0.00  0.00    +0.000 A 
ATOM     26  C   UNL     1      -1.397  13.009  21.805  0.00  0.00    +0.000 A 
ATOM     27  C   UNL     1      -2.379  13.991  21.959  0.00  0.00    +0.000 A 
ATOM     28  C   UNL     1      -3.392  13.796  22.899  0.00  0.00    +0.000 A 
ENDBRANCH  19  26
ENDBRANCH   1  19
TORSDOF 4
ENDMDL
