MODEL 1
REMARK VINA RESULT:      -8.7      0.000      0.000
REMARK  Name = 
REMARK  8 active torsions:
REMARK  status: ('A' for Active; 'I' for Inactive)
REMARK    1  A    between atoms: C_1  and  C_2
REMARK    2  A    between atoms: C_2  and  N_3
REMARK    3  A    between atoms: C_12  and  N_13
REMARK    4  A    between atoms: C_14  and  C_16
REMARK    5  A    between atoms: C_16  and  O_17
REMARK    6  A    between atoms: O_17  and  C_18
REMARK    7  A    between atoms: C_18  and  C_20
REMARK    8  A    between atoms: C_23  and  O_24
REMARK                            x       y       z     vdW  Elec       q    Type
REMARK                         _______ _______ _______ _____ _____    ______ ____
ROOT
ATOM      1  N   UNL     1       2.898   6.222  19.792  0.00  0.00    +0.000 N 
ATOM      2  C   UNL     1       2.347   4.973  20.103  0.00  0.00    +0.000 C 
ATOM      3  O   UNL     1       1.157   4.737  20.307  0.00  0.00    +0.000 OA
ATOM      4  H   UNL     1       3.906   6.291  19.692  0.00  0.00    +0.000 HD
ENDROOT
BRANCH   1  14
ATOM      5  N   UNL     1      -0.155  10.884  19.371  0.00  0.00    +0.000 N 
ATOM      6  C   UNL     1      -0.628  11.080  20.646  0.00  0.00    +0.000 A 
ATOM      7  C   UNL     1      -1.459  12.090  21.167  0.00  0.00    +0.000 A 
ATOM      8  C   UNL     1      -1.810  12.030  22.518  0.00  0.00    +0.000 A 
ATOM      9  C   UNL     1      -1.355  10.993  23.321  0.00  0.00    +0.000 A 
ATOM     10  C   UNL     1      -0.522   9.989  22.791  0.00  0.00    +0.000 A 
ATOM     11  C   UNL     1      -0.143  10.027  21.433  0.00  0.00    +0.000 A 
ATOM     12  C   UNL     1       0.682   9.201  20.577  0.00  0.00    +0.000 A 
ATOM     13  C   UNL     1       1.437   8.007  20.743  0.00  0.00    +0.000 A 
ATOM     14  C   UNL     1       2.149   7.437  19.668  0.00  0.00    +0.000 A 
ATOM     15  C   UNL     1       2.125   8.085  18.432  0.00  0.00    +0.000 A 
ATOM     16  C   UNL     1       1.400   9.265  18.243  0.00  0.00    +0.000 A 
ATOM     17  C   UNL     1       0.673   9.789  19.319  0.00  0.00    +0.000 A 
BRANCH   5  19
ATOM     18  C   UNL     1      -1.828  11.237  17.591  0.00  0.00    +0.000 C 
ATOM     19  C   UNL     1      -0.514  11.679  18.206  0.00  0.00    +0.000 C 
ENDBRANCH   5  19
ENDBRANCH   1  14
BRANCH   2  20
ATOM     20  C   UNL     1       3.339   3.820  20.254  0.00  0.00    +0.000 C 
BRANCH  20  21
ATOM     21  O   UNL     1       4.466   4.037  19.383  0.00  0.00    +0.000 OA
BRANCH  21  22
ATOM     22  C   UNL     1       4.316   3.481  18.149  0.00  0.00    +0.000 C 
ATOM     23  O   UNL     1       3.550   2.580  17.880  0.00  0.00    +0.000 OA
BRANCH  22  24
ATOM     24  C   UNL     1       5.299   4.046  17.172  0.00  0.00    +0.000 A 
ATOM     25  C   UNL     1       6.301   4.956  17.536  0.00  0.00    +0.000 A 
ATOM     26  C   UNL     1       7.163   5.483  16.560  0.00  0.00    +0.000 A 
ATOM     27  C   UNL     1       7.024   5.087  15.229  0.00  0.00    +0.000 A 
ATOM     28  C   UNL     1       6.047   4.175  14.862  0.00  0.00    +0.000 A 
ATOM     29  C   UNL     1       5.178   3.659  15.828  0.00  0.00    +0.000 A 
BRANCH  27  30
ATOM     30  O   UNL     1       7.834   5.577  14.246  0.00  0.00    +0.000 OA
ATOM     31  H   UNL     1       7.457   6.403  13.901  0.00  0.00    +0.000 HD
ENDBRANCH  27  30
ENDBRANCH  22  24
ENDBRANCH  21  22
ENDBRANCH  20  21
ENDBRANCH   2  20
TORSDOF 7
ENDMDL
MODEL 2
REMARK VINA RESULT:      -8.5      1.492      1.842
REMARK  Name = 
REMARK  8 active torsions:
REMARK  status: ('A' for Active; 'I' for Inactive)
REMARK    1  A    between atoms: C_1  and  C_2
REMARK    2  A    between atoms: C_2  and  N_3
REMARK    3  A    between atoms: C_12  and  N_13
REMARK    4  A    between atoms: C_14  and  C_16
REMARK    5  A    between atoms: C_16  and  O_17
REMARK    6  A    between atoms: O_17  and  C_18
REMARK    7  A    between atoms: C_18  and  C_20
REMARK    8  A    between atoms: C_23  and  O_24
REMARK                            x       y       z     vdW  Elec       q    Type
REMARK                         _______ _______ _______ _____ _____    ______ ____
ROOT
ATOM      1  N   UNL     1       2.693   5.203  18.985  0.00  0.00    +0.000 N 
ATOM      2  C   UNL     1       2.075   4.249  18.166  0.00  0.00    +0.000 C 
ATOM      3  O   UNL     1       1.103   4.441  17.436  0.00  0.00    +0.000 OA
ATOM      4  H   UNL     1       3.461   4.903  19.576  0.00  0.00    +0.000 HD
ENDROOT
BRANCH   1  14
ATOM      5  N   UNL     1       0.918  10.478  19.485  0.00  0.00    +0.000 N 
ATOM      6  C   UNL     1       0.352  10.514  20.736  0.00  0.00    +0.000 A 
ATOM      7  C   UNL     1      -0.271  11.571  21.428  0.00  0.00    +0.000 A 
ATOM      8  C   UNL     1      -0.790  11.318  22.700  0.00  0.00    +0.000 A 
ATOM      9  C   UNL     1      -0.699  10.052  23.262  0.00  0.00    +0.000 A 
ATOM     10  C   UNL     1      -0.071   9.002  22.564  0.00  0.00    +0.000 A 
ATOM     11  C   UNL     1       0.471   9.228  21.281  0.00  0.00    +0.000 A 
ATOM     12  C   UNL     1       1.173   8.417  20.309  0.00  0.00    +0.000 A 
ATOM     13  C   UNL     1       1.594   7.062  20.236  0.00  0.00    +0.000 A 
ATOM     14  C   UNL     1       2.277   6.568  19.105  0.00  0.00    +0.000 A 
ATOM     15  C   UNL     1       2.560   7.447  18.059  0.00  0.00    +0.000 A 
ATOM     16  C   UNL     1       2.167   8.788  18.109  0.00  0.00    +0.000 A 
ATOM     17  C   UNL     1       1.460   9.241  19.229  0.00  0.00    +0.000 A 
BRANCH   5  19
ATOM     18  C   UNL     1       2.179  12.390  18.566  0.00  0.00    +0.000 C 
ATOM     19  C   UNL     1       0.905  11.569  18.521  0.00  0.00    +0.000 C 
ENDBRANCH   5  19
ENDBRANCH   1  14
BRANCH   2  20
ATOM     20  C   UNL     1       2.640   2.831  18.243  0.00  0.00    +0.000 C 
BRANCH  20  21
ATOM     21  O   UNL     1       4.013   2.835  17.809  0.00  0.00    +0.000 OA
BRANCH  21  22
ATOM     22  C   UNL     1       4.888   3.249  18.768  0.00  0.00    +0.000 C 
ATOM     23  O   UNL     1       4.915   2.836  19.909  0.00  0.00    +0.000 OA
BRANCH  22  24
ATOM     24  C   UNL     1       5.751   4.366  18.275  0.00  0.00    +0.000 A 
ATOM     25  C   UNL     1       6.568   5.132  19.119  0.00  0.00    +0.000 A 
ATOM     26  C   UNL     1       7.320   6.197  18.596  0.00  0.00    +0.000 A 
ATOM     27  C   UNL     1       7.260   6.481  17.232  0.00  0.00    +0.000 A 
ATOM     28  C   UNL     1       6.469   5.719  16.385  0.00  0.00    +0.000 A 
ATOM     29  C   UNL     1       5.707   4.667  16.905  0.00  0.00    +0.000 A 
BRANCH  27  30
ATOM     30  O   UNL     1       7.968   7.509  16.680  0.00  0.00    +0.000 OA
ATOM     31  H   UNL     1       7.351   8.161  16.310  0.00  0.00    +0.000 HD
ENDBRANCH  27  30
ENDBRANCH  22  24
ENDBRANCH  21  22
ENDBRANCH  20  21
ENDBRANCH   2  20
TORSDOF 7
ENDMDL
MODEL 3
REMARK VINA RESULT:      -8.4      1.053      1.272
REMARK  Name = 
REMARK  8 active torsions:
REMARK  status: ('A' for Active; 'I' for Inactive)
REMARK    1  A    between atoms: C_1  and  C_2
REMARK    2  A    between atoms: C_2  and  N_3
REMARK    3  A    between atoms: C_12  and  N_13
REMARK    4  A    between atoms: C_14  and  C_16
REMARK    5  A    between atoms: C_16  and  O_17
REMARK    6  A    between atoms: O_17  and  C_18
REMARK    7  A    between atoms: C_18  and  C_20
REMARK    8  A    between atoms: C_23  and  O_24
REMARK                            x       y       z     vdW  Elec       q    Type
REMARK                         _______ _______ _______ _____ _____    ______ ____
ROOT
ATOM      1  N   UNL     1       2.550   5.578  20.479  0.00  0.00    +0.000 N 
ATOM      2  C   UNL     1       2.099   4.428  19.819  0.00  0.00    +0.000 C 
ATOM      3  O   UNL     1       1.226   4.386  18.952  0.00  0.00    +0.000 OA
ATOM      4  H   UNL     1       3.246   5.470  21.209  0.00  0.00    +0.000 HD
ENDROOT
BRANCH   1  14
ATOM      5  N   UNL     1       0.457  10.687  19.611  0.00  0.00    +0.000 N 
ATOM      6  C   UNL     1      -0.199  10.973  20.783  0.00  0.00    +0.000 A 
ATOM      7  C   UNL     1      -0.928  12.115  21.167  0.00  0.00    +0.000 A 
ATOM      8  C   UNL     1      -1.523  12.130  22.431  0.00  0.00    +0.000 A 
ATOM      9  C   UNL     1      -1.403  11.039  23.281  0.00  0.00    +0.000 A 
ATOM     10  C   UNL     1      -0.670   9.903  22.890  0.00  0.00    +0.000 A 
ATOM     11  C   UNL     1      -0.050   9.861  21.623  0.00  0.00    +0.000 A 
ATOM     12  C   UNL     1       0.764   8.898  20.913  0.00  0.00    +0.000 A 
ATOM     13  C   UNL     1       1.264   7.595  21.188  0.00  0.00    +0.000 A 
ATOM     14  C   UNL     1       2.052   6.901  20.247  0.00  0.00    +0.000 A 
ATOM     15  C   UNL     1       2.362   7.530  19.040  0.00  0.00    +0.000 A 
ATOM     16  C   UNL     1       1.894   8.814  18.749  0.00  0.00    +0.000 A 
ATOM     17  C   UNL     1       1.083   9.466  19.687  0.00  0.00    +0.000 A 
BRANCH   5  19
ATOM     18  C   UNL     1       1.611  12.500  18.397  0.00  0.00    +0.000 C 
ATOM     19  C   UNL     1       0.455  11.519  18.417  0.00  0.00    +0.000 C 
ENDBRANCH   5  19
ENDBRANCH   1  14
BRANCH   2  20
ATOM     20  C   UNL     1       2.720   3.107  20.271  0.00  0.00    +0.000 C 
BRANCH  20  21
ATOM     21  O   UNL     1       4.088   3.040  19.824  0.00  0.00    +0.000 OA
BRANCH  21  22
ATOM     22  C   UNL     1       4.219   3.039  18.468  0.00  0.00    +0.000 C 
ATOM     23  O   UNL     1       3.691   2.245  17.718  0.00  0.00    +0.000 OA
BRANCH  22  24
ATOM     24  C   UNL     1       5.191   4.081  18.012  0.00  0.00    +0.000 A 
ATOM     25  C   UNL     1       5.883   4.920  18.897  0.00  0.00    +0.000 A 
ATOM     26  C   UNL     1       6.748   5.909  18.400  0.00  0.00    +0.000 A 
ATOM     27  C   UNL     1       6.925   6.044  17.023  0.00  0.00    +0.000 A 
ATOM     28  C   UNL     1       6.258   5.208  16.140  0.00  0.00    +0.000 A 
ATOM     29  C   UNL     1       5.385   4.232  16.631  0.00  0.00    +0.000 A 
BRANCH  27  30
ATOM     30  O   UNL     1       7.750   6.993  16.494  0.00  0.00    +0.000 OA
ATOM     31  H   UNL     1       7.494   7.866  16.834  0.00  0.00    +0.000 HD
ENDBRANCH  27  30
ENDBRANCH  22  24
ENDBRANCH  21  22
ENDBRANCH  20  21
ENDBRANCH   2  20
TORSDOF 7
ENDMDL
MODEL 4
REMARK VINA RESULT:      -8.4      1.343      1.633
REMARK  Name = 
REMARK  8 active torsions:
REMARK  status: ('A' for Active; 'I' for Inactive)
REMARK    1  A    between atoms: C_1  and  C_2
REMARK    2  A    between atoms: C_2  and  N_3
REMARK    3  A    between atoms: C_12  and  N_13
REMARK    4  A    between atoms: C_14  and  C_16
REMARK    5  A    between atoms: C_16  and  O_17
REMARK    6  A    between atoms: O_17  and  C_18
REMARK    7  A    between atoms: C_18  and  C_20
REMARK    8  A    between atoms: C_23  and  O_24
REMARK                            x       y       z     vdW  Elec       q    Type
REMARK                         _______ _______ _______ _____ _____    ______ ____
ROOT
ATOM      1  N   UNL     1       2.556   6.428  19.970  0.00  0.00    +0.000 N 
ATOM      2  C   UNL     1       1.921   5.223  20.296  0.00  0.00    +0.000 C 
ATOM      3  O   UNL     1       0.720   5.073  20.516  0.00  0.00    +0.000 OA
ATOM      4  H   UNL     1       3.564   6.424  19.857  0.00  0.00    +0.000 HD
ENDROOT
BRANCH   1  14
ATOM      5  N   UNL     1      -0.166  11.289  19.536  0.00  0.00    +0.000 N 
ATOM      6  C   UNL     1      -0.706  11.472  20.785  0.00  0.00    +0.000 A 
ATOM      7  C   UNL     1      -1.504  12.516  21.292  0.00  0.00    +0.000 A 
ATOM      8  C   UNL     1      -1.945  12.434  22.616  0.00  0.00    +0.000 A 
ATOM      9  C   UNL     1      -1.608  11.343  23.405  0.00  0.00    +0.000 A 
ATOM     10  C   UNL     1      -0.807  10.305  22.891  0.00  0.00    +0.000 A 
ATOM     11  C   UNL     1      -0.340  10.364  21.561  0.00  0.00    +0.000 A 
ATOM     12  C   UNL     1       0.485   9.515  20.728  0.00  0.00    +0.000 A 
ATOM     13  C   UNL     1       1.151   8.270  20.895  0.00  0.00    +0.000 A 
ATOM     14  C   UNL     1       1.894   7.692  19.845  0.00  0.00    +0.000 A 
ATOM     15  C   UNL     1       1.990   8.381  18.635  0.00  0.00    +0.000 A 
ATOM     16  C   UNL     1       1.354   9.611  18.447  0.00  0.00    +0.000 A 
ATOM     17  C   UNL     1       0.594  10.145  19.495  0.00  0.00    +0.000 A 
BRANCH   5  19
ATOM     18  C   UNL     1      -1.713  11.834  17.692  0.00  0.00    +0.000 C 
ATOM     19  C   UNL     1      -0.399  12.145  18.382  0.00  0.00    +0.000 C 
ENDBRANCH   5  19
ENDBRANCH   1  14
BRANCH   2  20
ATOM     20  C   UNL     1       2.830   4.003  20.445  0.00  0.00    +0.000 C 
BRANCH  20  21
ATOM     21  O   UNL     1       3.447   3.705  19.177  0.00  0.00    +0.000 OA
BRANCH  21  22
ATOM     22  C   UNL     1       4.802   3.584  19.246  0.00  0.00    +0.000 C 
ATOM     23  O   UNL     1       5.393   2.696  19.824  0.00  0.00    +0.000 OA
BRANCH  22  24
ATOM     24  C   UNL     1       5.488   4.750  18.607  0.00  0.00    +0.000 A 
ATOM     25  C   UNL     1       4.936   5.470  17.538  0.00  0.00    +0.000 A 
ATOM     26  C   UNL     1       5.654   6.528  16.955  0.00  0.00    +0.000 A 
ATOM     27  C   UNL     1       6.913   6.865  17.453  0.00  0.00    +0.000 A 
ATOM     28  C   UNL     1       7.460   6.171  18.521  0.00  0.00    +0.000 A 
ATOM     29  C   UNL     1       6.754   5.109  19.095  0.00  0.00    +0.000 A 
BRANCH  27  30
ATOM     30  O   UNL     1       7.649   7.880  16.915  0.00  0.00    +0.000 OA
ATOM     31  H   UNL     1       8.237   8.247  17.596  0.00  0.00    +0.000 HD
ENDBRANCH  27  30
ENDBRANCH  22  24
ENDBRANCH  21  22
ENDBRANCH  20  21
ENDBRANCH   2  20
TORSDOF 7
ENDMDL
MODEL 5
REMARK VINA RESULT:      -8.3      1.545      1.922
REMARK  Name = 
REMARK  8 active torsions:
REMARK  status: ('A' for Active; 'I' for Inactive)
REMARK    1  A    between atoms: C_1  and  C_2
REMARK    2  A    between atoms: C_2  and  N_3
REMARK    3  A    between atoms: C_12  and  N_13
REMARK    4  A    between atoms: C_14  and  C_16
REMARK    5  A    between atoms: C_16  and  O_17
REMARK    6  A    between atoms: O_17  and  C_18
REMARK    7  A    between atoms: C_18  and  C_20
REMARK    8  A    between atoms: C_23  and  O_24
REMARK                            x       y       z     vdW  Elec       q    Type
REMARK                         _______ _______ _______ _____ _____    ______ ____
ROOT
ATOM      1  N   UNL     1       3.101   5.906  19.803  0.00  0.00    +0.000 N 
ATOM      2  C   UNL     1       2.800   4.758  19.059  0.00  0.00    +0.000 C 
ATOM      3  O   UNL     1       1.907   4.652  18.220  0.00  0.00    +0.000 OA
ATOM      4  H   UNL     1       3.836   5.848  20.499  0.00  0.00    +0.000 HD
ENDROOT
BRANCH   1  14
ATOM      5  N   UNL     1       0.229  10.688  19.460  0.00  0.00    +0.000 N 
ATOM      6  C   UNL     1      -0.306  10.837  20.716  0.00  0.00    +0.000 A 
ATOM      7  C   UNL     1      -1.131  11.849  21.244  0.00  0.00    +0.000 A 
ATOM      8  C   UNL     1      -1.558  11.735  22.569  0.00  0.00    +0.000 A 
ATOM      9  C   UNL     1      -1.182  10.643  23.341  0.00  0.00    +0.000 A 
ATOM     10  C   UNL     1      -0.354   9.638  22.806  0.00  0.00    +0.000 A 
ATOM     11  C   UNL     1       0.100   9.730  21.473  0.00  0.00    +0.000 A 
ATOM     12  C   UNL     1       0.943   8.918  20.621  0.00  0.00    +0.000 A 
ATOM     13  C   UNL     1       1.648   7.692  20.765  0.00  0.00    +0.000 A 
ATOM     14  C   UNL     1       2.400   7.151  19.702  0.00  0.00    +0.000 A 
ATOM     15  C   UNL     1       2.464   7.859  18.501  0.00  0.00    +0.000 A 
ATOM     16  C   UNL     1       1.790   9.072  18.335  0.00  0.00    +0.000 A 
ATOM     17  C   UNL     1       1.023   9.568  19.396  0.00  0.00    +0.000 A 
BRANCH   5  19
ATOM     18  C   UNL     1       0.599  12.919  18.471  0.00  0.00    +0.000 C 
ATOM     19  C   UNL     1      -0.040  11.552  18.320  0.00  0.00    +0.000 C 
ENDBRANCH   5  19
ENDBRANCH   1  14
BRANCH   2  20
ATOM     20  C   UNL     1       3.632   3.516  19.376  0.00  0.00    +0.000 C 
BRANCH  20  21
ATOM     21  O   UNL     1       5.031   3.815  19.201  0.00  0.00    +0.000 OA
BRANCH  21  22
ATOM     22  C   UNL     1       5.349   4.212  17.937  0.00  0.00    +0.000 C 
ATOM     23  O   UNL     1       5.043   3.619  16.924  0.00  0.00    +0.000 OA
BRANCH  22  24
ATOM     24  C   UNL     1       6.227   5.424  17.950  0.00  0.00    +0.000 A 
ATOM     25  C   UNL     1       7.360   5.538  18.767  0.00  0.00    +0.000 A 
ATOM     26  C   UNL     1       8.116   6.723  18.763  0.00  0.00    +0.000 A 
ATOM     27  C   UNL     1       7.739   7.779  17.934  0.00  0.00    +0.000 A 
ATOM     28  C   UNL     1       6.629   7.670  17.110  0.00  0.00    +0.000 A 
ATOM     29  C   UNL     1       5.867   6.498  17.121  0.00  0.00    +0.000 A 
BRANCH  27  30
ATOM     30  O   UNL     1       8.438   8.951  17.901  0.00  0.00    +0.000 OA
ATOM     31  H   UNL     1       7.927   9.616  17.412  0.00  0.00    +0.000 HD
ENDBRANCH  27  30
ENDBRANCH  22  24
ENDBRANCH  21  22
ENDBRANCH  20  21
ENDBRANCH   2  20
TORSDOF 7
ENDMDL
MODEL 6
REMARK VINA RESULT:      -8.3      3.517     10.186
REMARK  Name = 
REMARK  8 active torsions:
REMARK  status: ('A' for Active; 'I' for Inactive)
REMARK    1  A    between atoms: C_1  and  C_2
REMARK    2  A    between atoms: C_2  and  N_3
REMARK    3  A    between atoms: C_12  and  N_13
REMARK    4  A    between atoms: C_14  and  C_16
REMARK    5  A    between atoms: C_16  and  O_17
REMARK    6  A    between atoms: O_17  and  C_18
REMARK    7  A    between atoms: C_18  and  C_20
REMARK    8  A    between atoms: C_23  and  O_24
REMARK                            x       y       z     vdW  Elec       q    Type
REMARK                         _______ _______ _______ _____ _____    ______ ____
ROOT
ATOM      1  N   UNL     1       1.268   9.289  20.390  0.00  0.00    +0.000 N 
ATOM      2  C   UNL     1       0.421  10.094  19.618  0.00  0.00    +0.000 C 
ATOM      3  O   UNL     1      -0.006   9.827  18.495  0.00  0.00    +0.000 OA
ATOM      4  H   UNL     1       1.585   9.646  21.285  0.00  0.00    +0.000 HD
ENDROOT
BRANCH   1  14
ATOM      5  N   UNL     1       3.206   4.345  18.648  0.00  0.00    +0.000 N 
ATOM      6  C   UNL     1       3.997   4.667  17.572  0.00  0.00    +0.000 A 
ATOM      7  C   UNL     1       4.752   3.843  16.714  0.00  0.00    +0.000 A 
ATOM      8  C   UNL     1       5.456   4.443  15.667  0.00  0.00    +0.000 A 
ATOM      9  C   UNL     1       5.403   5.817  15.476  0.00  0.00    +0.000 A 
ATOM     10  C   UNL     1       4.648   6.633  16.340  0.00  0.00    +0.000 A 
ATOM     11  C   UNL     1       3.933   6.057  17.412  0.00  0.00    +0.000 A 
ATOM     12  C   UNL     1       3.091   6.569  18.472  0.00  0.00    +0.000 A 
ATOM     13  C   UNL     1       2.622   7.853  18.864  0.00  0.00    +0.000 A 
ATOM     14  C   UNL     1       1.779   8.014  19.982  0.00  0.00    +0.000 A 
ATOM     15  C   UNL     1       1.429   6.885  20.724  0.00  0.00    +0.000 A 
ATOM     16  C   UNL     1       1.884   5.612  20.368  0.00  0.00    +0.000 A 
ATOM     17  C   UNL     1       2.691   5.478  19.232  0.00  0.00    +0.000 A 
BRANCH   5  19
ATOM     18  C   UNL     1       3.931   2.449  20.051  0.00  0.00    +0.000 C 
ATOM     19  C   UNL     1       2.892   2.995  19.091  0.00  0.00    +0.000 C 
ENDBRANCH   5  19
ENDBRANCH   1  14
BRANCH   2  20
ATOM     20  C   UNL     1       0.051  11.449  20.218  0.00  0.00    +0.000 C 
BRANCH  20  21
ATOM     21  O   UNL     1      -1.108  11.302  21.062  0.00  0.00    +0.000 OA
BRANCH  21  22
ATOM     22  C   UNL     1      -0.825  11.370  22.393  0.00  0.00    +0.000 C 
ATOM     23  O   UNL     1      -0.076  10.622  22.984  0.00  0.00    +0.000 OA
BRANCH  22  24
ATOM     24  C   UNL     1      -1.642  12.424  23.071  0.00  0.00    +0.000 A 
ATOM     25  C   UNL     1      -1.154  13.708  23.350  0.00  0.00    +0.000 A 
ATOM     26  C   UNL     1      -1.960  14.636  24.031  0.00  0.00    +0.000 A 
ATOM     27  C   UNL     1      -3.252  14.278  24.416  0.00  0.00    +0.000 A 
ATOM     28  C   UNL     1      -3.750  13.016  24.129  0.00  0.00    +0.000 A 
ATOM     29  C   UNL     1      -2.946  12.085  23.465  0.00  0.00    +0.000 A 
BRANCH  27  30
ATOM     30  O   UNL     1      -4.068  15.143  25.084  0.00  0.00    +0.000 OA
ATOM     31  H   UNL     1      -4.985  14.827  25.030  0.00  0.00    +0.000 HD
ENDBRANCH  27  30
ENDBRANCH  22  24
ENDBRANCH  21  22
ENDBRANCH  20  21
ENDBRANCH   2  20
TORSDOF 7
ENDMDL
MODEL 7
REMARK VINA RESULT:      -8.3      3.269      8.738
REMARK  Name = 
REMARK  8 active torsions:
REMARK  status: ('A' for Active; 'I' for Inactive)
REMARK    1  A    between atoms: C_1  and  C_2
REMARK    2  A    between atoms: C_2  and  N_3
REMARK    3  A    between atoms: C_12  and  N_13
REMARK    4  A    between atoms: C_14  and  C_16
REMARK    5  A    between atoms: C_16  and  O_17
REMARK    6  A    between atoms: O_17  and  C_18
REMARK    7  A    between atoms: C_18  and  C_20
REMARK    8  A    between atoms: C_23  and  O_24
REMARK                            x       y       z     vdW  Elec       q    Type
REMARK                         _______ _______ _______ _____ _____    ______ ____
ROOT
ATOM      1  N   UNL     1       1.335   8.806  20.870  0.00  0.00    +0.000 N 
ATOM      2  C   UNL     1       0.091   8.964  21.493  0.00  0.00    +0.000 C 
ATOM      3  O   UNL     1      -0.750   8.082  21.666  0.00  0.00    +0.000 OA
ATOM      4  H   UNL     1       1.919   9.627  20.749  0.00  0.00    +0.000 HD
ENDROOT
BRANCH   1  14
ATOM      5  N   UNL     1       3.190   4.048  18.600  0.00  0.00    +0.000 N 
ATOM      6  C   UNL     1       3.985   4.471  17.562  0.00  0.00    +0.000 A 
ATOM      7  C   UNL     1       4.724   3.733  16.618  0.00  0.00    +0.000 A 
ATOM      8  C   UNL     1       5.436   4.430  15.638  0.00  0.00    +0.000 A 
ATOM      9  C   UNL     1       5.404   5.818  15.596  0.00  0.00    +0.000 A 
ATOM     10  C   UNL     1       4.664   6.547  16.546  0.00  0.00    +0.000 A 
ATOM     11  C   UNL     1       3.942   5.872  17.553  0.00  0.00    +0.000 A 
ATOM     12  C   UNL     1       3.111   6.280  18.664  0.00  0.00    +0.000 A 
ATOM     13  C   UNL     1       2.664   7.522  19.193  0.00  0.00    +0.000 A 
ATOM     14  C   UNL     1       1.825   7.575  20.326  0.00  0.00    +0.000 A 
ATOM     15  C   UNL     1       1.460   6.378  20.944  0.00  0.00    +0.000 A 
ATOM     16  C   UNL     1       1.893   5.144  20.452  0.00  0.00    +0.000 A 
ATOM     17  C   UNL     1       2.695   5.120  19.304  0.00  0.00    +0.000 A 
BRANCH   5  19
ATOM     18  C   UNL     1       1.446   2.307  18.467  0.00  0.00    +0.000 C 
ATOM     19  C   UNL     1       2.856   2.664  18.898  0.00  0.00    +0.000 C 
ENDBRANCH   5  19
ENDBRANCH   1  14
BRANCH   2  20
ATOM     20  C   UNL     1      -0.261  10.383  21.940  0.00  0.00    +0.000 C 
BRANCH  20  21
ATOM     21  O   UNL     1      -1.144  10.987  20.975  0.00  0.00    +0.000 OA
BRANCH  21  22
ATOM     22  C   UNL     1      -0.573  11.164  19.751  0.00  0.00    +0.000 C 
ATOM     23  O   UNL     1       0.564  11.541  19.561  0.00  0.00    +0.000 OA
BRANCH  22  24
ATOM     24  C   UNL     1      -1.562  10.939  18.650  0.00  0.00    +0.000 A 
ATOM     25  C   UNL     1      -1.330  10.061  17.582  0.00  0.00    +0.000 A 
ATOM     26  C   UNL     1      -2.282   9.931  16.557  0.00  0.00    +0.000 A 
ATOM     27  C   UNL     1      -3.464  10.669  16.615  0.00  0.00    +0.000 A 
ATOM     28  C   UNL     1      -3.711  11.527  17.676  0.00  0.00    +0.000 A 
ATOM     29  C   UNL     1      -2.759  11.670  18.690  0.00  0.00    +0.000 A 
BRANCH  27  30
ATOM     30  O   UNL     1      -4.415  10.580  15.640  0.00  0.00    +0.000 OA
ATOM     31  H   UNL     1      -5.036   9.867  15.861  0.00  0.00    +0.000 HD
ENDBRANCH  27  30
ENDBRANCH  22  24
ENDBRANCH  21  22
ENDBRANCH  20  21
ENDBRANCH   2  20
TORSDOF 7
ENDMDL
MODEL 8
REMARK VINA RESULT:      -8.2      3.291      9.180
REMARK  Name = 
REMARK  8 active torsions:
REMARK  status: ('A' for Active; 'I' for Inactive)
REMARK    1  A    between atoms: C_1  and  C_2
REMARK    2  A    between atoms: C_2  and  N_3
REMARK    3  A    between atoms: C_12  and  N_13
REMARK    4  A    between atoms: C_14  and  C_16
REMARK    5  A    between atoms: C_16  and  O_17
REMARK    6  A    between atoms: O_17  and  C_18
REMARK    7  A    between atoms: C_18  and  C_20
REMARK    8  A    between atoms: C_23  and  O_24
REMARK                            x       y       z     vdW  Elec       q    Type
REMARK                         _______ _______ _______ _____ _____    ______ ____
ROOT
ATOM      1  N   UNL     1       1.472   8.658  19.945  0.00  0.00    +0.000 N 
ATOM      2  C   UNL     1       1.213   9.731  19.082  0.00  0.00    +0.000 C 
ATOM      3  O   UNL     1       1.504   9.785  17.888  0.00  0.00    +0.000 OA
ATOM      4  H   UNL     1       1.222   8.757  20.923  0.00  0.00    +0.000 HD
ENDROOT
BRANCH   1  14
ATOM      5  N   UNL     1       3.974   3.937  18.307  0.00  0.00    +0.000 N 
ATOM      6  C   UNL     1       4.697   4.318  17.203  0.00  0.00    +0.000 A 
ATOM      7  C   UNL     1       5.530   3.566  16.352  0.00  0.00    +0.000 A 
ATOM      8  C   UNL     1       6.131   4.213  15.269  0.00  0.00    +0.000 A 
ATOM      9  C   UNL     1       5.903   5.562  15.037  0.00  0.00    +0.000 A 
ATOM     10  C   UNL     1       5.071   6.307  15.895  0.00  0.00    +0.000 A 
ATOM     11  C   UNL     1       4.456   5.684  17.002  0.00  0.00    +0.000 A 
ATOM     12  C   UNL     1       3.579   6.122  18.066  0.00  0.00    +0.000 A 
ATOM     13  C   UNL     1       2.963   7.351  18.430  0.00  0.00    +0.000 A 
ATOM     14  C   UNL     1       2.129   7.444  19.564  0.00  0.00    +0.000 A 
ATOM     15  C   UNL     1       1.940   6.305  20.349  0.00  0.00    +0.000 A 
ATOM     16  C   UNL     1       2.542   5.087  20.021  0.00  0.00    +0.000 A 
ATOM     17  C   UNL     1       3.335   5.016  18.869  0.00  0.00    +0.000 A 
BRANCH   5  19
ATOM     18  C   UNL     1       2.648   1.858  18.194  0.00  0.00    +0.000 C 
ATOM     19  C   UNL     1       3.841   2.574  18.800  0.00  0.00    +0.000 C 
ENDBRANCH   5  19
ENDBRANCH   1  14
BRANCH   2  20
ATOM     20  C   UNL     1       0.562  10.959  19.715  0.00  0.00    +0.000 C 
BRANCH  20  21
ATOM     21  O   UNL     1      -0.249  11.633  18.734  0.00  0.00    +0.000 OA
BRANCH  21  22
ATOM     22  C   UNL     1      -1.583  11.599  19.012  0.00  0.00    +0.000 C 
ATOM     23  O   UNL     1      -2.068  11.763  20.112  0.00  0.00    +0.000 OA
BRANCH  22  24
ATOM     24  C   UNL     1      -2.382  11.221  17.805  0.00  0.00    +0.000 A 
ATOM     25  C   UNL     1      -3.678  11.700  17.567  0.00  0.00    +0.000 A 
ATOM     26  C   UNL     1      -4.391  11.269  16.435  0.00  0.00    +0.000 A 
ATOM     27  C   UNL     1      -3.799  10.373  15.545  0.00  0.00    +0.000 A 
ATOM     28  C   UNL     1      -2.511   9.907  15.763  0.00  0.00    +0.000 A 
ATOM     29  C   UNL     1      -1.804  10.322  16.896  0.00  0.00    +0.000 A 
BRANCH  27  30
ATOM     30  O   UNL     1      -4.455   9.922  14.437  0.00  0.00    +0.000 OA
ATOM     31  H   UNL     1      -5.406  10.093  14.535  0.00  0.00    +0.000 HD
ENDBRANCH  27  30
ENDBRANCH  22  24
ENDBRANCH  21  22
ENDBRANCH  20  21
ENDBRANCH   2  20
TORSDOF 7
ENDMDL
MODEL 9
REMARK VINA RESULT:      -8.2      3.305      8.838
REMARK  Name = 
REMARK  8 active torsions:
REMARK  status: ('A' for Active; 'I' for Inactive)
REMARK    1  A    between atoms: C_1  and  C_2
REMARK    2  A    between atoms: C_2  and  N_3
REMARK    3  A    between atoms: C_12  and  N_13
REMARK    4  A    between atoms: C_14  and  C_16
REMARK    5  A    between atoms: C_16  and  O_17
REMARK    6  A    between atoms: O_17  and  C_18
REMARK    7  A    between atoms: C_18  and  C_20
REMARK    8  A    between atoms: C_23  and  O_24
REMARK                            x       y       z     vdW  Elec       q    Type
REMARK                         _______ _______ _______ _____ _____    ______ ____
ROOT
ATOM      1  N   UNL     1       1.021   9.069  20.221  0.00  0.00    +0.000 N 
ATOM      2  C   UNL     1       1.088   9.698  21.471  0.00  0.00    +0.000 C 
ATOM      3  O   UNL     1       1.710   9.294  22.453  0.00  0.00    +0.000 OA
ATOM      4  H   UNL     1       0.433   9.483  19.506  0.00  0.00    +0.000 HD
ENDROOT
BRANCH   1  14
ATOM      5  N   UNL     1       3.507   4.275  18.784  0.00  0.00    +0.000 N 
ATOM      6  C   UNL     1       4.264   4.616  17.690  0.00  0.00    +0.000 A 
ATOM      7  C   UNL     1       5.111   3.831  16.884  0.00  0.00    +0.000 A 
ATOM      8  C   UNL     1       5.751   4.440  15.801  0.00  0.00    +0.000 A 
ATOM      9  C   UNL     1       5.546   5.786  15.526  0.00  0.00    +0.000 A 
ATOM     10  C   UNL     1       4.700   6.563  16.339  0.00  0.00    +0.000 A 
ATOM     11  C   UNL     1       4.047   5.979  17.445  0.00  0.00    +0.000 A 
ATOM     12  C   UNL     1       3.147   6.457  18.472  0.00  0.00    +0.000 A 
ATOM     13  C   UNL     1       2.536   7.703  18.785  0.00  0.00    +0.000 A 
ATOM     14  C   UNL     1       1.673   7.837  19.892  0.00  0.00    +0.000 A 
ATOM     15  C   UNL     1       1.447   6.723  20.702  0.00  0.00    +0.000 A 
ATOM     16  C   UNL     1       2.042   5.489  20.424  0.00  0.00    +0.000 A 
ATOM     17  C   UNL     1       2.866   5.376  19.298  0.00  0.00    +0.000 A 
BRANCH   5  19
ATOM     18  C   UNL     1       2.214   2.178  18.628  0.00  0.00    +0.000 C 
ATOM     19  C   UNL     1       3.343   2.928  19.310  0.00  0.00    +0.000 C 
ENDBRANCH   5  19
ENDBRANCH   1  14
BRANCH   2  20
ATOM     20  C   UNL     1       0.257  10.971  21.627  0.00  0.00    +0.000 C 
BRANCH  20  21
ATOM     21  O   UNL     1      -1.019  10.796  20.982  0.00  0.00    +0.000 OA
BRANCH  21  22
ATOM     22  C   UNL     1      -1.364  11.832  20.167  0.00  0.00    +0.000 C 
ATOM     23  O   UNL     1      -1.290  13.006  20.464  0.00  0.00    +0.000 OA
BRANCH  22  24
ATOM     24  C   UNL     1      -1.955  11.342  18.882  0.00  0.00    +0.000 A 
ATOM     25  C   UNL     1      -3.200  11.770  18.402  0.00  0.00    +0.000 A 
ATOM     26  C   UNL     1      -3.718  11.235  17.210  0.00  0.00    +0.000 A 
ATOM     27  C   UNL     1      -2.981  10.286  16.502  0.00  0.00    +0.000 A 
ATOM     28  C   UNL     1      -1.740   9.869  16.959  0.00  0.00    +0.000 A 
ATOM     29  C   UNL     1      -1.229  10.388  18.153  0.00  0.00    +0.000 A 
BRANCH  27  30
ATOM     30  O   UNL     1      -3.445   9.735  15.343  0.00  0.00    +0.000 OA
ATOM     31  H   UNL     1      -2.696   9.412  14.818  0.00  0.00    +0.000 HD
ENDBRANCH  27  30
ENDBRANCH  22  24
ENDBRANCH  21  22
ENDBRANCH  20  21
ENDBRANCH   2  20
TORSDOF 7
ENDMDL
