MODEL 1
REMARK VINA RESULT:      -8.0      0.000      0.000
REMARK  Name = 
REMARK  7 active torsions:
REMARK  status: ('A' for Active; 'I' for Inactive)
REMARK    1  A    between atoms: C_1  and  C_2
REMARK    2  A    between atoms: C_2  and  C_3
REMARK    3  A    between atoms: C_2  and  C_4
REMARK    4  A    between atoms: C_9  and  C_11
REMARK    5  A    between atoms: C_11  and  C_12
REMARK    6  A    between atoms: C_12  and  C_13
REMARK    7  A    between atoms: N_15  and  C_16
REMARK                            x       y       z     vdW  Elec       q    Type
REMARK                         _______ _______ _______ _____ _____    ______ ____
ROOT
ATOM      1  C   UNL     1       3.076   2.597  20.868  0.00  0.00    +0.000 C 
ENDROOT
BRANCH   1   7
ATOM      2  C   UNL     1       6.222   4.672  17.727  0.00  0.00    +0.000 A 
ATOM      3  N   UNL     1       6.242   4.383  19.011  0.00  0.00    +0.000 NA
ATOM      4  N   UNL     1       5.150   3.643  19.389  0.00  0.00    +0.000 NA
ATOM      5  C   UNL     1       4.357   3.373  18.385  0.00  0.00    +0.000 A 
ATOM      6  N   UNL     1       3.179   2.670  18.384  0.00  0.00    +0.000 N 
ATOM      7  C   UNL     1       2.539   2.209  19.507  0.00  0.00    +0.000 C 
ATOM      8  O   UNL     1       1.527   1.518  19.382  0.00  0.00    +0.000 OA
ATOM      9  S   UNL     1       4.877   3.991  16.883  0.00  0.00    +0.000 S 
ATOM     10  H   UNL     1       2.747   2.463  17.497  0.00  0.00    +0.000 HD
BRANCH   2  12
ATOM     11  C   UNL     1       6.831   5.822  15.605  0.00  0.00    +0.000 C 
ATOM     12  C   UNL     1       7.265   5.505  17.040  0.00  0.00    +0.000 C 
ATOM     13  C   UNL     1       7.496   6.805  17.815  0.00  0.00    +0.000 C 
ENDBRANCH   2  12
ENDBRANCH   1   7
BRANCH   1  14
ATOM     14  C   UNL     1       2.175   3.519  21.685  0.00  0.00    +0.000 C 
BRANCH  14  15
ATOM     15  C   UNL     1       1.671   4.628  20.776  0.00  0.00    +0.000 C 
ATOM     16  O   UNL     1       0.523   4.619  20.340  0.00  0.00    +0.000 OA
ATOM     17  N   UNL     1       2.619   5.596  20.500  0.00  0.00    +0.000 N 
ATOM     18  H   UNL     1       3.572   5.406  20.784  0.00  0.00    +0.000 HD
BRANCH  17  19
ATOM     19  C   UNL     1       2.401   6.752  19.713  0.00  0.00    +0.000 A 
ATOM     20  C   UNL     1       2.878   6.890  18.402  0.00  0.00    +0.000 A 
ATOM     21  C   UNL     1       2.667   8.067  17.680  0.00  0.00    +0.000 A 
ATOM     22  C   UNL     1       1.970   9.109  18.269  0.00  0.00    +0.000 A 
ATOM     23  F   UNL     1       1.774  10.243  17.583  0.00  0.00    +0.000 F 
ATOM     24  C   UNL     1       1.464   8.988  19.557  0.00  0.00    +0.000 A 
ATOM     25  C   UNL     1       1.671   7.805  20.277  0.00  0.00    +0.000 A 
ENDBRANCH  17  19
ENDBRANCH  14  15
ENDBRANCH   1  14
TORSDOF 5
ENDMDL
MODEL 2
REMARK VINA RESULT:      -7.9      2.663      4.924
REMARK  Name = 
REMARK  7 active torsions:
REMARK  status: ('A' for Active; 'I' for Inactive)
REMARK    1  A    between atoms: C_1  and  C_2
REMARK    2  A    between atoms: C_2  and  C_3
REMARK    3  A    between atoms: C_2  and  C_4
REMARK    4  A    between atoms: C_9  and  C_11
REMARK    5  A    between atoms: C_11  and  C_12
REMARK    6  A    between atoms: C_12  and  C_13
REMARK    7  A    between atoms: N_15  and  C_16
REMARK                            x       y       z     vdW  Elec       q    Type
REMARK                         _______ _______ _______ _____ _____    ______ ____
ROOT
ATOM      1  C   UNL     1       5.895   4.476  15.895  0.00  0.00    +0.000 C 
ENDROOT
BRANCH   1   7
ATOM      2  C   UNL     1       2.757   2.756  19.251  0.00  0.00    +0.000 A 
ATOM      3  N   UNL     1       2.742   2.884  17.942  0.00  0.00    +0.000 NA
ATOM      4  N   UNL     1       3.959   3.285  17.450  0.00  0.00    +0.000 NA
ATOM      5  C   UNL     1       4.857   3.422  18.390  0.00  0.00    +0.000 A 
ATOM      6  N   UNL     1       6.167   3.813  18.278  0.00  0.00    +0.000 N 
ATOM      7  C   UNL     1       6.756   4.262  17.122  0.00  0.00    +0.000 C 
ATOM      8  O   UNL     1       7.963   4.509  17.118  0.00  0.00    +0.000 OA
ATOM      9  S   UNL     1       4.301   3.065  19.962  0.00  0.00    +0.000 S 
ATOM     10  H   UNL     1       6.753   3.762  19.096  0.00  0.00    +0.000 HD
BRANCH   2  12
ATOM     11  C   UNL     1       1.734   2.831  21.519  0.00  0.00    +0.000 C 
ATOM     12  C   UNL     1       1.558   2.371  20.068  0.00  0.00    +0.000 C 
ATOM     13  C   UNL     1       0.291   2.992  19.474  0.00  0.00    +0.000 C 
ENDBRANCH   2  12
ENDBRANCH   1   7
BRANCH   1  14
ATOM     14  C   UNL     1       5.686   5.933  15.493  0.00  0.00    +0.000 C 
BRANCH  14  15
ATOM     15  C   UNL     1       5.159   6.694  16.699  0.00  0.00    +0.000 C 
ATOM     16  O   UNL     1       5.893   7.423  17.360  0.00  0.00    +0.000 OA
ATOM     17  N   UNL     1       3.819   6.467  16.960  0.00  0.00    +0.000 N 
ATOM     18  H   UNL     1       3.367   5.723  16.444  0.00  0.00    +0.000 HD
BRANCH  17  19
ATOM     19  C   UNL     1       3.075   7.076  17.997  0.00  0.00    +0.000 A 
ATOM     20  C   UNL     1       2.893   6.492  19.258  0.00  0.00    +0.000 A 
ATOM     21  C   UNL     1       2.118   7.118  20.236  0.00  0.00    +0.000 A 
ATOM     22  C   UNL     1       1.526   8.338  19.955  0.00  0.00    +0.000 A 
ATOM     23  F   UNL     1       0.773   8.937  20.888  0.00  0.00    +0.000 F 
ATOM     24  C   UNL     1       1.711   8.951  18.722  0.00  0.00    +0.000 A 
ATOM     25  C   UNL     1       2.494   8.325  17.745  0.00  0.00    +0.000 A 
ENDBRANCH  17  19
ENDBRANCH  14  15
ENDBRANCH   1  14
TORSDOF 5
ENDMDL
MODEL 3
REMARK VINA RESULT:      -7.9      4.568      6.998
REMARK  Name = 
REMARK  7 active torsions:
REMARK  status: ('A' for Active; 'I' for Inactive)
REMARK    1  A    between atoms: C_1  and  C_2
REMARK    2  A    between atoms: C_2  and  C_3
REMARK    3  A    between atoms: C_2  and  C_4
REMARK    4  A    between atoms: C_9  and  C_11
REMARK    5  A    between atoms: C_11  and  C_12
REMARK    6  A    between atoms: C_12  and  C_13
REMARK    7  A    between atoms: N_15  and  C_16
REMARK                            x       y       z     vdW  Elec       q    Type
REMARK                         _______ _______ _______ _____ _____    ______ ____
ROOT
ATOM      1  C   UNL     1       6.994   6.415  17.324  0.00  0.00    +0.000 C 
ENDROOT
BRANCH   1   7
ATOM      2  C   UNL     1       3.320   4.454  19.918  0.00  0.00    +0.000 A 
ATOM      3  N   UNL     1       3.640   5.670  19.529  0.00  0.00    +0.000 NA
ATOM      4  N   UNL     1       4.707   5.670  18.666  0.00  0.00    +0.000 NA
ATOM      5  C   UNL     1       5.143   4.464  18.410  0.00  0.00    +0.000 A 
ATOM      6  N   UNL     1       6.188   4.079  17.609  0.00  0.00    +0.000 N 
ATOM      7  C   UNL     1       7.071   4.938  17.003  0.00  0.00    +0.000 C 
ATOM      8  O   UNL     1       7.923   4.484  16.238  0.00  0.00    +0.000 OA
ATOM      9  S   UNL     1       4.283   3.216  19.192  0.00  0.00    +0.000 S 
ATOM     10  H   UNL     1       6.321   3.095  17.438  0.00  0.00    +0.000 HD
BRANCH   2  12
ATOM     11  C   UNL     1       0.874   4.063  20.167  0.00  0.00    +0.000 C 
ATOM     12  C   UNL     1       2.220   4.150  20.894  0.00  0.00    +0.000 C 
ATOM     13  C   UNL     1       2.507   2.833  21.620  0.00  0.00    +0.000 C 
ENDBRANCH   2  12
ENDBRANCH   1   7
BRANCH   1  14
ATOM     14  C   UNL     1       7.975   6.903  18.386  0.00  0.00    +0.000 C 
BRANCH  14  15
ATOM     15  C   UNL     1       8.143   8.406  18.232  0.00  0.00    +0.000 C 
ATOM     16  O   UNL     1       7.529   9.028  17.370  0.00  0.00    +0.000 OA
ATOM     17  N   UNL     1       9.041   8.961  19.127  0.00  0.00    +0.000 N 
ATOM     18  H   UNL     1       9.602   8.323  19.676  0.00  0.00    +0.000 HD
BRANCH  17  19
ATOM     19  C   UNL     1       9.352  10.338  19.222  0.00  0.00    +0.000 A 
ATOM     20  C   UNL     1       9.325  11.050  20.429  0.00  0.00    +0.000 A 
ATOM     21  C   UNL     1       9.606  12.418  20.464  0.00  0.00    +0.000 A 
ATOM     22  C   UNL     1       9.922  13.076  19.288  0.00  0.00    +0.000 A 
ATOM     23  F   UNL     1      10.183  14.390  19.316  0.00  0.00    +0.000 F 
ATOM     24  C   UNL     1       9.981  12.389  18.082  0.00  0.00    +0.000 A 
ATOM     25  C   UNL     1       9.706  11.016  18.049  0.00  0.00    +0.000 A 
ENDBRANCH  17  19
ENDBRANCH  14  15
ENDBRANCH   1  14
TORSDOF 5
ENDMDL
MODEL 4
REMARK VINA RESULT:      -7.9      4.610      7.014
REMARK  Name = 
REMARK  7 active torsions:
REMARK  status: ('A' for Active; 'I' for Inactive)
REMARK    1  A    between atoms: C_1  and  C_2
REMARK    2  A    between atoms: C_2  and  C_3
REMARK    3  A    between atoms: C_2  and  C_4
REMARK    4  A    between atoms: C_9  and  C_11
REMARK    5  A    between atoms: C_11  and  C_12
REMARK    6  A    between atoms: C_12  and  C_13
REMARK    7  A    between atoms: N_15  and  C_16
REMARK                            x       y       z     vdW  Elec       q    Type
REMARK                         _______ _______ _______ _____ _____    ______ ____
ROOT
ATOM      1  C   UNL     1       7.042   6.261  17.716  0.00  0.00    +0.000 C 
ENDROOT
BRANCH   1   7
ATOM      2  C   UNL     1       3.128   4.374  19.995  0.00  0.00    +0.000 A 
ATOM      3  N   UNL     1       3.465   5.569  19.557  0.00  0.00    +0.000 NA
ATOM      4  N   UNL     1       4.628   5.541  18.830  0.00  0.00    +0.000 NA
ATOM      5  C   UNL     1       5.119   4.334  18.718  0.00  0.00    +0.000 A 
ATOM      6  N   UNL     1       6.262   3.926  18.077  0.00  0.00    +0.000 N 
ATOM      7  C   UNL     1       7.191   4.768  17.518  0.00  0.00    +0.000 C 
ATOM      8  O   UNL     1       8.139   4.287  16.895  0.00  0.00    +0.000 OA
ATOM      9  S   UNL     1       4.200   3.119  19.483  0.00  0.00    +0.000 S 
ATOM     10  H   UNL     1       6.437   2.938  17.997  0.00  0.00    +0.000 HD
BRANCH   2  12
ATOM     11  C   UNL     1       0.732   3.701  19.983  0.00  0.00    +0.000 C 
ATOM     12  C   UNL     1       1.926   4.106  20.853  0.00  0.00    +0.000 C 
ATOM     13  C   UNL     1       2.235   2.999  21.865  0.00  0.00    +0.000 C 
ENDBRANCH   2  12
ENDBRANCH   1   7
BRANCH   1  14
ATOM     14  C   UNL     1       8.046   6.893  18.676  0.00  0.00    +0.000 C 
BRANCH  14  15
ATOM     15  C   UNL     1       8.307   8.322  18.227  0.00  0.00    +0.000 C 
ATOM     16  O   UNL     1       7.954   8.713  17.118  0.00  0.00    +0.000 OA
ATOM     17  N   UNL     1       8.971   9.090  19.167  0.00  0.00    +0.000 N 
ATOM     18  H   UNL     1       9.351   8.609  19.973  0.00  0.00    +0.000 HD
BRANCH  17  19
ATOM     19  C   UNL     1       9.303  10.457  19.018  0.00  0.00    +0.000 A 
ATOM     20  C   UNL     1       8.754  11.276  18.022  0.00  0.00    +0.000 A 
ATOM     21  C   UNL     1       9.143  12.612  17.894  0.00  0.00    +0.000 A 
ATOM     22  C   UNL     1      10.080  13.133  18.770  0.00  0.00    +0.000 A 
ATOM     23  F   UNL     1      10.463  14.411  18.644  0.00  0.00    +0.000 F 
ATOM     24  C   UNL     1      10.621  12.349  19.782  0.00  0.00    +0.000 A 
ATOM     25  C   UNL     1      10.225  11.012  19.913  0.00  0.00    +0.000 A 
ENDBRANCH  17  19
ENDBRANCH  14  15
ENDBRANCH   1  14
TORSDOF 5
ENDMDL
MODEL 5
REMARK VINA RESULT:      -7.8      3.746      6.767
REMARK  Name = 
REMARK  7 active torsions:
REMARK  status: ('A' for Active; 'I' for Inactive)
REMARK    1  A    between atoms: C_1  and  C_2
REMARK    2  A    between atoms: C_2  and  C_3
REMARK    3  A    between atoms: C_2  and  C_4
REMARK    4  A    between atoms: C_9  and  C_11
REMARK    5  A    between atoms: C_11  and  C_12
REMARK    6  A    between atoms: C_12  and  C_13
REMARK    7  A    between atoms: N_15  and  C_16
REMARK                            x       y       z     vdW  Elec       q    Type
REMARK                         _______ _______ _______ _____ _____    ______ ____
ROOT
ATOM      1  C   UNL     1       7.374   6.130  18.616  0.00  0.00    +0.000 C 
ENDROOT
BRANCH   1   7
ATOM      2  C   UNL     1       2.961   4.305  19.742  0.00  0.00    +0.000 A 
ATOM      3  N   UNL     1       3.440   5.510  19.513  0.00  0.00    +0.000 NA
ATOM      4  N   UNL     1       4.739   5.471  19.072  0.00  0.00    +0.000 NA
ATOM      5  C   UNL     1       5.193   4.250  18.957  0.00  0.00    +0.000 A 
ATOM      6  N   UNL     1       6.435   3.828  18.557  0.00  0.00    +0.000 N 
ATOM      7  C   UNL     1       7.503   4.654  18.311  0.00  0.00    +0.000 C 
ATOM      8  O   UNL     1       8.550   4.169  17.877  0.00  0.00    +0.000 OA
ATOM      9  S   UNL     1       4.070   3.034  19.368  0.00  0.00    +0.000 S 
ATOM     10  H   UNL     1       6.583   2.840  18.422  0.00  0.00    +0.000 HD
BRANCH   2  12
ATOM     11  C   UNL     1       1.656   3.175  21.535  0.00  0.00    +0.000 C 
ATOM     12  C   UNL     1       1.582   4.041  20.272  0.00  0.00    +0.000 C 
ATOM     13  C   UNL     1       0.873   5.361  20.585  0.00  0.00    +0.000 C 
ENDBRANCH   2  12
ENDBRANCH   1   7
BRANCH   1  14
ATOM     14  C   UNL     1       7.500   7.058  17.411  0.00  0.00    +0.000 C 
BRANCH  14  15
ATOM     15  C   UNL     1       6.700   6.465  16.263  0.00  0.00    +0.000 C 
ATOM     16  O   UNL     1       5.550   6.830  16.035  0.00  0.00    +0.000 OA
ATOM     17  N   UNL     1       7.385   5.500  15.546  0.00  0.00    +0.000 N 
ATOM     18  H   UNL     1       8.262   5.173  15.930  0.00  0.00    +0.000 HD
BRANCH  17  19
ATOM     19  C   UNL     1       6.887   4.819  14.410  0.00  0.00    +0.000 A 
ATOM     20  C   UNL     1       7.520   4.844  13.160  0.00  0.00    +0.000 A 
ATOM     21  C   UNL     1       6.967   4.184  12.060  0.00  0.00    +0.000 A 
ATOM     22  C   UNL     1       5.778   3.490  12.212  0.00  0.00    +0.000 A 
ATOM     23  F   UNL     1       5.240   2.864  11.157  0.00  0.00    +0.000 F 
ATOM     24  C   UNL     1       5.144   3.428  13.446  0.00  0.00    +0.000 A 
ATOM     25  C   UNL     1       5.703   4.084  14.550  0.00  0.00    +0.000 A 
ENDBRANCH  17  19
ENDBRANCH  14  15
ENDBRANCH   1  14
TORSDOF 5
ENDMDL
MODEL 6
REMARK VINA RESULT:      -7.8      3.983      6.873
REMARK  Name = 
REMARK  7 active torsions:
REMARK  status: ('A' for Active; 'I' for Inactive)
REMARK    1  A    between atoms: C_1  and  C_2
REMARK    2  A    between atoms: C_2  and  C_3
REMARK    3  A    between atoms: C_2  and  C_4
REMARK    4  A    between atoms: C_9  and  C_11
REMARK    5  A    between atoms: C_11  and  C_12
REMARK    6  A    between atoms: C_12  and  C_13
REMARK    7  A    between atoms: N_15  and  C_16
REMARK                            x       y       z     vdW  Elec       q    Type
REMARK                         _______ _______ _______ _____ _____    ______ ____
ROOT
ATOM      1  C   UNL     1       6.756   6.294  18.626  0.00  0.00    +0.000 C 
ENDROOT
BRANCH   1   7
ATOM      2  C   UNL     1       2.679   3.881  19.902  0.00  0.00    +0.000 A 
ATOM      3  N   UNL     1       2.957   5.117  19.547  0.00  0.00    +0.000 NA
ATOM      4  N   UNL     1       4.256   5.252  19.125  0.00  0.00    +0.000 NA
ATOM      5  C   UNL     1       4.909   4.119  19.149  0.00  0.00    +0.000 A 
ATOM      6  N   UNL     1       6.215   3.872  18.810  0.00  0.00    +0.000 N 
ATOM      7  C   UNL     1       7.137   4.836  18.485  0.00  0.00    +0.000 C 
ATOM      8  O   UNL     1       8.262   4.492  18.117  0.00  0.00    +0.000 OA
ATOM      9  S   UNL     1       3.994   2.782  19.680  0.00  0.00    +0.000 S 
ATOM     10  H   UNL     1       6.529   2.916  18.785  0.00  0.00    +0.000 HD
BRANCH   2  12
ATOM     11  C   UNL     1       0.572   2.663  19.381  0.00  0.00    +0.000 C 
ATOM     12  C   UNL     1       1.349   3.445  20.445  0.00  0.00    +0.000 C 
ATOM     13  C   UNL     1       1.545   2.579  21.692  0.00  0.00    +0.000 C 
ENDBRANCH   2  12
ENDBRANCH   1   7
BRANCH   1  14
ATOM     14  C   UNL     1       7.005   7.155  17.391  0.00  0.00    +0.000 C 
BRANCH  14  15
ATOM     15  C   UNL     1       6.320   6.500  16.202  0.00  0.00    +0.000 C 
ATOM     16  O   UNL     1       5.177   6.810  15.878  0.00  0.00    +0.000 OA
ATOM     17  N   UNL     1       7.097   5.547  15.567  0.00  0.00    +0.000 N 
ATOM     18  H   UNL     1       7.954   5.267  16.026  0.00  0.00    +0.000 HD
BRANCH  17  19
ATOM     19  C   UNL     1       6.715   4.817  14.416  0.00  0.00    +0.000 A 
ATOM     20  C   UNL     1       5.591   3.981  14.375  0.00  0.00    +0.000 A 
ATOM     21  C   UNL     1       5.277   3.254  13.225  0.00  0.00    +0.000 A 
ATOM     22  C   UNL     1       6.089   3.366  12.108  0.00  0.00    +0.000 A 
ATOM     23  F   UNL     1       5.797   2.662  11.006  0.00  0.00    +0.000 F 
ATOM     24  C   UNL     1       7.194   4.207  12.114  0.00  0.00    +0.000 A 
ATOM     25  C   UNL     1       7.503   4.941  13.266  0.00  0.00    +0.000 A 
ENDBRANCH  17  19
ENDBRANCH  14  15
ENDBRANCH   1  14
TORSDOF 5
ENDMDL
MODEL 7
REMARK VINA RESULT:      -7.7      0.754      1.293
REMARK  Name = 
REMARK  7 active torsions:
REMARK  status: ('A' for Active; 'I' for Inactive)
REMARK    1  A    between atoms: C_1  and  C_2
REMARK    2  A    between atoms: C_2  and  C_3
REMARK    3  A    between atoms: C_2  and  C_4
REMARK    4  A    between atoms: C_9  and  C_11
REMARK    5  A    between atoms: C_11  and  C_12
REMARK    6  A    between atoms: C_12  and  C_13
REMARK    7  A    between atoms: N_15  and  C_16
REMARK                            x       y       z     vdW  Elec       q    Type
REMARK                         _______ _______ _______ _____ _____    ______ ____
ROOT
ATOM      1  C   UNL     1       3.167   2.422  20.407  0.00  0.00    +0.000 C 
ENDROOT
BRANCH   1   7
ATOM      2  C   UNL     1       6.410   5.320  18.136  0.00  0.00    +0.000 A 
ATOM      3  N   UNL     1       6.370   4.694  19.293  0.00  0.00    +0.000 NA
ATOM      4  N   UNL     1       5.283   3.862  19.391  0.00  0.00    +0.000 NA
ATOM      5  C   UNL     1       4.553   3.863  18.306  0.00  0.00    +0.000 A 
ATOM      6  N   UNL     1       3.399   3.169  18.045  0.00  0.00    +0.000 N 
ATOM      7  C   UNL     1       2.715   2.411  18.962  0.00  0.00    +0.000 C 
ATOM      8  O   UNL     1       1.732   1.764  18.595  0.00  0.00    +0.000 OA
ATOM      9  S   UNL     1       5.132   4.874  17.060  0.00  0.00    +0.000 S 
ATOM     10  H   UNL     1       3.021   3.205  17.112  0.00  0.00    +0.000 HD
BRANCH   2  12
ATOM     11  C   UNL     1       6.808   7.600  17.221  0.00  0.00    +0.000 C 
ATOM     12  C   UNL     1       7.461   6.325  17.763  0.00  0.00    +0.000 C 
ATOM     13  C   UNL     1       8.329   6.658  18.979  0.00  0.00    +0.000 C 
ENDBRANCH   2  12
ENDBRANCH   1   7
BRANCH   1  14
ATOM     14  C   UNL     1       2.220   3.119  21.380  0.00  0.00    +0.000 C 
BRANCH  14  15
ATOM     15  C   UNL     1       1.628   4.336  20.688  0.00  0.00    +0.000 C 
ATOM     16  O   UNL     1       0.468   4.336  20.286  0.00  0.00    +0.000 OA
ATOM     17  N   UNL     1       2.516   5.389  20.557  0.00  0.00    +0.000 N 
ATOM     18  H   UNL     1       3.486   5.208  20.781  0.00  0.00    +0.000 HD
BRANCH  17  19
ATOM     19  C   UNL     1       2.212   6.647  19.986  0.00  0.00    +0.000 A 
ATOM     20  C   UNL     1       1.593   7.684  20.697  0.00  0.00    +0.000 A 
ATOM     21  C   UNL     1       1.280   8.896  20.076  0.00  0.00    +0.000 A 
ATOM     22  C   UNL     1       1.595   9.074  18.739  0.00  0.00    +0.000 A 
ATOM     23  F   UNL     1       1.288  10.232  18.138  0.00  0.00    +0.000 F 
ATOM     24  C   UNL     1       2.232   8.072  18.019  0.00  0.00    +0.000 A 
ATOM     25  C   UNL     1       2.551   6.860  18.644  0.00  0.00    +0.000 A 
ENDBRANCH  17  19
ENDBRANCH  14  15
ENDBRANCH   1  14
TORSDOF 5
ENDMDL
MODEL 8
REMARK VINA RESULT:      -7.6      2.691      4.899
REMARK  Name = 
REMARK  7 active torsions:
REMARK  status: ('A' for Active; 'I' for Inactive)
REMARK    1  A    between atoms: C_1  and  C_2
REMARK    2  A    between atoms: C_2  and  C_3
REMARK    3  A    between atoms: C_2  and  C_4
REMARK    4  A    between atoms: C_9  and  C_11
REMARK    5  A    between atoms: C_11  and  C_12
REMARK    6  A    between atoms: C_12  and  C_13
REMARK    7  A    between atoms: N_15  and  C_16
REMARK                            x       y       z     vdW  Elec       q    Type
REMARK                         _______ _______ _______ _____ _____    ______ ____
ROOT
ATOM      1  C   UNL     1       5.443   4.965  15.539  0.00  0.00    +0.000 C 
ENDROOT
BRANCH   1   7
ATOM      2  C   UNL     1       2.786   3.019  19.176  0.00  0.00    +0.000 A 
ATOM      3  N   UNL     1       2.545   3.370  17.931  0.00  0.00    +0.000 NA
ATOM      4  N   UNL     1       3.691   3.725  17.265  0.00  0.00    +0.000 NA
ATOM      5  C   UNL     1       4.759   3.609  18.010  0.00  0.00    +0.000 A 
ATOM      6  N   UNL     1       6.065   3.880  17.690  0.00  0.00    +0.000 N 
ATOM      7  C   UNL     1       6.481   4.459  16.517  0.00  0.00    +0.000 C 
ATOM      8  O   UNL     1       7.689   4.581  16.303  0.00  0.00    +0.000 OA
ATOM      9  S   UNL     1       4.464   3.045  19.592  0.00  0.00    +0.000 S 
ATOM     10  H   UNL     1       6.781   3.632  18.354  0.00  0.00    +0.000 HD
BRANCH   2  12
ATOM     11  C   UNL     1       2.272   2.661  21.585  0.00  0.00    +0.000 C 
ATOM     12  C   UNL     1       1.720   2.622  20.156  0.00  0.00    +0.000 C 
ATOM     13  C   UNL     1       0.516   3.558  20.035  0.00  0.00    +0.000 C 
ENDBRANCH   2  12
ENDBRANCH   1   7
BRANCH   1  14
ATOM     14  C   UNL     1       5.281   6.481  15.487  0.00  0.00    +0.000 C 
BRANCH  14  15
ATOM     15  C   UNL     1       4.805   6.961  16.849  0.00  0.00    +0.000 C 
ATOM     16  O   UNL     1       5.604   7.251  17.735  0.00  0.00    +0.000 OA
ATOM     17  N   UNL     1       3.428   7.016  16.970  0.00  0.00    +0.000 N 
ATOM     18  H   UNL     1       2.880   6.597  16.229  0.00  0.00    +0.000 HD
BRANCH  17  19
ATOM     19  C   UNL     1       2.726   7.461  18.115  0.00  0.00    +0.000 A 
ATOM     20  C   UNL     1       2.026   8.674  18.163  0.00  0.00    +0.000 A 
ATOM     21  C   UNL     1       1.379   9.085  19.331  0.00  0.00    +0.000 A 
ATOM     22  C   UNL     1       1.427   8.277  20.455  0.00  0.00    +0.000 A 
ATOM     23  F   UNL     1       0.816   8.673  21.579  0.00  0.00    +0.000 F 
ATOM     24  C   UNL     1       2.092   7.058  20.425  0.00  0.00    +0.000 A 
ATOM     25  C   UNL     1       2.735   6.644  19.252  0.00  0.00    +0.000 A 
ENDBRANCH  17  19
ENDBRANCH  14  15
ENDBRANCH   1  14
TORSDOF 5
ENDMDL
MODEL 9
REMARK VINA RESULT:      -7.6      4.632      7.153
REMARK  Name = 
REMARK  7 active torsions:
REMARK  status: ('A' for Active; 'I' for Inactive)
REMARK    1  A    between atoms: C_1  and  C_2
REMARK    2  A    between atoms: C_2  and  C_3
REMARK    3  A    between atoms: C_2  and  C_4
REMARK    4  A    between atoms: C_9  and  C_11
REMARK    5  A    between atoms: C_11  and  C_12
REMARK    6  A    between atoms: C_12  and  C_13
REMARK    7  A    between atoms: N_15  and  C_16
REMARK                            x       y       z     vdW  Elec       q    Type
REMARK                         _______ _______ _______ _____ _____    ______ ____
ROOT
ATOM      1  C   UNL     1       6.456   6.406  18.075  0.00  0.00    +0.000 C 
ENDROOT
BRANCH   1   7
ATOM      2  C   UNL     1       2.570   3.868  19.666  0.00  0.00    +0.000 A 
ATOM      3  N   UNL     1       2.786   5.118  19.316  0.00  0.00    +0.000 NA
ATOM      4  N   UNL     1       4.037   5.293  18.779  0.00  0.00    +0.000 NA
ATOM      5  C   UNL     1       4.715   4.177  18.715  0.00  0.00    +0.000 A 
ATOM      6  N   UNL     1       5.988   3.969  18.250  0.00  0.00    +0.000 N 
ATOM      7  C   UNL     1       6.855   4.961  17.864  0.00  0.00    +0.000 C 
ATOM      8  O   UNL     1       7.947   4.653  17.385  0.00  0.00    +0.000 OA
ATOM      9  S   UNL     1       3.883   2.806  19.296  0.00  0.00    +0.000 S 
ATOM     10  H   UNL     1       6.320   3.021  18.173  0.00  0.00    +0.000 HD
BRANCH   2  12
ATOM     11  C   UNL     1       0.529   2.475  19.365  0.00  0.00    +0.000 C 
ATOM     12  C   UNL     1       1.306   3.388  20.319  0.00  0.00    +0.000 C 
ATOM     13  C   UNL     1       1.632   2.636  21.612  0.00  0.00    +0.000 C 
ENDBRANCH   2  12
ENDBRANCH   1   7
BRANCH   1  14
ATOM     14  C   UNL     1       7.210   7.421  17.220  0.00  0.00    +0.000 C 
BRANCH  14  15
ATOM     15  C   UNL     1       8.183   8.173  18.114  0.00  0.00    +0.000 C 
ATOM     16  O   UNL     1       8.757   7.612  19.042  0.00  0.00    +0.000 OA
ATOM     17  N   UNL     1       8.327   9.509  17.781  0.00  0.00    +0.000 N 
ATOM     18  H   UNL     1       7.680   9.889  17.102  0.00  0.00    +0.000 HD
BRANCH  17  19
ATOM     19  C   UNL     1       9.194  10.422  18.425  0.00  0.00    +0.000 A 
ATOM     20  C   UNL     1      10.122  11.216  17.738  0.00  0.00    +0.000 A 
ATOM     21  C   UNL     1      10.981  12.076  18.425  0.00  0.00    +0.000 A 
ATOM     22  C   UNL     1      10.909  12.148  19.806  0.00  0.00    +0.000 A 
ATOM     23  F   UNL     1      11.738  12.965  20.470  0.00  0.00    +0.000 F 
ATOM     24  C   UNL     1       9.980  11.392  20.510  0.00  0.00    +0.000 A 
ATOM     25  C   UNL     1       9.114  10.534  19.819  0.00  0.00    +0.000 A 
ENDBRANCH  17  19
ENDBRANCH  14  15
ENDBRANCH   1  14
TORSDOF 5
ENDMDL
