MODEL 1
REMARK VINA RESULT:      -6.1      0.000      0.000
REMARK  Name = 
REMARK  1 active torsions:
REMARK  status: ('A' for Active; 'I' for Inactive)
REMARK    1  A    between atoms: N_6  and  C_7
REMARK                            x       y       z     vdW  Elec       q    Type
REMARK                         _______ _______ _______ _____ _____    ______ ____
ROOT
ATOM      1  C   UNL     1       4.070   4.240  19.333  0.00  0.00    +0.000 A 
ATOM      2  C   UNL     1       3.795   2.992  19.918  0.00  0.00    +0.000 A 
ATOM      3  C   UNL     1       2.739   2.824  20.822  0.00  0.00    +0.000 A 
ATOM      4  C   UNL     1       1.921   3.901  21.141  0.00  0.00    +0.000 A 
ATOM      5  C   UNL     1       2.173   5.135  20.560  0.00  0.00    +0.000 A 
ATOM      6  F   UNL     1       1.376   6.173  20.846  0.00  0.00    +0.000 F 
ATOM      7  C   UNL     1       3.236   5.315  19.677  0.00  0.00    +0.000 A 
ENDROOT
BRANCH   1  13
ATOM      8  O   UNL     1       6.848   5.286  19.856  0.00  0.00    +0.000 OA
ATOM      9  C   UNL     1       6.411   4.938  18.769  0.00  0.00    +0.000 A 
ATOM     10  C   UNL     1       7.267   5.020  17.564  0.00  0.00    +0.000 A 
ATOM     11  C   UNL     1       6.635   4.585  16.474  0.00  0.00    +0.000 A 
ATOM     12  S   UNL     1       5.033   4.021  16.764  0.00  0.00    +0.000 S 
ATOM     13  N   UNL     1       5.162   4.409  18.434  0.00  0.00    +0.000 N 
ENDBRANCH   1  13
TORSDOF 1
ENDMDL
MODEL 2
REMARK VINA RESULT:      -6.1      3.581      5.474
REMARK  Name = 
REMARK  1 active torsions:
REMARK  status: ('A' for Active; 'I' for Inactive)
REMARK    1  A    between atoms: N_6  and  C_7
REMARK                            x       y       z     vdW  Elec       q    Type
REMARK                         _______ _______ _______ _____ _____    ______ ____
ROOT
ATOM      1  C   UNL     1       3.917   4.420  17.465  0.00  0.00    +0.000 A 
ATOM      2  C   UNL     1       4.019   5.821  17.438  0.00  0.00    +0.000 A 
ATOM      3  C   UNL     1       4.914   6.474  16.582  0.00  0.00    +0.000 A 
ATOM      4  C   UNL     1       5.711   5.733  15.717  0.00  0.00    +0.000 A 
ATOM      5  C   UNL     1       5.611   4.350  15.723  0.00  0.00    +0.000 A 
ATOM      6  F   UNL     1       6.360   3.631  14.878  0.00  0.00    +0.000 F 
ATOM      7  C   UNL     1       4.738   3.693  16.589  0.00  0.00    +0.000 A 
ENDROOT
BRANCH   1  13
ATOM      8  O   UNL     1       0.928   4.076  17.285  0.00  0.00    +0.000 OA
ATOM      9  C   UNL     1       1.635   3.684  18.200  0.00  0.00    +0.000 A 
ATOM     10  C   UNL     1       1.033   2.980  19.355  0.00  0.00    +0.000 A 
ATOM     11  C   UNL     1       1.952   2.611  20.247  0.00  0.00    +0.000 A 
ATOM     12  S   UNL     1       3.567   3.015  19.806  0.00  0.00    +0.000 S 
ATOM     13  N   UNL     1       3.022   3.762  18.357  0.00  0.00    +0.000 N 
ENDBRANCH   1  13
TORSDOF 1
ENDMDL
MODEL 3
REMARK VINA RESULT:      -6.1      3.014      3.359
REMARK  Name = 
REMARK  1 active torsions:
REMARK  status: ('A' for Active; 'I' for Inactive)
REMARK    1  A    between atoms: N_6  and  C_7
REMARK                            x       y       z     vdW  Elec       q    Type
REMARK                         _______ _______ _______ _____ _____    ______ ____
ROOT
ATOM      1  C   UNL     1       4.258   4.954  17.877  0.00  0.00    +0.000 A 
ATOM      2  C   UNL     1       3.044   5.651  18.004  0.00  0.00    +0.000 A 
ATOM      3  C   UNL     1       1.811   4.990  17.945  0.00  0.00    +0.000 A 
ATOM      4  C   UNL     1       1.771   3.611  17.780  0.00  0.00    +0.000 A 
ATOM      5  C   UNL     1       2.961   2.909  17.666  0.00  0.00    +0.000 A 
ATOM      6  F   UNL     1       2.931   1.577  17.528  0.00  0.00    +0.000 F 
ATOM      7  C   UNL     1       4.192   3.563  17.701  0.00  0.00    +0.000 A 
ENDROOT
BRANCH   1  13
ATOM      8  O   UNL     1       5.485   6.826  15.859  0.00  0.00    +0.000 OA
ATOM      9  C   UNL     1       6.006   6.464  16.903  0.00  0.00    +0.000 A 
ATOM     10  C   UNL     1       7.360   6.944  17.263  0.00  0.00    +0.000 A 
ATOM     11  C   UNL     1       7.761   6.463  18.439  0.00  0.00    +0.000 A 
ATOM     12  S   UNL     1       6.604   5.459  19.225  0.00  0.00    +0.000 S 
ATOM     13  N   UNL     1       5.508   5.636  17.912  0.00  0.00    +0.000 N 
ENDBRANCH   1  13
TORSDOF 1
ENDMDL
MODEL 4
REMARK VINA RESULT:      -6.1      1.204      1.785
REMARK  Name = 
REMARK  1 active torsions:
REMARK  status: ('A' for Active; 'I' for Inactive)
REMARK    1  A    between atoms: N_6  and  C_7
REMARK                            x       y       z     vdW  Elec       q    Type
REMARK                         _______ _______ _______ _____ _____    ______ ____
ROOT
ATOM      1  C   UNL     1       3.982   4.538  19.099  0.00  0.00    +0.000 A 
ATOM      2  C   UNL     1       3.314   5.732  19.423  0.00  0.00    +0.000 A 
ATOM      3  C   UNL     1       2.144   5.730  20.191  0.00  0.00    +0.000 A 
ATOM      4  C   UNL     1       1.631   4.531  20.671  0.00  0.00    +0.000 A 
ATOM      5  C   UNL     1       2.287   3.347  20.371  0.00  0.00    +0.000 A 
ATOM      6  F   UNL     1       1.811   2.190  20.848  0.00  0.00    +0.000 F 
ATOM      7  C   UNL     1       3.440   3.339  19.587  0.00  0.00    +0.000 A 
ENDROOT
BRANCH   1  13
ATOM      8  O   UNL     1       6.810   5.273  19.835  0.00  0.00    +0.000 OA
ATOM      9  C   UNL     1       6.429   4.936  18.725  0.00  0.00    +0.000 A 
ATOM     10  C   UNL     1       7.387   4.872  17.598  0.00  0.00    +0.000 A 
ATOM     11  C   UNL     1       6.802   4.471  16.470  0.00  0.00    +0.000 A 
ATOM     12  S   UNL     1       5.126   4.109  16.633  0.00  0.00    +0.000 S 
ATOM     13  N   UNL     1       5.158   4.544  18.296  0.00  0.00    +0.000 N 
ENDBRANCH   1  13
TORSDOF 1
ENDMDL
MODEL 5
REMARK VINA RESULT:      -6.1      2.423      2.641
REMARK  Name = 
REMARK  1 active torsions:
REMARK  status: ('A' for Active; 'I' for Inactive)
REMARK    1  A    between atoms: N_6  and  C_7
REMARK                            x       y       z     vdW  Elec       q    Type
REMARK                         _______ _______ _______ _____ _____    ______ ____
ROOT
ATOM      1  C   UNL     1       2.968   4.560  18.558  0.00  0.00    +0.000 A 
ATOM      2  C   UNL     1       2.972   4.960  19.905  0.00  0.00    +0.000 A 
ATOM      3  C   UNL     1       2.034   4.463  20.818  0.00  0.00    +0.000 A 
ATOM      4  C   UNL     1       1.086   3.536  20.403  0.00  0.00    +0.000 A 
ATOM      5  C   UNL     1       1.079   3.123  19.079  0.00  0.00    +0.000 A 
ATOM      6  F   UNL     1       0.182   2.215  18.676  0.00  0.00    +0.000 F 
ATOM      7  C   UNL     1       1.996   3.631  18.160  0.00  0.00    +0.000 A 
ENDROOT
BRANCH   1  13
ATOM      8  O   UNL     1       3.503   7.422  17.779  0.00  0.00    +0.000 OA
ATOM      9  C   UNL     1       4.060   6.442  17.310  0.00  0.00    +0.000 A 
ATOM     10  C   UNL     1       5.090   6.604  16.259  0.00  0.00    +0.000 A 
ATOM     11  C   UNL     1       5.602   5.434  15.879  0.00  0.00    +0.000 A 
ATOM     12  S   UNL     1       4.962   4.075  16.723  0.00  0.00    +0.000 S 
ATOM     13  N   UNL     1       3.910   5.089  17.629  0.00  0.00    +0.000 N 
ENDBRANCH   1  13
TORSDOF 1
ENDMDL
MODEL 6
REMARK VINA RESULT:      -6.0      2.246      2.387
REMARK  Name = 
REMARK  1 active torsions:
REMARK  status: ('A' for Active; 'I' for Inactive)
REMARK    1  A    between atoms: N_6  and  C_7
REMARK                            x       y       z     vdW  Elec       q    Type
REMARK                         _______ _______ _______ _____ _____    ______ ____
ROOT
ATOM      1  C   UNL     1       2.869   4.300  18.584  0.00  0.00    +0.000 A 
ATOM      2  C   UNL     1       1.761   3.590  18.090  0.00  0.00    +0.000 A 
ATOM      3  C   UNL     1       0.868   2.937  18.950  0.00  0.00    +0.000 A 
ATOM      4  C   UNL     1       1.056   3.004  20.325  0.00  0.00    +0.000 A 
ATOM      5  C   UNL     1       2.137   3.713  20.826  0.00  0.00    +0.000 A 
ATOM      6  F   UNL     1       2.313   3.799  22.151  0.00  0.00    +0.000 F 
ATOM      7  C   UNL     1       3.043   4.345  19.975  0.00  0.00    +0.000 A 
ENDROOT
BRANCH   1  13
ATOM      8  O   UNL     1       3.324   7.236  18.081  0.00  0.00    +0.000 OA
ATOM      9  C   UNL     1       3.900   6.320  17.516  0.00  0.00    +0.000 A 
ATOM     10  C   UNL     1       4.915   6.610  16.477  0.00  0.00    +0.000 A 
ATOM     11  C   UNL     1       5.451   5.494  15.981  0.00  0.00    +0.000 A 
ATOM     12  S   UNL     1       4.854   4.045  16.694  0.00  0.00    +0.000 S 
ATOM     13  N   UNL     1       3.787   4.940  17.702  0.00  0.00    +0.000 N 
ENDBRANCH   1  13
TORSDOF 1
ENDMDL
MODEL 7
REMARK VINA RESULT:      -6.0      2.045      2.311
REMARK  Name = 
REMARK  1 active torsions:
REMARK  status: ('A' for Active; 'I' for Inactive)
REMARK    1  A    between atoms: N_6  and  C_7
REMARK                            x       y       z     vdW  Elec       q    Type
REMARK                         _______ _______ _______ _____ _____    ______ ____
ROOT
ATOM      1  C   UNL     1       3.187   4.904  18.954  0.00  0.00    +0.000 A 
ATOM      2  C   UNL     1       2.692   5.391  20.176  0.00  0.00    +0.000 A 
ATOM      3  C   UNL     1       1.532   4.864  20.757  0.00  0.00    +0.000 A 
ATOM      4  C   UNL     1       0.858   3.819  20.136  0.00  0.00    +0.000 A 
ATOM      5  C   UNL     1       1.344   3.321  18.937  0.00  0.00    +0.000 A 
ATOM      6  F   UNL     1       0.712   2.300  18.342  0.00  0.00    +0.000 F 
ATOM      7  C   UNL     1       2.484   3.856  18.341  0.00  0.00    +0.000 A 
ENDROOT
BRANCH   1  13
ATOM      8  O   UNL     1       6.080   4.123  19.279  0.00  0.00    +0.000 OA
ATOM      9  C   UNL     1       5.665   5.047  18.598  0.00  0.00    +0.000 A 
ATOM     10  C   UNL     1       6.614   5.902  17.849  0.00  0.00    +0.000 A 
ATOM     11  C   UNL     1       5.987   6.847  17.148  0.00  0.00    +0.000 A 
ATOM     12  S   UNL     1       4.270   6.797  17.275  0.00  0.00    +0.000 S 
ATOM     13  N   UNL     1       4.353   5.463  18.355  0.00  0.00    +0.000 N 
ENDBRANCH   1  13
TORSDOF 1
ENDMDL
MODEL 8
REMARK VINA RESULT:      -6.0      3.119      5.098
REMARK  Name = 
REMARK  1 active torsions:
REMARK  status: ('A' for Active; 'I' for Inactive)
REMARK    1  A    between atoms: N_6  and  C_7
REMARK                            x       y       z     vdW  Elec       q    Type
REMARK                         _______ _______ _______ _____ _____    ______ ____
ROOT
ATOM      1  C   UNL     1       4.741   3.925  17.597  0.00  0.00    +0.000 A 
ATOM      2  C   UNL     1       5.026   3.805  16.226  0.00  0.00    +0.000 A 
ATOM      3  C   UNL     1       6.266   4.189  15.700  0.00  0.00    +0.000 A 
ATOM      4  C   UNL     1       7.255   4.680  16.544  0.00  0.00    +0.000 A 
ATOM      5  C   UNL     1       6.991   4.790  17.901  0.00  0.00    +0.000 A 
ATOM      6  F   UNL     1       7.947   5.243  18.723  0.00  0.00    +0.000 F 
ATOM      7  C   UNL     1       5.752   4.432  18.428  0.00  0.00    +0.000 A 
ENDROOT
BRANCH   1  13
ATOM      8  O   UNL     1       3.695   1.209  18.378  0.00  0.00    +0.000 OA
ATOM      9  C   UNL     1       3.065   2.254  18.424  0.00  0.00    +0.000 A 
ATOM     10  C   UNL     1       1.658   2.253  18.885  0.00  0.00    +0.000 A 
ATOM     11  C   UNL     1       1.134   3.479  18.886  0.00  0.00    +0.000 A 
ATOM     12  S   UNL     1       2.227   4.715  18.393  0.00  0.00    +0.000 S 
ATOM     13  N   UNL     1       3.468   3.557  18.121  0.00  0.00    +0.000 N 
ENDBRANCH   1  13
TORSDOF 1
ENDMDL
MODEL 9
REMARK VINA RESULT:      -6.0      1.574      1.899
REMARK  Name = 
REMARK  1 active torsions:
REMARK  status: ('A' for Active; 'I' for Inactive)
REMARK    1  A    between atoms: N_6  and  C_7
REMARK                            x       y       z     vdW  Elec       q    Type
REMARK                         _______ _______ _______ _____ _____    ______ ____
ROOT
ATOM      1  C   UNL     1       3.903   3.977  18.448  0.00  0.00    +0.000 A 
ATOM      2  C   UNL     1       2.715   4.372  17.811  0.00  0.00    +0.000 A 
ATOM      3  C   UNL     1       1.460   4.084  18.361  0.00  0.00    +0.000 A 
ATOM      4  C   UNL     1       1.372   3.414  19.575  0.00  0.00    +0.000 A 
ATOM      5  C   UNL     1       2.538   3.032  20.221  0.00  0.00    +0.000 A 
ATOM      6  F   UNL     1       2.461   2.404  21.402  0.00  0.00    +0.000 F 
ATOM      7  C   UNL     1       3.790   3.294  19.668  0.00  0.00    +0.000 A 
ENDROOT
BRANCH   1  13
ATOM      8  O   UNL     1       6.386   5.123  19.716  0.00  0.00    +0.000 OA
ATOM      9  C   UNL     1       6.264   4.818  18.540  0.00  0.00    +0.000 A 
ATOM     10  C   UNL     1       7.393   5.012  17.601  0.00  0.00    +0.000 A 
ATOM     11  C   UNL     1       7.088   4.610  16.367  0.00  0.00    +0.000 A 
ATOM     12  S   UNL     1       5.503   3.955  16.208  0.00  0.00    +0.000 S 
ATOM     13  N   UNL     1       5.177   4.251  17.870  0.00  0.00    +0.000 N 
ENDBRANCH   1  13
TORSDOF 1
ENDMDL
