MODEL 1
REMARK VINA RESULT:      -7.7      0.000      0.000
REMARK  Name = 
REMARK  5 active torsions:
REMARK  status: ('A' for Active; 'I' for Inactive)
REMARK    1  A    between atoms: C_2  and  C_3
REMARK    2  A    between atoms: N_6  and  S_7
REMARK    3  A    between atoms: S_7  and  C_10
REMARK    4  A    between atoms: C_10  and  C_11
REMARK    5  A    between atoms: N_22  and  C_23
REMARK                            x       y       z     vdW  Elec       q    Type
REMARK                         _______ _______ _______ _____ _____    ______ ____
ROOT
ATOM      1  C   UNL     1       2.478   6.070  19.175  0.00  0.00    +0.000 C 
ATOM      2  C   UNL     1       3.726   5.747  19.991  0.00  0.00    +0.000 C 
ATOM      3  C   UNL     1       5.018   5.585  19.203  0.00  0.00    +0.000 C 
ATOM      4  N   UNL     1       4.911   4.831  17.927  0.00  0.00    +0.000 NA
ATOM      5  C   UNL     1       3.645   5.039  17.156  0.00  0.00    +0.000 C 
ATOM      6  C   UNL     1       2.400   5.052  18.034  0.00  0.00    +0.000 C 
ENDROOT
BRANCH   1   8
ATOM      7  O   UNL     1       2.864   7.895  17.639  0.00  0.00    +0.000 OA
ATOM      8  C   UNL     1       2.325   7.530  18.695  0.00  0.00    +0.000 C 
ATOM      9  N   UNL     1       1.538   8.406  19.428  0.00  0.00    +0.000 N 
ATOM     10  C   UNL     1       0.767   8.091  20.637  0.00  0.00    +0.000 C 
ATOM     11  C   UNL     1       1.022   9.157  21.713  0.00  0.00    +0.000 C 
ATOM     12  N   UNL     1       0.673  10.501  21.222  0.00  0.00    +0.000 N 
ATOM     13  C   UNL     1       1.306  10.876  19.936  0.00  0.00    +0.000 C 
ATOM     14  C   UNL     1       1.211   9.741  18.883  0.00  0.00    +0.000 C 
BRANCH  12  15
ATOM     15  C   UNL     1      -0.498  11.124  21.639  0.00  0.00    +0.000 A 
ATOM     16  C   UNL     1      -1.143  12.043  20.792  0.00  0.00    +0.000 A 
ATOM     17  C   UNL     1      -2.286  12.751  21.198  0.00  0.00    +0.000 A 
ATOM     18  C   UNL     1      -2.825  12.548  22.465  0.00  0.00    +0.000 A 
ATOM     19  C   UNL     1      -2.216  11.644  23.324  0.00  0.00    +0.000 A 
ATOM     20  C   UNL     1      -1.072  10.953  22.915  0.00  0.00    +0.000 A 
ATOM     21  F   UNL     1      -0.539  10.088  23.792  0.00  0.00    +0.000 F 
ENDBRANCH  12  15
ENDBRANCH   1   8
BRANCH   4  22
ATOM     22  S   UNL     1       6.299   5.079  16.881  0.00  0.00    +0.000 S 
ATOM     23  O   UNL     1       7.117   6.100  17.505  0.00  0.00    +0.000 OA
ATOM     24  O   UNL     1       6.831   3.762  16.586  0.00  0.00    +0.000 OA
BRANCH  22  25
ATOM     25  C   UNL     1       5.543   5.779  15.398  0.00  0.00    +0.000 C 
BRANCH  25  26
ATOM     26  C   UNL     1       6.023   5.015  14.183  0.00  0.00    +0.000 A 
ATOM     27  C   UNL     1       7.268   5.310  13.605  0.00  0.00    +0.000 A 
ATOM     28  C   UNL     1       7.715   4.619  12.478  0.00  0.00    +0.000 A 
ATOM     29  C   UNL     1       6.923   3.621  11.912  0.00  0.00    +0.000 A 
ATOM     30  C   UNL     1       5.686   3.318  12.473  0.00  0.00    +0.000 A 
ATOM     31  C   UNL     1       5.236   4.010  13.602  0.00  0.00    +0.000 A 
ENDBRANCH  25  26
ENDBRANCH  22  25
ENDBRANCH   4  22
TORSDOF 5
ENDMDL
MODEL 2
REMARK VINA RESULT:      -7.7      0.684      1.134
REMARK  Name = 
REMARK  5 active torsions:
REMARK  status: ('A' for Active; 'I' for Inactive)
REMARK    1  A    between atoms: C_2  and  C_3
REMARK    2  A    between atoms: N_6  and  S_7
REMARK    3  A    between atoms: S_7  and  C_10
REMARK    4  A    between atoms: C_10  and  C_11
REMARK    5  A    between atoms: N_22  and  C_23
REMARK                            x       y       z     vdW  Elec       q    Type
REMARK                         _______ _______ _______ _____ _____    ______ ____
ROOT
ATOM      1  C   UNL     1       2.403   6.249  19.158  0.00  0.00    +0.000 C 
ATOM      2  C   UNL     1       3.661   5.894  19.945  0.00  0.00    +0.000 C 
ATOM      3  C   UNL     1       4.934   5.718  19.129  0.00  0.00    +0.000 C 
ATOM      4  N   UNL     1       4.787   4.980  17.847  0.00  0.00    +0.000 NA
ATOM      5  C   UNL     1       3.510   5.220  17.105  0.00  0.00    +0.000 C 
ATOM      6  C   UNL     1       2.283   5.244  18.008  0.00  0.00    +0.000 C 
ENDROOT
BRANCH   1   8
ATOM      7  O   UNL     1       2.811   8.089  17.647  0.00  0.00    +0.000 OA
ATOM      8  C   UNL     1       2.267   7.716  18.697  0.00  0.00    +0.000 C 
ATOM      9  N   UNL     1       1.486   8.590  19.440  0.00  0.00    +0.000 N 
ATOM     10  C   UNL     1       0.710   8.268  20.643  0.00  0.00    +0.000 C 
ATOM     11  C   UNL     1       0.974   9.317  21.734  0.00  0.00    +0.000 C 
ATOM     12  N   UNL     1       0.640  10.670  21.260  0.00  0.00    +0.000 N 
ATOM     13  C   UNL     1       1.279  11.056  19.980  0.00  0.00    +0.000 C 
ATOM     14  C   UNL     1       1.175   9.936  18.912  0.00  0.00    +0.000 C 
BRANCH  12  15
ATOM     15  C   UNL     1      -0.526  11.301  21.682  0.00  0.00    +0.000 A 
ATOM     16  C   UNL     1      -1.108  12.304  20.888  0.00  0.00    +0.000 A 
ATOM     17  C   UNL     1      -2.241  13.018  21.307  0.00  0.00    +0.000 A 
ATOM     18  C   UNL     1      -2.835  12.737  22.534  0.00  0.00    +0.000 A 
ATOM     19  C   UNL     1      -2.288  11.748  23.341  0.00  0.00    +0.000 A 
ATOM     20  C   UNL     1      -1.153  11.052  22.920  0.00  0.00    +0.000 A 
ATOM     21  F   UNL     1      -0.681  10.103  23.745  0.00  0.00    +0.000 F 
ENDBRANCH  12  15
ENDBRANCH   1   8
BRANCH   4  22
ATOM     22  S   UNL     1       6.158   5.216  16.776  0.00  0.00    +0.000 S 
ATOM     23  O   UNL     1       5.834   6.341  15.921  0.00  0.00    +0.000 OA
ATOM     24  O   UNL     1       7.340   5.224  17.618  0.00  0.00    +0.000 OA
BRANCH  22  25
ATOM     25  C   UNL     1       6.129   3.712  15.778  0.00  0.00    +0.000 C 
BRANCH  25  26
ATOM     26  C   UNL     1       6.505   4.050  14.351  0.00  0.00    +0.000 A 
ATOM     27  C   UNL     1       5.784   3.500  13.278  0.00  0.00    +0.000 A 
ATOM     28  C   UNL     1       6.130   3.797  11.959  0.00  0.00    +0.000 A 
ATOM     29  C   UNL     1       7.201   4.649  11.692  0.00  0.00    +0.000 A 
ATOM     30  C   UNL     1       7.925   5.200  12.746  0.00  0.00    +0.000 A 
ATOM     31  C   UNL     1       7.581   4.903  14.068  0.00  0.00    +0.000 A 
ENDBRANCH  25  26
ENDBRANCH  22  25
ENDBRANCH   4  22
TORSDOF 5
ENDMDL
MODEL 3
REMARK VINA RESULT:      -7.6      2.138      2.811
REMARK  Name = 
REMARK  5 active torsions:
REMARK  status: ('A' for Active; 'I' for Inactive)
REMARK    1  A    between atoms: C_2  and  C_3
REMARK    2  A    between atoms: N_6  and  S_7
REMARK    3  A    between atoms: S_7  and  C_10
REMARK    4  A    between atoms: C_10  and  C_11
REMARK    5  A    between atoms: N_22  and  C_23
REMARK                            x       y       z     vdW  Elec       q    Type
REMARK                         _______ _______ _______ _____ _____    ______ ____
ROOT
ATOM      1  C   UNL     1       1.442   5.375  20.993  0.00  0.00    +0.000 C 
ATOM      2  C   UNL     1       2.571   4.480  21.497  0.00  0.00    +0.000 C 
ATOM      3  C   UNL     1       3.301   3.665  20.439  0.00  0.00    +0.000 C 
ATOM      4  N   UNL     1       2.446   3.040  19.396  0.00  0.00    +0.000 NA
ATOM      5  C   UNL     1       1.262   3.845  18.962  0.00  0.00    +0.000 C 
ATOM      6  C   UNL     1       0.528   4.511  20.118  0.00  0.00    +0.000 C 
ENDROOT
BRANCH   1   8
ATOM      7  O   UNL     1       2.847   6.724  19.564  0.00  0.00    +0.000 OA
ATOM      8  C   UNL     1       1.858   6.697  20.312  0.00  0.00    +0.000 C 
ATOM      9  N   UNL     1       1.083   7.831  20.504  0.00  0.00    +0.000 N 
ATOM     10  C   UNL     1      -0.161   7.925  21.278  0.00  0.00    +0.000 C 
ATOM     11  C   UNL     1      -0.107   9.145  22.210  0.00  0.00    +0.000 C 
ATOM     12  N   UNL     1       0.112  10.385  21.448  0.00  0.00    +0.000 N 
ATOM     13  C   UNL     1       1.279  10.356  20.536  0.00  0.00    +0.000 C 
ATOM     14  C   UNL     1       1.341   9.048  19.704  0.00  0.00    +0.000 C 
BRANCH  12  15
ATOM     15  C   UNL     1      -0.936  11.271  21.222  0.00  0.00    +0.000 A 
ATOM     16  C   UNL     1      -1.418  11.469  19.916  0.00  0.00    +0.000 A 
ATOM     17  C   UNL     1      -2.423  12.406  19.629  0.00  0.00    +0.000 A 
ATOM     18  C   UNL     1      -2.986  13.167  20.650  0.00  0.00    +0.000 A 
ATOM     19  C   UNL     1      -2.537  12.992  21.952  0.00  0.00    +0.000 A 
ATOM     20  C   UNL     1      -1.528  12.065  22.225  0.00  0.00    +0.000 A 
ATOM     21  F   UNL     1      -1.147  11.942  23.507  0.00  0.00    +0.000 F 
ENDBRANCH  12  15
ENDBRANCH   1   8
BRANCH   4  22
ATOM     22  S   UNL     1       3.368   2.521  17.994  0.00  0.00    +0.000 S 
ATOM     23  O   UNL     1       3.632   1.107  18.166  0.00  0.00    +0.000 OA
ATOM     24  O   UNL     1       2.659   3.020  16.830  0.00  0.00    +0.000 OA
BRANCH  22  25
ATOM     25  C   UNL     1       4.919   3.422  18.198  0.00  0.00    +0.000 C 
BRANCH  25  26
ATOM     26  C   UNL     1       5.153   4.297  16.986  0.00  0.00    +0.000 A 
ATOM     27  C   UNL     1       5.707   3.754  15.816  0.00  0.00    +0.000 A 
ATOM     28  C   UNL     1       5.938   4.554  14.696  0.00  0.00    +0.000 A 
ATOM     29  C   UNL     1       5.618   5.911  14.730  0.00  0.00    +0.000 A 
ATOM     30  C   UNL     1       5.069   6.464  15.883  0.00  0.00    +0.000 A 
ATOM     31  C   UNL     1       4.838   5.663  17.007  0.00  0.00    +0.000 A 
ENDBRANCH  25  26
ENDBRANCH  22  25
ENDBRANCH   4  22
TORSDOF 5
ENDMDL
MODEL 4
REMARK VINA RESULT:      -7.5      2.218      2.855
REMARK  Name = 
REMARK  5 active torsions:
REMARK  status: ('A' for Active; 'I' for Inactive)
REMARK    1  A    between atoms: C_2  and  C_3
REMARK    2  A    between atoms: N_6  and  S_7
REMARK    3  A    between atoms: S_7  and  C_10
REMARK    4  A    between atoms: C_10  and  C_11
REMARK    5  A    between atoms: N_22  and  C_23
REMARK                            x       y       z     vdW  Elec       q    Type
REMARK                         _______ _______ _______ _____ _____    ______ ____
ROOT
ATOM      1  C   UNL     1       1.467   5.474  20.990  0.00  0.00    +0.000 C 
ATOM      2  C   UNL     1       2.624   4.608  21.478  0.00  0.00    +0.000 C 
ATOM      3  C   UNL     1       3.341   3.787  20.415  0.00  0.00    +0.000 C 
ATOM      4  N   UNL     1       2.470   3.130  19.405  0.00  0.00    +0.000 NA
ATOM      5  C   UNL     1       1.261   3.908  18.989  0.00  0.00    +0.000 C 
ATOM      6  C   UNL     1       0.546   4.580  20.153  0.00  0.00    +0.000 C 
ENDROOT
BRANCH   1   8
ATOM      7  O   UNL     1       2.734   6.798  19.415  0.00  0.00    +0.000 OA
ATOM      8  C   UNL     1       1.842   6.792  20.277  0.00  0.00    +0.000 C 
ATOM      9  N   UNL     1       1.135   7.948  20.573  0.00  0.00    +0.000 N 
ATOM     10  C   UNL     1      -0.002   8.070  21.494  0.00  0.00    +0.000 C 
ATOM     11  C   UNL     1       0.205   9.275  22.425  0.00  0.00    +0.000 C 
ATOM     12  N   UNL     1       0.373  10.518  21.654  0.00  0.00    +0.000 N 
ATOM     13  C   UNL     1       1.419  10.465  20.607  0.00  0.00    +0.000 C 
ATOM     14  C   UNL     1       1.335   9.167  19.760  0.00  0.00    +0.000 C 
BRANCH  12  15
ATOM     15  C   UNL     1      -0.665  11.441  21.566  0.00  0.00    +0.000 A 
ATOM     16  C   UNL     1      -0.953  12.278  22.657  0.00  0.00    +0.000 A 
ATOM     17  C   UNL     1      -2.035  13.172  22.641  0.00  0.00    +0.000 A 
ATOM     18  C   UNL     1      -2.856  13.262  21.521  0.00  0.00    +0.000 A 
ATOM     19  C   UNL     1      -2.596  12.453  20.423  0.00  0.00    +0.000 A 
ATOM     20  C   UNL     1      -1.523  11.558  20.454  0.00  0.00    +0.000 A 
ATOM     21  F   UNL     1      -1.323  10.812  19.355  0.00  0.00    +0.000 F 
ENDBRANCH  12  15
ENDBRANCH   1   8
BRANCH   4  22
ATOM     22  S   UNL     1       3.364   2.604  17.988  0.00  0.00    +0.000 S 
ATOM     23  O   UNL     1       3.652   1.196  18.173  0.00  0.00    +0.000 OA
ATOM     24  O   UNL     1       2.619   3.076  16.835  0.00  0.00    +0.000 OA
BRANCH  22  25
ATOM     25  C   UNL     1       4.906   3.530  18.140  0.00  0.00    +0.000 C 
BRANCH  25  26
ATOM     26  C   UNL     1       5.220   4.201  16.821  0.00  0.00    +0.000 A 
ATOM     27  C   UNL     1       5.816   3.472  15.778  0.00  0.00    +0.000 A 
ATOM     28  C   UNL     1       6.120   4.085  14.562  0.00  0.00    +0.000 A 
ATOM     29  C   UNL     1       5.832   5.435  14.369  0.00  0.00    +0.000 A 
ATOM     30  C   UNL     1       5.244   6.170  15.393  0.00  0.00    +0.000 A 
ATOM     31  C   UNL     1       4.939   5.559  16.614  0.00  0.00    +0.000 A 
ENDBRANCH  25  26
ENDBRANCH  22  25
ENDBRANCH   4  22
TORSDOF 5
ENDMDL
MODEL 5
REMARK VINA RESULT:      -7.5      5.010     10.800
REMARK  Name = 
REMARK  5 active torsions:
REMARK  status: ('A' for Active; 'I' for Inactive)
REMARK    1  A    between atoms: C_2  and  C_3
REMARK    2  A    between atoms: N_6  and  S_7
REMARK    3  A    between atoms: S_7  and  C_10
REMARK    4  A    between atoms: C_10  and  C_11
REMARK    5  A    between atoms: N_22  and  C_23
REMARK                            x       y       z     vdW  Elec       q    Type
REMARK                         _______ _______ _______ _____ _____    ______ ____
ROOT
ATOM      1  C   UNL     1       1.038  11.538  18.778  0.00  0.00    +0.000 C 
ATOM      2  C   UNL     1       1.931  12.766  18.924  0.00  0.00    +0.000 C 
ATOM      3  C   UNL     1       1.394  13.883  19.807  0.00  0.00    +0.000 C 
ATOM      4  N   UNL     1      -0.052  14.195  19.654  0.00  0.00    +0.000 NA
ATOM      5  C   UNL     1      -0.943  13.020  19.394  0.00  0.00    +0.000 C 
ATOM      6  C   UNL     1      -0.360  12.032  18.393  0.00  0.00    +0.000 C 
ENDROOT
BRANCH   1   8
ATOM      7  O   UNL     1       0.787  10.954  21.108  0.00  0.00    +0.000 OA
ATOM      8  C   UNL     1       1.025  10.547  19.962  0.00  0.00    +0.000 C 
ATOM      9  N   UNL     1       1.227   9.196  19.717  0.00  0.00    +0.000 N 
ATOM     10  C   UNL     1       1.422   8.560  18.409  0.00  0.00    +0.000 C 
ATOM     11  C   UNL     1       2.622   7.603  18.466  0.00  0.00    +0.000 C 
ATOM     12  N   UNL     1       2.435   6.579  19.506  0.00  0.00    +0.000 N 
ATOM     13  C   UNL     1       2.110   7.110  20.851  0.00  0.00    +0.000 C 
ATOM     14  C   UNL     1       1.016   8.209  20.797  0.00  0.00    +0.000 C 
BRANCH  12  15
ATOM     15  C   UNL     1       2.090   5.276  19.163  0.00  0.00    +0.000 A 
ATOM     16  C   UNL     1       1.237   4.533  19.998  0.00  0.00    +0.000 A 
ATOM     17  C   UNL     1       0.920   3.191  19.730  0.00  0.00    +0.000 A 
ATOM     18  C   UNL     1       1.442   2.557  18.607  0.00  0.00    +0.000 A 
ATOM     19  C   UNL     1       2.284   3.263  17.758  0.00  0.00    +0.000 A 
ATOM     20  C   UNL     1       2.602   4.594  18.040  0.00  0.00    +0.000 A 
ATOM     21  F   UNL     1       3.415   5.221  17.174  0.00  0.00    +0.000 F 
ENDBRANCH  12  15
ENDBRANCH   1   8
BRANCH   4  22
ATOM     22  S   UNL     1      -0.681  15.142  20.991  0.00  0.00    +0.000 S 
ATOM     23  O   UNL     1       0.100  16.361  21.045  0.00  0.00    +0.000 OA
ATOM     24  O   UNL     1      -2.122  15.176  20.827  0.00  0.00    +0.000 OA
BRANCH  22  25
ATOM     25  C   UNL     1      -0.252  14.124  22.419  0.00  0.00    +0.000 C 
BRANCH  25  26
ATOM     26  C   UNL     1      -1.513  13.759  23.171  0.00  0.00    +0.000 A 
ATOM     27  C   UNL     1      -2.145  12.526  22.942  0.00  0.00    +0.000 A 
ATOM     28  C   UNL     1      -3.315  12.185  23.622  0.00  0.00    +0.000 A 
ATOM     29  C   UNL     1      -3.871  13.071  24.543  0.00  0.00    +0.000 A 
ATOM     30  C   UNL     1      -3.257  14.298  24.780  0.00  0.00    +0.000 A 
ATOM     31  C   UNL     1      -2.085  14.642  24.098  0.00  0.00    +0.000 A 
ENDBRANCH  25  26
ENDBRANCH  22  25
ENDBRANCH   4  22
TORSDOF 5
ENDMDL
MODEL 6
REMARK VINA RESULT:      -7.5      3.273      4.902
REMARK  Name = 
REMARK  5 active torsions:
REMARK  status: ('A' for Active; 'I' for Inactive)
REMARK    1  A    between atoms: C_2  and  C_3
REMARK    2  A    between atoms: N_6  and  S_7
REMARK    3  A    between atoms: S_7  and  C_10
REMARK    4  A    between atoms: C_10  and  C_11
REMARK    5  A    between atoms: N_22  and  C_23
REMARK                            x       y       z     vdW  Elec       q    Type
REMARK                         _______ _______ _______ _____ _____    ______ ____
ROOT
ATOM      1  C   UNL     1       0.791  10.322  18.723  0.00  0.00    +0.000 C 
ATOM      2  C   UNL     1       2.079   9.981  17.979  0.00  0.00    +0.000 C 
ATOM      3  C   UNL     1       2.511   8.523  18.024  0.00  0.00    +0.000 C 
ATOM      4  N   UNL     1       2.367   7.842  19.338  0.00  0.00    +0.000 NA
ATOM      5  C   UNL     1       1.172   8.241  20.146  0.00  0.00    +0.000 C 
ATOM      6  C   UNL     1       0.910   9.741  20.136  0.00  0.00    +0.000 C 
ENDROOT
BRANCH   1   8
ATOM      7  O   UNL     1      -0.523   9.176  17.051  0.00  0.00    +0.000 OA
ATOM      8  C   UNL     1      -0.533   9.945  18.024  0.00  0.00    +0.000 C 
ATOM      9  N   UNL     1      -1.729  10.432  18.530  0.00  0.00    +0.000 N 
ATOM     10  C   UNL     1      -1.903  11.268  19.724  0.00  0.00    +0.000 C 
ATOM     11  C   UNL     1      -2.827  12.452  19.405  0.00  0.00    +0.000 C 
ATOM     12  N   UNL     1      -4.135  11.987  18.915  0.00  0.00    +0.000 N 
ATOM     13  C   UNL     1      -4.073  11.037  17.781  0.00  0.00    +0.000 C 
ATOM     14  C   UNL     1      -3.016   9.923  18.007  0.00  0.00    +0.000 C 
BRANCH  12  15
ATOM     15  C   UNL     1      -5.254  12.024  19.742  0.00  0.00    +0.000 A 
ATOM     16  C   UNL     1      -5.224  12.774  20.930  0.00  0.00    +0.000 A 
ATOM     17  C   UNL     1      -6.301  12.781  21.830  0.00  0.00    +0.000 A 
ATOM     18  C   UNL     1      -7.450  12.044  21.558  0.00  0.00    +0.000 A 
ATOM     19  C   UNL     1      -7.515  11.297  20.390  0.00  0.00    +0.000 A 
ATOM     20  C   UNL     1      -6.432  11.287  19.506  0.00  0.00    +0.000 A 
ATOM     21  F   UNL     1      -6.565  10.550  18.392  0.00  0.00    +0.000 F 
ENDBRANCH  12  15
ENDBRANCH   1   8
BRANCH   4  22
ATOM     22  S   UNL     1       2.444   6.094  19.202  0.00  0.00    +0.000 S 
ATOM     23  O   UNL     1       1.878   5.552  20.421  0.00  0.00    +0.000 OA
ATOM     24  O   UNL     1       1.894   5.759  17.901  0.00  0.00    +0.000 OA
BRANCH  22  25
ATOM     25  C   UNL     1       4.223   5.785  19.211  0.00  0.00    +0.000 C 
BRANCH  25  26
ATOM     26  C   UNL     1       4.676   5.423  17.813  0.00  0.00    +0.000 A 
ATOM     27  C   UNL     1       4.812   4.077  17.438  0.00  0.00    +0.000 A 
ATOM     28  C   UNL     1       5.240   3.733  16.154  0.00  0.00    +0.000 A 
ATOM     29  C   UNL     1       5.537   4.730  15.226  0.00  0.00    +0.000 A 
ATOM     30  C   UNL     1       5.408   6.069  15.585  0.00  0.00    +0.000 A 
ATOM     31  C   UNL     1       4.981   6.416  16.871  0.00  0.00    +0.000 A 
ENDBRANCH  25  26
ENDBRANCH  22  25
ENDBRANCH   4  22
TORSDOF 5
ENDMDL
MODEL 7
REMARK VINA RESULT:      -7.4      1.512      1.833
REMARK  Name = 
REMARK  5 active torsions:
REMARK  status: ('A' for Active; 'I' for Inactive)
REMARK    1  A    between atoms: C_2  and  C_3
REMARK    2  A    between atoms: N_6  and  S_7
REMARK    3  A    between atoms: S_7  and  C_10
REMARK    4  A    between atoms: C_10  and  C_11
REMARK    5  A    between atoms: N_22  and  C_23
REMARK                            x       y       z     vdW  Elec       q    Type
REMARK                         _______ _______ _______ _____ _____    ______ ____
ROOT
ATOM      1  C   UNL     1       2.478   6.240  19.199  0.00  0.00    +0.000 C 
ATOM      2  C   UNL     1       3.741   5.844  19.959  0.00  0.00    +0.000 C 
ATOM      3  C   UNL     1       4.876   5.273  19.120  0.00  0.00    +0.000 C 
ATOM      4  N   UNL     1       4.478   4.315  18.055  0.00  0.00    +0.000 NA
ATOM      5  C   UNL     1       3.183   4.613  17.368  0.00  0.00    +0.000 C 
ATOM      6  C   UNL     1       2.079   5.049  18.322  0.00  0.00    +0.000 C 
ENDROOT
BRANCH   1   8
ATOM      7  O   UNL     1       3.248   7.681  17.419  0.00  0.00    +0.000 OA
ATOM      8  C   UNL     1       2.528   7.574  18.423  0.00  0.00    +0.000 C 
ATOM      9  N   UNL     1       1.720   8.625  18.830  0.00  0.00    +0.000 N 
ATOM     10  C   UNL     1       0.752   8.613  19.934  0.00  0.00    +0.000 C 
ATOM     11  C   UNL     1       0.936   9.864  20.806  0.00  0.00    +0.000 C 
ATOM     12  N   UNL     1       0.784  11.093  20.010  0.00  0.00    +0.000 N 
ATOM     13  C   UNL     1       1.632  11.157  18.797  0.00  0.00    +0.000 C 
ATOM     14  C   UNL     1       1.597   9.834  17.987  0.00  0.00    +0.000 C 
BRANCH  12  15
ATOM     15  C   UNL     1      -0.377  11.853  20.097  0.00  0.00    +0.000 A 
ATOM     16  C   UNL     1      -0.408  12.994  20.918  0.00  0.00    +0.000 A 
ATOM     17  C   UNL     1      -1.578  13.750  21.095  0.00  0.00    +0.000 A 
ATOM     18  C   UNL     1      -2.753  13.390  20.441  0.00  0.00    +0.000 A 
ATOM     19  C   UNL     1      -2.756  12.271  19.618  0.00  0.00    +0.000 A 
ATOM     20  C   UNL     1      -1.589  11.519  19.459  0.00  0.00    +0.000 A 
ATOM     21  F   UNL     1      -1.659  10.455  18.643  0.00  0.00    +0.000 F 
ENDBRANCH  12  15
ENDBRANCH   1   8
BRANCH   4  22
ATOM     22  S   UNL     1       5.747   4.065  16.868  0.00  0.00    +0.000 S 
ATOM     23  O   UNL     1       6.979   4.536  17.466  0.00  0.00    +0.000 OA
ATOM     24  O   UNL     1       5.609   2.698  16.401  0.00  0.00    +0.000 OA
BRANCH  22  25
ATOM     25  C   UNL     1       5.274   5.210  15.554  0.00  0.00    +0.000 C 
BRANCH  25  26
ATOM     26  C   UNL     1       5.900   4.764  14.251  0.00  0.00    +0.000 A 
ATOM     27  C   UNL     1       5.219   3.875  13.404  0.00  0.00    +0.000 A 
ATOM     28  C   UNL     1       5.793   3.449  12.205  0.00  0.00    +0.000 A 
ATOM     29  C   UNL     1       7.057   3.905  11.835  0.00  0.00    +0.000 A 
ATOM     30  C   UNL     1       7.745   4.785  12.666  0.00  0.00    +0.000 A 
ATOM     31  C   UNL     1       7.172   5.213  13.868  0.00  0.00    +0.000 A 
ENDBRANCH  25  26
ENDBRANCH  22  25
ENDBRANCH   4  22
TORSDOF 5
ENDMDL
MODEL 8
REMARK VINA RESULT:      -7.4      7.303     11.273
REMARK  Name = 
REMARK  5 active torsions:
REMARK  status: ('A' for Active; 'I' for Inactive)
REMARK    1  A    between atoms: C_2  and  C_3
REMARK    2  A    between atoms: N_6  and  S_7
REMARK    3  A    between atoms: S_7  and  C_10
REMARK    4  A    between atoms: C_10  and  C_11
REMARK    5  A    between atoms: N_22  and  C_23
REMARK                            x       y       z     vdW  Elec       q    Type
REMARK                         _______ _______ _______ _____ _____    ______ ____
ROOT
ATOM      1  C   UNL     1       3.591  15.470  18.244  0.00  0.00    +0.000 C 
ATOM      2  C   UNL     1       2.409  16.426  18.382  0.00  0.00    +0.000 C 
ATOM      3  C   UNL     1       1.341  16.028  19.390  0.00  0.00    +0.000 C 
ATOM      4  N   UNL     1       0.968  14.589  19.408  0.00  0.00    +0.000 NA
ATOM      5  C   UNL     1       2.087  13.628  19.161  0.00  0.00    +0.000 C 
ATOM      6  C   UNL     1       3.021  14.064  18.039  0.00  0.00    +0.000 C 
ENDROOT
BRANCH   1   8
ATOM      7  O   UNL     1       4.378  15.993  20.467  0.00  0.00    +0.000 OA
ATOM      8  C   UNL     1       4.665  15.533  19.352  0.00  0.00    +0.000 C 
ATOM      9  N   UNL     1       5.929  15.021  19.100  0.00  0.00    +0.000 N 
ATOM     10  C   UNL     1       6.381  14.364  17.868  0.00  0.00    +0.000 C 
ATOM     11  C   UNL     1       7.733  14.947  17.428  0.00  0.00    +0.000 C 
ATOM     12  N   UNL     1       8.745  14.796  18.486  0.00  0.00    +0.000 N 
ATOM     13  C   UNL     1       8.342  15.320  19.812  0.00  0.00    +0.000 C 
ATOM     14  C   UNL     1       6.905  14.883  20.202  0.00  0.00    +0.000 C 
BRANCH  12  15
ATOM     15  C   UNL     1       9.734  13.823  18.385  0.00  0.00    +0.000 A 
ATOM     16  C   UNL     1      10.799  13.997  17.484  0.00  0.00    +0.000 A 
ATOM     17  C   UNL     1      11.779  13.010  17.295  0.00  0.00    +0.000 A 
ATOM     18  C   UNL     1      11.728  11.821  18.016  0.00  0.00    +0.000 A 
ATOM     19  C   UNL     1      10.693  11.620  18.920  0.00  0.00    +0.000 A 
ATOM     20  C   UNL     1       9.715  12.603  19.091  0.00  0.00    +0.000 A 
ATOM     21  F   UNL     1       8.747  12.347  19.986  0.00  0.00    +0.000 F 
ENDBRANCH  12  15
ENDBRANCH   1   8
BRANCH   4  22
ATOM     22  S   UNL     1       0.098  14.139  20.865  0.00  0.00    +0.000 S 
ATOM     23  O   UNL     1       1.089  13.690  21.823  0.00  0.00    +0.000 OA
ATOM     24  O   UNL     1      -0.796  15.241  21.166  0.00  0.00    +0.000 OA
BRANCH  22  25
ATOM     25  C   UNL     1      -0.857  12.709  20.317  0.00  0.00    +0.000 C 
BRANCH  25  26
ATOM     26  C   UNL     1      -0.527  11.520  21.192  0.00  0.00    +0.000 A 
ATOM     27  C   UNL     1      -1.157  11.359  22.437  0.00  0.00    +0.000 A 
ATOM     28  C   UNL     1      -0.851  10.271  23.257  0.00  0.00    +0.000 A 
ATOM     29  C   UNL     1       0.089   9.328  22.844  0.00  0.00    +0.000 A 
ATOM     30  C   UNL     1       0.722   9.475  21.613  0.00  0.00    +0.000 A 
ATOM     31  C   UNL     1       0.418  10.565  20.791  0.00  0.00    +0.000 A 
ENDBRANCH  25  26
ENDBRANCH  22  25
ENDBRANCH   4  22
TORSDOF 5
ENDMDL
MODEL 9
REMARK VINA RESULT:      -7.4      7.606     11.409
REMARK  Name = 
REMARK  5 active torsions:
REMARK  status: ('A' for Active; 'I' for Inactive)
REMARK    1  A    between atoms: C_2  and  C_3
REMARK    2  A    between atoms: N_6  and  S_7
REMARK    3  A    between atoms: S_7  and  C_10
REMARK    4  A    between atoms: C_10  and  C_11
REMARK    5  A    between atoms: N_22  and  C_23
REMARK                            x       y       z     vdW  Elec       q    Type
REMARK                         _______ _______ _______ _____ _____    ______ ____
ROOT
ATOM      1  C   UNL     1       3.760  15.621  18.085  0.00  0.00    +0.000 C 
ATOM      2  C   UNL     1       2.486  16.461  18.134  0.00  0.00    +0.000 C 
ATOM      3  C   UNL     1       1.463  16.064  19.188  0.00  0.00    +0.000 C 
ATOM      4  N   UNL     1       1.239  14.604  19.359  0.00  0.00    +0.000 NA
ATOM      5  C   UNL     1       2.451  13.741  19.202  0.00  0.00    +0.000 C 
ATOM      6  C   UNL     1       3.337  14.150  18.033  0.00  0.00    +0.000 C 
ENDROOT
BRANCH   1   8
ATOM      7  O   UNL     1       4.551  16.667  20.114  0.00  0.00    +0.000 OA
ATOM      8  C   UNL     1       4.820  15.908  19.171  0.00  0.00    +0.000 C 
ATOM      9  N   UNL     1       6.048  15.267  19.105  0.00  0.00    +0.000 N 
ATOM     10  C   UNL     1       6.469  14.277  18.107  0.00  0.00    +0.000 C 
ATOM     11  C   UNL     1       7.865  14.632  17.572  0.00  0.00    +0.000 C 
ATOM     12  N   UNL     1       8.849  14.704  18.665  0.00  0.00    +0.000 N 
ATOM     13  C   UNL     1       8.466  15.589  19.790  0.00  0.00    +0.000 C 
ATOM     14  C   UNL     1       6.996  15.366  20.235  0.00  0.00    +0.000 C 
BRANCH  12  15
ATOM     15  C   UNL     1       9.768  13.678  18.858  0.00  0.00    +0.000 A 
ATOM     16  C   UNL     1       9.778  12.965  20.070  0.00  0.00    +0.000 A 
ATOM     17  C   UNL     1      10.734  11.972  20.338  0.00  0.00    +0.000 A 
ATOM     18  C   UNL     1      11.703  11.655  19.391  0.00  0.00    +0.000 A 
ATOM     19  C   UNL     1      11.717  12.336  18.181  0.00  0.00    +0.000 A 
ATOM     20  C   UNL     1      10.769  13.331  17.929  0.00  0.00    +0.000 A 
ATOM     21  F   UNL     1      10.836  13.944  16.736  0.00  0.00    +0.000 F 
ENDBRANCH  12  15
ENDBRANCH   1   8
BRANCH   4  22
ATOM     22  S   UNL     1       0.417  14.222  20.863  0.00  0.00    +0.000 S 
ATOM     23  O   UNL     1       1.401  13.609  21.733  0.00  0.00    +0.000 OA
ATOM     24  O   UNL     1      -0.296  15.423  21.257  0.00  0.00    +0.000 OA
BRANCH  22  25
ATOM     25  C   UNL     1      -0.760  12.954  20.347  0.00  0.00    +0.000 C 
BRANCH  25  26
ATOM     26  C   UNL     1      -0.548  11.707  21.177  0.00  0.00    +0.000 A 
ATOM     27  C   UNL     1       0.245  10.655  20.689  0.00  0.00    +0.000 A 
ATOM     28  C   UNL     1       0.437   9.496  21.442  0.00  0.00    +0.000 A 
ATOM     29  C   UNL     1      -0.160   9.371  22.696  0.00  0.00    +0.000 A 
ATOM     30  C   UNL     1      -0.950  10.404  23.192  0.00  0.00    +0.000 A 
ATOM     31  C   UNL     1      -1.145  11.566  22.438  0.00  0.00    +0.000 A 
ENDBRANCH  25  26
ENDBRANCH  22  25
ENDBRANCH   4  22
TORSDOF 5
ENDMDL
