MODEL 1
REMARK VINA RESULT:      -6.4      0.000      0.000
REMARK  Name = 
REMARK  6 active torsions:
REMARK  status: ('A' for Active; 'I' for Inactive)
REMARK    1  A    between atoms: C_1  and  C_2
REMARK    2  A    between atoms: C_2  and  C_3
REMARK    3  A    between atoms: C_4  and  C_5
REMARK    4  A    between atoms: C_6  and  C_7
REMARK    5  A    between atoms: C_7  and  C_8
REMARK    6  A    between atoms: C_10  and  O_11
REMARK                            x       y       z     vdW  Elec       q    Type
REMARK                         _______ _______ _______ _____ _____    ______ ____
ROOT
ATOM      1  C   UNL     1       5.652   6.092  17.575  0.00  0.00    +0.000 C 
ATOM      2  C   UNL     1       4.361   6.896  17.465  0.00  0.00    +0.000 C 
ATOM      3  S   UNL     1       5.781   5.260  19.230  0.00  0.00    +0.000 S 
ATOM      4  C   UNL     1       7.424   5.735  19.420  0.00  0.00    +0.000 C 
ATOM      5  C   UNL     1       7.911   6.640  18.569  0.00  0.00    +0.000 C 
ATOM      6  C   UNL     1       6.887   7.013  17.574  0.00  0.00    +0.000 C 
ATOM      7  O   UNL     1       7.085   7.932  16.790  0.00  0.00    +0.000 OA
ENDROOT
BRANCH   1   9
ATOM      8  C   UNL     1       6.329   5.079  15.339  0.00  0.00    +0.000 C 
ATOM      9  C   UNL     1       5.714   4.996  16.531  0.00  0.00    +0.000 C 
BRANCH   8  11
ATOM     10  C   UNL     1       6.527   4.204  13.081  0.00  0.00    +0.000 C 
ATOM     11  C   UNL     1       6.376   3.993  14.397  0.00  0.00    +0.000 C 
BRANCH  10  13
ATOM     12  C   UNL     1       5.160   2.658  11.678  0.00  0.00    +0.000 C 
ATOM     13  C   UNL     1       6.561   3.098  12.069  0.00  0.00    +0.000 C 
ENDBRANCH  10  13
ENDBRANCH   8  11
ENDBRANCH   1   9
BRANCH   4  14
ATOM     14  O   UNL     1       8.174   5.169  20.408  0.00  0.00    +0.000 OA
ATOM     15  H   UNL     1       8.361   5.900  21.027  0.00  0.00    +0.000 HD
ENDBRANCH   4  14
TORSDOF 4
ENDMDL
MODEL 2
REMARK VINA RESULT:      -6.4      3.505      4.214
REMARK  Name = 
REMARK  6 active torsions:
REMARK  status: ('A' for Active; 'I' for Inactive)
REMARK    1  A    between atoms: C_1  and  C_2
REMARK    2  A    between atoms: C_2  and  C_3
REMARK    3  A    between atoms: C_4  and  C_5
REMARK    4  A    between atoms: C_6  and  C_7
REMARK    5  A    between atoms: C_7  and  C_8
REMARK    6  A    between atoms: C_10  and  O_11
REMARK                            x       y       z     vdW  Elec       q    Type
REMARK                         _______ _______ _______ _____ _____    ______ ____
ROOT
ATOM      1  C   UNL     1       3.821   4.382  18.121  0.00  0.00    +0.000 C 
ATOM      2  C   UNL     1       4.167   5.719  18.767  0.00  0.00    +0.000 C 
ATOM      3  S   UNL     1       1.989   4.219  17.865  0.00  0.00    +0.000 S 
ATOM      4  C   UNL     1       1.976   2.610  18.476  0.00  0.00    +0.000 C 
ATOM      5  C   UNL     1       3.074   2.172  19.095  0.00  0.00    +0.000 C 
ATOM      6  C   UNL     1       4.125   3.207  19.070  0.00  0.00    +0.000 C 
ATOM      7  O   UNL     1       5.162   3.058  19.705  0.00  0.00    +0.000 OA
ENDROOT
BRANCH   1   9
ATOM      8  C   UNL     1       5.775   4.378  16.489  0.00  0.00    +0.000 C 
ATOM      9  C   UNL     1       4.466   4.241  16.758  0.00  0.00    +0.000 C 
BRANCH   8  11
ATOM     10  C   UNL     1       5.590   3.798  14.136  0.00  0.00    +0.000 C 
ATOM     11  C   UNL     1       6.334   4.207  15.174  0.00  0.00    +0.000 C 
BRANCH  10  13
ATOM     12  C   UNL     1       5.053   3.213  11.770  0.00  0.00    +0.000 C 
ATOM     13  C   UNL     1       6.144   3.592  12.758  0.00  0.00    +0.000 C 
ENDBRANCH  10  13
ENDBRANCH   8  11
ENDBRANCH   1   9
BRANCH   4  14
ATOM     14  O   UNL     1       0.867   1.837  18.299  0.00  0.00    +0.000 OA
ATOM     15  H   UNL     1       1.064   1.296  17.512  0.00  0.00    +0.000 HD
ENDBRANCH   4  14
TORSDOF 4
ENDMDL
MODEL 3
REMARK VINA RESULT:      -6.3      2.872      5.997
REMARK  Name = 
REMARK  6 active torsions:
REMARK  status: ('A' for Active; 'I' for Inactive)
REMARK    1  A    between atoms: C_1  and  C_2
REMARK    2  A    between atoms: C_2  and  C_3
REMARK    3  A    between atoms: C_4  and  C_5
REMARK    4  A    between atoms: C_6  and  C_7
REMARK    5  A    between atoms: C_7  and  C_8
REMARK    6  A    between atoms: C_10  and  O_11
REMARK                            x       y       z     vdW  Elec       q    Type
REMARK                         _______ _______ _______ _____ _____    ______ ____
ROOT
ATOM      1  C   UNL     1       6.258   5.563  17.672  0.00  0.00    +0.000 C 
ATOM      2  C   UNL     1       5.898   5.227  19.115  0.00  0.00    +0.000 C 
ATOM      3  S   UNL     1       4.807   5.302  16.544  0.00  0.00    +0.000 S 
ATOM      4  C   UNL     1       5.772   4.488  15.374  0.00  0.00    +0.000 C 
ATOM      5  C   UNL     1       7.005   4.124  15.731  0.00  0.00    +0.000 C 
ATOM      6  C   UNL     1       7.294   4.571  17.108  0.00  0.00    +0.000 C 
ATOM      7  O   UNL     1       8.319   4.217  17.676  0.00  0.00    +0.000 OA
ENDROOT
BRANCH   1   9
ATOM      8  C   UNL     1       7.819   7.554  17.962  0.00  0.00    +0.000 C 
ATOM      9  C   UNL     1       6.669   7.014  17.526  0.00  0.00    +0.000 C 
BRANCH   8  11
ATOM     10  C   UNL     1       8.831   9.635  18.704  0.00  0.00    +0.000 C 
ATOM     11  C   UNL     1       8.165   8.937  17.772  0.00  0.00    +0.000 C 
BRANCH  10  13
ATOM     12  C   UNL     1      10.526  11.249  17.840  0.00  0.00    +0.000 C 
ATOM     13  C   UNL     1       9.191  11.082  18.546  0.00  0.00    +0.000 C 
ENDBRANCH  10  13
ENDBRANCH   8  11
ENDBRANCH   1   9
BRANCH   4  14
ATOM     14  O   UNL     1       5.262   4.255  14.132  0.00  0.00    +0.000 OA
ATOM     15  H   UNL     1       5.408   3.303  13.978  0.00  0.00    +0.000 HD
ENDBRANCH   4  14
TORSDOF 4
ENDMDL
MODEL 4
REMARK VINA RESULT:      -6.2      2.848      5.780
REMARK  Name = 
REMARK  6 active torsions:
REMARK  status: ('A' for Active; 'I' for Inactive)
REMARK    1  A    between atoms: C_1  and  C_2
REMARK    2  A    between atoms: C_2  and  C_3
REMARK    3  A    between atoms: C_4  and  C_5
REMARK    4  A    between atoms: C_6  and  C_7
REMARK    5  A    between atoms: C_7  and  C_8
REMARK    6  A    between atoms: C_10  and  O_11
REMARK                            x       y       z     vdW  Elec       q    Type
REMARK                         _______ _______ _______ _____ _____    ______ ____
ROOT
ATOM      1  C   UNL     1       6.353   5.568  17.440  0.00  0.00    +0.000 C 
ATOM      2  C   UNL     1       7.022   4.512  16.566  0.00  0.00    +0.000 C 
ATOM      3  S   UNL     1       5.415   4.781  18.835  0.00  0.00    +0.000 S 
ATOM      4  C   UNL     1       4.048   5.795  18.580  0.00  0.00    +0.000 C 
ATOM      5  C   UNL     1       4.011   6.517  17.459  0.00  0.00    +0.000 C 
ATOM      6  C   UNL     1       5.242   6.308  16.672  0.00  0.00    +0.000 C 
ATOM      7  O   UNL     1       5.346   6.770  15.543  0.00  0.00    +0.000 OA
ENDROOT
BRANCH   1   9
ATOM      8  C   UNL     1       7.639   7.752  17.680  0.00  0.00    +0.000 C 
ATOM      9  C   UNL     1       7.374   6.494  18.069  0.00  0.00    +0.000 C 
BRANCH   8  11
ATOM     10  C   UNL     1       8.565   9.932  18.228  0.00  0.00    +0.000 C 
ATOM     11  C   UNL     1       8.605   8.595  18.334  0.00  0.00    +0.000 C 
BRANCH  10  13
ATOM     12  C   UNL     1      10.422  11.555  17.850  0.00  0.00    +0.000 C 
ATOM     13  C   UNL     1       9.565  10.838  18.880  0.00  0.00    +0.000 C 
ENDBRANCH  10  13
ENDBRANCH   8  11
ENDBRANCH   1   9
BRANCH   4  14
ATOM     14  O   UNL     1       3.065   5.842  19.524  0.00  0.00    +0.000 OA
ATOM     15  H   UNL     1       2.284   6.186  19.052  0.00  0.00    +0.000 HD
ENDBRANCH   4  14
TORSDOF 4
ENDMDL
MODEL 5
REMARK VINA RESULT:      -6.2      1.864      2.493
REMARK  Name = 
REMARK  6 active torsions:
REMARK  status: ('A' for Active; 'I' for Inactive)
REMARK    1  A    between atoms: C_1  and  C_2
REMARK    2  A    between atoms: C_2  and  C_3
REMARK    3  A    between atoms: C_4  and  C_5
REMARK    4  A    between atoms: C_6  and  C_7
REMARK    5  A    between atoms: C_7  and  C_8
REMARK    6  A    between atoms: C_10  and  O_11
REMARK                            x       y       z     vdW  Elec       q    Type
REMARK                         _______ _______ _______ _____ _____    ______ ____
ROOT
ATOM      1  C   UNL     1       6.601   6.309  17.422  0.00  0.00    +0.000 C 
ATOM      2  C   UNL     1       7.526   7.520  17.453  0.00  0.00    +0.000 C 
ATOM      3  S   UNL     1       4.820   6.829  17.487  0.00  0.00    +0.000 S 
ATOM      4  C   UNL     1       4.440   5.634  18.667  0.00  0.00    +0.000 C 
ATOM      5  C   UNL     1       5.455   5.002  19.259  0.00  0.00    +0.000 C 
ATOM      6  C   UNL     1       6.742   5.463  18.702  0.00  0.00    +0.000 C 
ATOM      7  O   UNL     1       7.801   5.111  19.206  0.00  0.00    +0.000 OA
ENDROOT
BRANCH   1   9
ATOM      8  C   UNL     1       6.096   4.398  15.816  0.00  0.00    +0.000 C 
ATOM      9  C   UNL     1       6.775   5.509  16.147  0.00  0.00    +0.000 C 
BRANCH   8  11
ATOM     10  C   UNL     1       5.599   4.010  13.469  0.00  0.00    +0.000 C 
ATOM     11  C   UNL     1       6.288   3.695  14.576  0.00  0.00    +0.000 C 
BRANCH  10  13
ATOM     12  C   UNL     1       4.436   3.157  11.433  0.00  0.00    +0.000 C 
ATOM     13  C   UNL     1       5.761   3.286  12.166  0.00  0.00    +0.000 C 
ENDBRANCH  10  13
ENDBRANCH   8  11
ENDBRANCH   1   9
BRANCH   4  14
ATOM     14  O   UNL     1       3.134   5.361  18.946  0.00  0.00    +0.000 OA
ATOM     15  H   UNL     1       2.755   5.068  18.096  0.00  0.00    +0.000 HD
ENDBRANCH   4  14
TORSDOF 4
ENDMDL
MODEL 6
REMARK VINA RESULT:      -6.2      3.017      3.923
REMARK  Name = 
REMARK  6 active torsions:
REMARK  status: ('A' for Active; 'I' for Inactive)
REMARK    1  A    between atoms: C_1  and  C_2
REMARK    2  A    between atoms: C_2  and  C_3
REMARK    3  A    between atoms: C_4  and  C_5
REMARK    4  A    between atoms: C_6  and  C_7
REMARK    5  A    between atoms: C_7  and  C_8
REMARK    6  A    between atoms: C_10  and  O_11
REMARK                            x       y       z     vdW  Elec       q    Type
REMARK                         _______ _______ _______ _____ _____    ______ ____
ROOT
ATOM      1  C   UNL     1       4.887   4.539  18.281  0.00  0.00    +0.000 C 
ATOM      2  C   UNL     1       5.736   5.388  19.221  0.00  0.00    +0.000 C 
ATOM      3  S   UNL     1       3.344   5.441  17.778  0.00  0.00    +0.000 S 
ATOM      4  C   UNL     1       2.362   4.052  18.044  0.00  0.00    +0.000 C 
ATOM      5  C   UNL     1       2.908   3.020  18.689  0.00  0.00    +0.000 C 
ATOM      6  C   UNL     1       4.323   3.300  19.001  0.00  0.00    +0.000 C 
ATOM      7  O   UNL     1       4.967   2.539  19.713  0.00  0.00    +0.000 OA
ENDROOT
BRANCH   1   9
ATOM      8  C   UNL     1       5.424   4.770  15.803  0.00  0.00    +0.000 C 
ATOM      9  C   UNL     1       5.634   4.209  17.005  0.00  0.00    +0.000 C 
BRANCH   8  11
ATOM     10  C   UNL     1       5.618   3.850  13.562  0.00  0.00    +0.000 C 
ATOM     11  C   UNL     1       6.184   4.433  14.629  0.00  0.00    +0.000 C 
BRANCH  10  13
ATOM     12  C   UNL     1       5.682   2.363  11.559  0.00  0.00    +0.000 C 
ATOM     13  C   UNL     1       6.383   3.468  12.331  0.00  0.00    +0.000 C 
ENDBRANCH  10  13
ENDBRANCH   8  11
ENDBRANCH   1   9
BRANCH   4  14
ATOM     14  O   UNL     1       1.079   4.042  17.583  0.00  0.00    +0.000 OA
ATOM     15  H   UNL     1       0.709   4.902  17.858  0.00  0.00    +0.000 HD
ENDBRANCH   4  14
TORSDOF 4
ENDMDL
MODEL 7
REMARK VINA RESULT:      -6.1      2.831      5.835
REMARK  Name = 
REMARK  6 active torsions:
REMARK  status: ('A' for Active; 'I' for Inactive)
REMARK    1  A    between atoms: C_1  and  C_2
REMARK    2  A    between atoms: C_2  and  C_3
REMARK    3  A    between atoms: C_4  and  C_5
REMARK    4  A    between atoms: C_6  and  C_7
REMARK    5  A    between atoms: C_7  and  C_8
REMARK    6  A    between atoms: C_10  and  O_11
REMARK                            x       y       z     vdW  Elec       q    Type
REMARK                         _______ _______ _______ _____ _____    ______ ____
ROOT
ATOM      1  C   UNL     1       4.653   4.887  17.261  0.00  0.00    +0.000 C 
ATOM      2  C   UNL     1       3.608   3.787  17.411  0.00  0.00    +0.000 C 
ATOM      3  S   UNL     1       5.189   5.060  15.492  0.00  0.00    +0.000 S 
ATOM      4  C   UNL     1       6.852   5.142  15.930  0.00  0.00    +0.000 C 
ATOM      5  C   UNL     1       7.179   4.828  17.184  0.00  0.00    +0.000 C 
ATOM      6  C   UNL     1       5.969   4.510  17.967  0.00  0.00    +0.000 C 
ATOM      7  O   UNL     1       6.061   4.061  19.103  0.00  0.00    +0.000 OA
ENDROOT
BRANCH   1   9
ATOM      8  C   UNL     1       2.886   6.461  18.202  0.00  0.00    +0.000 C 
ATOM      9  C   UNL     1       4.105   6.235  17.683  0.00  0.00    +0.000 C 
BRANCH   8  11
ATOM     10  C   UNL     1       2.047   8.690  17.718  0.00  0.00    +0.000 C 
ATOM     11  C   UNL     1       2.430   7.764  18.609  0.00  0.00    +0.000 C 
BRANCH  10  13
ATOM     12  C   UNL     1       0.105  10.072  18.455  0.00  0.00    +0.000 C 
ATOM     13  C   UNL     1       1.584  10.062  18.106  0.00  0.00    +0.000 C 
ENDBRANCH  10  13
ENDBRANCH   8  11
ENDBRANCH   1   9
BRANCH   4  14
ATOM     14  O   UNL     1       7.769   5.535  15.002  0.00  0.00    +0.000 OA
ATOM     15  H   UNL     1       7.970   4.727  14.494  0.00  0.00    +0.000 HD
ENDBRANCH   4  14
TORSDOF 4
ENDMDL
MODEL 8
REMARK VINA RESULT:      -6.0      3.549      4.304
REMARK  Name = 
REMARK  6 active torsions:
REMARK  status: ('A' for Active; 'I' for Inactive)
REMARK    1  A    between atoms: C_1  and  C_2
REMARK    2  A    between atoms: C_2  and  C_3
REMARK    3  A    between atoms: C_4  and  C_5
REMARK    4  A    between atoms: C_6  and  C_7
REMARK    5  A    between atoms: C_7  and  C_8
REMARK    6  A    between atoms: C_10  and  O_11
REMARK                            x       y       z     vdW  Elec       q    Type
REMARK                         _______ _______ _______ _____ _____    ______ ____
ROOT
ATOM      1  C   UNL     1       3.396   3.216  18.289  0.00  0.00    +0.000 C 
ATOM      2  C   UNL     1       3.662   1.761  18.663  0.00  0.00    +0.000 C 
ATOM      3  S   UNL     1       4.213   4.373  19.490  0.00  0.00    +0.000 S 
ATOM      4  C   UNL     1       2.806   5.357  19.606  0.00  0.00    +0.000 C 
ATOM      5  C   UNL     1       1.672   4.884  19.085  0.00  0.00    +0.000 C 
ATOM      6  C   UNL     1       1.906   3.572  18.451  0.00  0.00    +0.000 C 
ATOM      7  O   UNL     1       0.968   2.903  18.037  0.00  0.00    +0.000 OA
ENDROOT
BRANCH   1   9
ATOM      8  C   UNL     1       4.835   4.520  16.642  0.00  0.00    +0.000 C 
ATOM      9  C   UNL     1       3.952   3.546  16.919  0.00  0.00    +0.000 C 
BRANCH   8  11
ATOM     10  C   UNL     1       6.027   3.839  14.637  0.00  0.00    +0.000 C 
ATOM     11  C   UNL     1       5.347   4.771  15.321  0.00  0.00    +0.000 C 
BRANCH  10  13
ATOM     12  C   UNL     1       5.835   3.283  12.212  0.00  0.00    +0.000 C 
ATOM     13  C   UNL     1       6.591   4.073  13.267  0.00  0.00    +0.000 C 
ENDBRANCH  10  13
ENDBRANCH   8  11
ENDBRANCH   1   9
BRANCH   4  14
ATOM     14  O   UNL     1       2.892   6.580  20.203  0.00  0.00    +0.000 OA
ATOM     15  H   UNL     1       3.808   6.629  20.535  0.00  0.00    +0.000 HD
ENDBRANCH   4  14
TORSDOF 4
ENDMDL
MODEL 9
REMARK VINA RESULT:      -6.0      2.348      2.820
REMARK  Name = 
REMARK  6 active torsions:
REMARK  status: ('A' for Active; 'I' for Inactive)
REMARK    1  A    between atoms: C_1  and  C_2
REMARK    2  A    between atoms: C_2  and  C_3
REMARK    3  A    between atoms: C_4  and  C_5
REMARK    4  A    between atoms: C_6  and  C_7
REMARK    5  A    between atoms: C_7  and  C_8
REMARK    6  A    between atoms: C_10  and  O_11
REMARK                            x       y       z     vdW  Elec       q    Type
REMARK                         _______ _______ _______ _____ _____    ______ ____
ROOT
ATOM      1  C   UNL     1       5.144   5.268  17.208  0.00  0.00    +0.000 C 
ATOM      2  C   UNL     1       5.701   6.670  16.981  0.00  0.00    +0.000 C 
ATOM      3  S   UNL     1       3.379   5.336  17.778  0.00  0.00    +0.000 S 
ATOM      4  C   UNL     1       3.658   4.167  19.010  0.00  0.00    +0.000 C 
ATOM      5  C   UNL     1       4.924   3.847  19.287  0.00  0.00    +0.000 C 
ATOM      6  C   UNL     1       5.845   4.572  18.390  0.00  0.00    +0.000 C 
ATOM      7  O   UNL     1       7.055   4.527  18.570  0.00  0.00    +0.000 OA
ENDROOT
BRANCH   1   9
ATOM      8  C   UNL     1       6.060   4.556  14.941  0.00  0.00    +0.000 C 
ATOM      9  C   UNL     1       5.158   4.452  15.931  0.00  0.00    +0.000 C 
BRANCH   8  11
ATOM     10  C   UNL     1       5.130   3.916  12.789  0.00  0.00    +0.000 C 
ATOM     11  C   UNL     1       6.037   3.734  13.760  0.00  0.00    +0.000 C 
BRANCH  10  13
ATOM     12  C   UNL     1       3.679   3.095  10.933  0.00  0.00    +0.000 C 
ATOM     13  C   UNL     1       5.065   3.067  11.556  0.00  0.00    +0.000 C 
ENDBRANCH  10  13
ENDBRANCH   8  11
ENDBRANCH   1   9
BRANCH   4  14
ATOM     14  O   UNL     1       2.595   3.600  19.647  0.00  0.00    +0.000 OA
ATOM     15  H   UNL     1       1.972   4.336  19.794  0.00  0.00    +0.000 HD
ENDBRANCH   4  14
TORSDOF 4
ENDMDL
