MODEL 1
REMARK VINA RESULT:      -8.9      0.000      0.000
REMARK  Name = 
REMARK  5 active torsions:
REMARK  status: ('A' for Active; 'I' for Inactive)
REMARK    1  A    between atoms: N_2  and  C_4
REMARK    2  A    between atoms: C_6  and  C_7
REMARK    3  A    between atoms: C_10  and  C_11
REMARK    4  A    between atoms: N_12  and  C_13
REMARK    5  A    between atoms: C_21  and  C_22
REMARK                            x       y       z     vdW  Elec       q    Type
REMARK                         _______ _______ _______ _____ _____    ______ ____
ROOT
ATOM      1  C   UNL     1       1.857   8.887  18.014  0.00  0.00    +0.000 C 
ATOM      2  N   UNL     1       2.257   7.873  18.714  0.00  0.00    +0.000 NA
ENDROOT
BRANCH   2   3
ATOM      3  C   UNL     1       3.133   7.017  18.035  0.00  0.00    +0.000 A 
ATOM      4  N   UNL     1       4.050   7.419  17.104  0.00  0.00    +0.000 NA
ATOM      5  C   UNL     1       4.610   6.313  16.673  0.00  0.00    +0.000 A 
ATOM      6  C   UNL     1       5.610   6.112  15.678  0.00  0.00    +0.000 A 
ATOM      7  C   UNL     1       6.035   4.868  15.388  0.00  0.00    +0.000 A 
ATOM      8  C   UNL     1       5.498   3.711  16.080  0.00  0.00    +0.000 A 
ATOM      9  C   UNL     1       4.554   3.890  17.020  0.00  0.00    +0.000 A 
ATOM     10  N   UNL     1       4.099   5.183  17.316  0.00  0.00    +0.000 N 
ATOM     11  C   UNL     1       3.130   5.637  18.204  0.00  0.00    +0.000 A 
BRANCH  11  12
ATOM     12  C   UNL     1       2.328   4.793  19.050  0.00  0.00    +0.000 A 
ATOM     13  C   UNL     1       1.405   3.817  18.705  0.00  0.00    +0.000 A 
ATOM     14  C   UNL     1       0.896   3.256  19.901  0.00  0.00    +0.000 A 
ATOM     15  C   UNL     1       1.523   3.920  20.923  0.00  0.00    +0.000 A 
ATOM     16  O   UNL     1       2.381   4.840  20.424  0.00  0.00    +0.000 OA
ENDBRANCH  11  12
ENDBRANCH   2   3
BRANCH   1  20
ATOM     17  C   UNL     1      -1.033  10.845  18.809  0.00  0.00    +0.000 A 
ATOM     18  C   UNL     1      -0.208  11.324  19.808  0.00  0.00    +0.000 A 
ATOM     19  C   UNL     1       1.035  10.671  19.664  0.00  0.00    +0.000 A 
ATOM     20  C   UNL     1       0.911   9.807  18.598  0.00  0.00    +0.000 A 
ATOM     21  O   UNL     1      -0.353   9.907  18.072  0.00  0.00    +0.000 OA
BRANCH  17  24
ATOM     22  C   UNL     1      -4.580  12.141  18.885  0.00  0.00    +0.000 A 
ATOM     23  C   UNL     1      -3.294  11.758  19.302  0.00  0.00    +0.000 A 
ATOM     24  C   UNL     1      -2.402  11.166  18.395  0.00  0.00    +0.000 A 
ATOM     25  C   UNL     1      -2.851  10.942  17.084  0.00  0.00    +0.000 A 
ATOM     26  C   UNL     1      -4.136  11.336  16.677  0.00  0.00    +0.000 A 
ATOM     27  C   UNL     1      -5.009  11.955  17.574  0.00  0.00    +0.000 A 
ATOM     28 CL   UNL     1      -6.531  12.498  16.975  0.00  0.00    +0.000 Cl
BRANCH  22  30
ATOM     29  O   UNL     1      -6.177  12.010  20.520  0.00  0.00    +0.000 OA
ATOM     30  N   UNL     1      -5.446  12.763  19.864  0.00  0.00    +0.000 N 
ATOM     31  O   UNL     1      -5.437  13.999  19.931  0.00  0.00    +0.000 OA
ENDBRANCH  22  30
ENDBRANCH  17  24
ENDBRANCH   1  20
TORSDOF 5
ENDMDL
MODEL 2
REMARK VINA RESULT:      -8.7      3.421      5.370
REMARK  Name = 
REMARK  5 active torsions:
REMARK  status: ('A' for Active; 'I' for Inactive)
REMARK    1  A    between atoms: N_2  and  C_4
REMARK    2  A    between atoms: C_6  and  C_7
REMARK    3  A    between atoms: C_10  and  C_11
REMARK    4  A    between atoms: N_12  and  C_13
REMARK    5  A    between atoms: C_21  and  C_22
REMARK                            x       y       z     vdW  Elec       q    Type
REMARK                         _______ _______ _______ _____ _____    ______ ____
ROOT
ATOM      1  C   UNL     1       3.665   6.058  17.757  0.00  0.00    +0.000 C 
ATOM      2  N   UNL     1       4.233   4.911  17.557  0.00  0.00    +0.000 NA
ENDROOT
BRANCH   2   3
ATOM      3  C   UNL     1       4.947   4.828  16.355  0.00  0.00    +0.000 A 
ATOM      4  N   UNL     1       4.574   4.071  15.279  0.00  0.00    +0.000 NA
ATOM      5  C   UNL     1       5.539   4.223  14.401  0.00  0.00    +0.000 A 
ATOM      6  C   UNL     1       5.709   3.647  13.108  0.00  0.00    +0.000 A 
ATOM      7  C   UNL     1       6.798   3.943  12.376  0.00  0.00    +0.000 A 
ATOM      8  C   UNL     1       7.814   4.853  12.873  0.00  0.00    +0.000 A 
ATOM      9  C   UNL     1       7.662   5.400  14.091  0.00  0.00    +0.000 A 
ATOM     10  N   UNL     1       6.536   5.085  14.864  0.00  0.00    +0.000 N 
ATOM     11  C   UNL     1       6.156   5.480  16.142  0.00  0.00    +0.000 A 
BRANCH  11  12
ATOM     12  C   UNL     1       6.921   6.349  16.997  0.00  0.00    +0.000 A 
ATOM     13  C   UNL     1       7.613   6.057  18.163  0.00  0.00    +0.000 A 
ATOM     14  C   UNL     1       8.220   7.252  18.620  0.00  0.00    +0.000 A 
ATOM     15  C   UNL     1       7.866   8.222  17.718  0.00  0.00    +0.000 A 
ATOM     16  O   UNL     1       7.089   7.691  16.744  0.00  0.00    +0.000 OA
ENDBRANCH  11  12
ENDBRANCH   2   3
BRANCH   1  20
ATOM     17  C   UNL     1       1.636   7.366  20.403  0.00  0.00    +0.000 A 
ATOM     18  C   UNL     1       1.672   6.054  20.833  0.00  0.00    +0.000 A 
ATOM     19  C   UNL     1       2.462   5.339  19.906  0.00  0.00    +0.000 A 
ATOM     20  C   UNL     1       2.859   6.238  18.940  0.00  0.00    +0.000 A 
ATOM     21  O   UNL     1       2.354   7.480  19.237  0.00  0.00    +0.000 OA
BRANCH  17  24
ATOM     22  C   UNL     1       0.131  10.823  20.621  0.00  0.00    +0.000 A 
ATOM     23  C   UNL     1       0.774   9.681  20.113  0.00  0.00    +0.000 A 
ATOM     24  C   UNL     1       1.044   8.588  20.952  0.00  0.00    +0.000 A 
ATOM     25  C   UNL     1       0.685   8.695  22.305  0.00  0.00    +0.000 A 
ATOM     26  C   UNL     1       0.038   9.839  22.799  0.00  0.00    +0.000 A 
ATOM     27  C   UNL     1      -0.259  10.910  21.954  0.00  0.00    +0.000 A 
ATOM     28 CL   UNL     1      -1.144  12.236  22.611  0.00  0.00    +0.000 Cl
BRANCH  22  30
ATOM     29  O   UNL     1      -1.113  11.776  18.952  0.00  0.00    +0.000 OA
ATOM     30  N   UNL     1      -0.136  11.907  19.700  0.00  0.00    +0.000 N 
ATOM     31  O   UNL     1       0.663  12.853  19.684  0.00  0.00    +0.000 OA
ENDBRANCH  22  30
ENDBRANCH  17  24
ENDBRANCH   1  20
TORSDOF 5
ENDMDL
MODEL 3
REMARK VINA RESULT:      -8.6      4.735     10.289
REMARK  Name = 
REMARK  5 active torsions:
REMARK  status: ('A' for Active; 'I' for Inactive)
REMARK    1  A    between atoms: N_2  and  C_4
REMARK    2  A    between atoms: C_6  and  C_7
REMARK    3  A    between atoms: C_10  and  C_11
REMARK    4  A    between atoms: N_12  and  C_13
REMARK    5  A    between atoms: C_21  and  C_22
REMARK                            x       y       z     vdW  Elec       q    Type
REMARK                         _______ _______ _______ _____ _____    ______ ____
ROOT
ATOM      1  C   UNL     1       0.182  10.269  20.251  0.00  0.00    +0.000 C 
ATOM      2  N   UNL     1       0.665  10.859  21.298  0.00  0.00    +0.000 NA
ENDROOT
BRANCH   2   3
ATOM      3  C   UNL     1      -0.255  11.667  21.977  0.00  0.00    +0.000 A 
ATOM      4  N   UNL     1      -1.353  11.202  22.648  0.00  0.00    +0.000 NA
ATOM      5  C   UNL     1      -1.972  12.276  23.078  0.00  0.00    +0.000 A 
ATOM      6  C   UNL     1      -3.189  12.409  23.809  0.00  0.00    +0.000 A 
ATOM      7  C   UNL     1      -3.648  13.630  24.140  0.00  0.00    +0.000 A 
ATOM      8  C   UNL     1      -2.920  14.831  23.775  0.00  0.00    +0.000 A 
ATOM      9  C   UNL     1      -1.771  14.716  23.085  0.00  0.00    +0.000 A 
ATOM     10  N   UNL     1      -1.296  13.447  22.726  0.00  0.00    +0.000 N 
ATOM     11  C   UNL     1      -0.176  13.054  22.003  0.00  0.00    +0.000 A 
BRANCH  11  12
ATOM     12  C   UNL     1       0.784  13.953  21.419  0.00  0.00    +0.000 A 
ATOM     13  C   UNL     1       0.783  14.562  20.173  0.00  0.00    +0.000 A 
ATOM     14  C   UNL     1       1.940  15.372  20.082  0.00  0.00    +0.000 A 
ATOM     15  C   UNL     1       2.603  15.216  21.271  0.00  0.00    +0.000 A 
ATOM     16  O   UNL     1       1.919  14.370  22.077  0.00  0.00    +0.000 OA
ENDBRANCH  11  12
ENDBRANCH   2   3
BRANCH   1  20
ATOM     17  C   UNL     1       2.259   7.660  18.945  0.00  0.00    +0.000 A 
ATOM     18  C   UNL     1       2.390   8.542  17.890  0.00  0.00    +0.000 A 
ATOM     19  C   UNL     1       1.634   9.689  18.217  0.00  0.00    +0.000 A 
ATOM     20  C   UNL     1       1.057   9.452  19.446  0.00  0.00    +0.000 A 
ATOM     21  O   UNL     1       1.434   8.210  19.895  0.00  0.00    +0.000 OA
BRANCH  17  24
ATOM     22  C   UNL     1       2.688   4.168  20.318  0.00  0.00    +0.000 A 
ATOM     23  C   UNL     1       2.179   5.460  20.103  0.00  0.00    +0.000 A 
ATOM     24  C   UNL     1       2.836   6.345  19.234  0.00  0.00    +0.000 A 
ATOM     25  C   UNL     1       4.024   5.907  18.626  0.00  0.00    +0.000 A 
ATOM     26  C   UNL     1       4.519   4.611  18.844  0.00  0.00    +0.000 A 
ATOM     27  C   UNL     1       3.843   3.723  19.683  0.00  0.00    +0.000 A 
ATOM     28 CL   UNL     1       4.458   2.118  19.822  0.00  0.00    +0.000 Cl
BRANCH  22  30
ATOM     29  O   UNL     1       0.964   2.721  20.739  0.00  0.00    +0.000 OA
ATOM     30  N   UNL     1       1.953   3.298  21.211  0.00  0.00    +0.000 N 
ATOM     31  O   UNL     1       2.326   3.241  22.389  0.00  0.00    +0.000 OA
ENDBRANCH  22  30
ENDBRANCH  17  24
ENDBRANCH   1  20
TORSDOF 5
ENDMDL
MODEL 4
REMARK VINA RESULT:      -8.5      3.880      9.906
REMARK  Name = 
REMARK  5 active torsions:
REMARK  status: ('A' for Active; 'I' for Inactive)
REMARK    1  A    between atoms: N_2  and  C_4
REMARK    2  A    between atoms: C_6  and  C_7
REMARK    3  A    between atoms: C_10  and  C_11
REMARK    4  A    between atoms: N_12  and  C_13
REMARK    5  A    between atoms: C_21  and  C_22
REMARK                            x       y       z     vdW  Elec       q    Type
REMARK                         _______ _______ _______ _____ _____    ______ ____
ROOT
ATOM      1  C   UNL     1       0.480   9.750  19.508  0.00  0.00    +0.000 C 
ATOM      2  N   UNL     1       0.345  10.976  19.115  0.00  0.00    +0.000 NA
ENDROOT
BRANCH   2   3
ATOM      3  C   UNL     1      -0.715  11.661  19.722  0.00  0.00    +0.000 A 
ATOM      4  N   UNL     1      -0.627  12.337  20.907  0.00  0.00    +0.000 NA
ATOM      5  C   UNL     1      -1.843  12.771  21.146  0.00  0.00    +0.000 A 
ATOM      6  C   UNL     1      -2.359  13.508  22.251  0.00  0.00    +0.000 A 
ATOM      7  C   UNL     1      -3.663  13.842  22.290  0.00  0.00    +0.000 A 
ATOM      8  C   UNL     1      -4.566  13.473  21.216  0.00  0.00    +0.000 A 
ATOM      9  C   UNL     1      -4.088  12.777  20.169  0.00  0.00    +0.000 A 
ATOM     10  N   UNL     1      -2.734  12.416  20.130  0.00  0.00    +0.000 N 
ATOM     11  C   UNL     1      -2.002  11.686  19.200  0.00  0.00    +0.000 A 
BRANCH  11  12
ATOM     12  C   UNL     1      -2.546  11.098  18.004  0.00  0.00    +0.000 A 
ATOM     13  C   UNL     1      -2.822   9.769  17.719  0.00  0.00    +0.000 A 
ATOM     14  C   UNL     1      -3.365   9.707  16.412  0.00  0.00    +0.000 A 
ATOM     15  C   UNL     1      -3.388  10.999  15.954  0.00  0.00    +0.000 A 
ATOM     16  O   UNL     1      -2.901  11.837  16.899  0.00  0.00    +0.000 OA
ENDBRANCH  11  12
ENDBRANCH   2   3
BRANCH   1  20
ATOM     17  C   UNL     1       2.805   7.153  18.686  0.00  0.00    +0.000 A 
ATOM     18  C   UNL     1       3.139   8.025  17.669  0.00  0.00    +0.000 A 
ATOM     19  C   UNL     1       2.321   9.166  17.820  0.00  0.00    +0.000 A 
ATOM     20  C   UNL     1       1.509   8.935  18.908  0.00  0.00    +0.000 A 
ATOM     21  O   UNL     1       1.798   7.703  19.441  0.00  0.00    +0.000 OA
BRANCH  17  24
ATOM     22  C   UNL     1       3.009   3.720  20.247  0.00  0.00    +0.000 A 
ATOM     23  C   UNL     1       2.548   5.004  19.913  0.00  0.00    +0.000 A 
ATOM     24  C   UNL     1       3.324   5.848  19.103  0.00  0.00    +0.000 A 
ATOM     25  C   UNL     1       4.577   5.379  18.678  0.00  0.00    +0.000 A 
ATOM     26  C   UNL     1       5.025   4.090  19.014  0.00  0.00    +0.000 A 
ATOM     27  C   UNL     1       4.234   3.242  19.791  0.00  0.00    +0.000 A 
ATOM     28 CL   UNL     1       4.808   1.641  20.077  0.00  0.00    +0.000 Cl
BRANCH  22  30
ATOM     29  O   UNL     1       2.458   2.788  22.264  0.00  0.00    +0.000 OA
ATOM     30  N   UNL     1       2.153   2.892  21.069  0.00  0.00    +0.000 N 
ATOM     31  O   UNL     1       1.219   2.303  20.509  0.00  0.00    +0.000 OA
ENDBRANCH  22  30
ENDBRANCH  17  24
ENDBRANCH   1  20
TORSDOF 5
ENDMDL
MODEL 5
REMARK VINA RESULT:      -8.4      3.627      4.450
REMARK  Name = 
REMARK  5 active torsions:
REMARK  status: ('A' for Active; 'I' for Inactive)
REMARK    1  A    between atoms: N_2  and  C_4
REMARK    2  A    between atoms: C_6  and  C_7
REMARK    3  A    between atoms: C_10  and  C_11
REMARK    4  A    between atoms: N_12  and  C_13
REMARK    5  A    between atoms: C_21  and  C_22
REMARK                            x       y       z     vdW  Elec       q    Type
REMARK                         _______ _______ _______ _____ _____    ______ ____
ROOT
ATOM      1  C   UNL     1       2.212   8.936  18.015  0.00  0.00    +0.000 C 
ATOM      2  N   UNL     1       2.456   7.844  18.666  0.00  0.00    +0.000 NA
ENDROOT
BRANCH   2   3
ATOM      3  C   UNL     1       3.283   6.942  17.985  0.00  0.00    +0.000 A 
ATOM      4  N   UNL     1       4.172   7.290  17.005  0.00  0.00    +0.000 NA
ATOM      5  C   UNL     1       4.688   6.155  16.592  0.00  0.00    +0.000 A 
ATOM      6  C   UNL     1       5.643   5.895  15.567  0.00  0.00    +0.000 A 
ATOM      7  C   UNL     1       6.026   4.632  15.305  0.00  0.00    +0.000 A 
ATOM      8  C   UNL     1       5.491   3.513  16.058  0.00  0.00    +0.000 A 
ATOM      9  C   UNL     1       4.589   3.748  17.028  0.00  0.00    +0.000 A 
ATOM     10  N   UNL     1       4.177   5.061  17.295  0.00  0.00    +0.000 N 
ATOM     11  C   UNL     1       3.255   5.570  18.203  0.00  0.00    +0.000 A 
BRANCH  11  12
ATOM     12  C   UNL     1       2.467   4.776  19.108  0.00  0.00    +0.000 A 
ATOM     13  C   UNL     1       1.391   3.941  18.846  0.00  0.00    +0.000 A 
ATOM     14  C   UNL     1       0.974   3.370  20.073  0.00  0.00    +0.000 A 
ATOM     15  C   UNL     1       1.806   3.888  21.031  0.00  0.00    +0.000 A 
ATOM     16  O   UNL     1       2.702   4.729  20.463  0.00  0.00    +0.000 OA
ENDBRANCH  11  12
ENDBRANCH   2   3
BRANCH   1  20
ATOM     17  C   UNL     1       0.581  11.947  19.062  0.00  0.00    +0.000 A 
ATOM     18  C   UNL     1      -0.279  11.054  19.671  0.00  0.00    +0.000 A 
ATOM     19  C   UNL     1       0.206   9.759  19.387  0.00  0.00    +0.000 A 
ATOM     20  C   UNL     1       1.328   9.914  18.602  0.00  0.00    +0.000 A 
ATOM     21  O   UNL     1       1.560  11.252  18.397  0.00  0.00    +0.000 OA
BRANCH  17  24
ATOM     22  C   UNL     1       1.909  15.450  18.583  0.00  0.00    +0.000 A 
ATOM     23  C   UNL     1       1.857  14.050  18.691  0.00  0.00    +0.000 A 
ATOM     24  C   UNL     1       0.655  13.410  19.033  0.00  0.00    +0.000 A 
ATOM     25  C   UNL     1      -0.466  14.215  19.295  0.00  0.00    +0.000 A 
ATOM     26  C   UNL     1      -0.402  15.613  19.177  0.00  0.00    +0.000 A 
ATOM     27  C   UNL     1       0.787  16.243  18.804  0.00  0.00    +0.000 A 
ATOM     28 CL   UNL     1       0.760  17.953  18.584  0.00  0.00    +0.000 Cl
BRANCH  22  30
ATOM     29  O   UNL     1       3.840  16.560  19.117  0.00  0.00    +0.000 OA
ATOM     30  N   UNL     1       3.174  16.047  18.208  0.00  0.00    +0.000 N 
ATOM     31  O   UNL     1       3.467  16.056  17.006  0.00  0.00    +0.000 OA
ENDBRANCH  22  30
ENDBRANCH  17  24
ENDBRANCH   1  20
TORSDOF 5
ENDMDL
MODEL 6
REMARK VINA RESULT:      -8.3      2.587      3.285
REMARK  Name = 
REMARK  5 active torsions:
REMARK  status: ('A' for Active; 'I' for Inactive)
REMARK    1  A    between atoms: N_2  and  C_4
REMARK    2  A    between atoms: C_6  and  C_7
REMARK    3  A    between atoms: C_10  and  C_11
REMARK    4  A    between atoms: N_12  and  C_13
REMARK    5  A    between atoms: C_21  and  C_22
REMARK                            x       y       z     vdW  Elec       q    Type
REMARK                         _______ _______ _______ _____ _____    ______ ____
ROOT
ATOM      1  C   UNL     1       1.602   8.995  17.967  0.00  0.00    +0.000 C 
ATOM      2  N   UNL     1       1.823   7.903  18.628  0.00  0.00    +0.000 NA
ENDROOT
BRANCH   2   3
ATOM      3  C   UNL     1       2.919   7.164  18.165  0.00  0.00    +0.000 A 
ATOM      4  N   UNL     1       3.912   7.662  17.367  0.00  0.00    +0.000 NA
ATOM      5  C   UNL     1       4.695   6.639  17.115  0.00  0.00    +0.000 A 
ATOM      6  C   UNL     1       5.869   6.552  16.312  0.00  0.00    +0.000 A 
ATOM      7  C   UNL     1       6.517   5.379  16.188  0.00  0.00    +0.000 A 
ATOM      8  C   UNL     1       6.049   4.186  16.868  0.00  0.00    +0.000 A 
ATOM      9  C   UNL     1       4.942   4.258  17.628  0.00  0.00    +0.000 A 
ATOM     10  N   UNL     1       4.256   5.475  17.750  0.00  0.00    +0.000 N 
ATOM     11  C   UNL     1       3.093   5.812  18.434  0.00  0.00    +0.000 A 
BRANCH  11  12
ATOM     12  C   UNL     1       2.293   4.893  19.200  0.00  0.00    +0.000 A 
ATOM     13  C   UNL     1       2.103   4.817  20.572  0.00  0.00    +0.000 A 
ATOM     14  C   UNL     1       1.208   3.750  20.829  0.00  0.00    +0.000 A 
ATOM     15  C   UNL     1       0.898   3.216  19.605  0.00  0.00    +0.000 A 
ATOM     16  O   UNL     1       1.542   3.893  18.625  0.00  0.00    +0.000 OA
ENDBRANCH  11  12
ENDBRANCH   2   3
BRANCH   1  20
ATOM     17  C   UNL     1      -0.666  11.287  19.526  0.00  0.00    +0.000 A 
ATOM     18  C   UNL     1      -1.498  10.875  18.504  0.00  0.00    +0.000 A 
ATOM     19  C   UNL     1      -0.780   9.922  17.748  0.00  0.00    +0.000 A 
ATOM     20  C   UNL     1       0.465   9.807  18.327  0.00  0.00    +0.000 A 
ATOM     21  O   UNL     1       0.542  10.643  19.414  0.00  0.00    +0.000 OA
BRANCH  17  24
ATOM     22  C   UNL     1      -2.170  12.997  22.539  0.00  0.00    +0.000 A 
ATOM     23  C   UNL     1      -2.031  12.182  21.402  0.00  0.00    +0.000 A 
ATOM     24  C   UNL     1      -0.841  12.199  20.659  0.00  0.00    +0.000 A 
ATOM     25  C   UNL     1       0.176  13.077  21.068  0.00  0.00    +0.000 A 
ATOM     26  C   UNL     1       0.027  13.882  22.209  0.00  0.00    +0.000 A 
ATOM     27  C   UNL     1      -1.146  13.836  22.965  0.00  0.00    +0.000 A 
ATOM     28 CL   UNL     1      -1.214  14.780  24.407  0.00  0.00    +0.000 Cl
BRANCH  22  30
ATOM     29  O   UNL     1      -3.616  11.883  23.921  0.00  0.00    +0.000 OA
ATOM     30  N   UNL     1      -3.415  12.918  23.273  0.00  0.00    +0.000 N 
ATOM     31  O   UNL     1      -4.211  13.858  23.150  0.00  0.00    +0.000 OA
ENDBRANCH  22  30
ENDBRANCH  17  24
ENDBRANCH   1  20
TORSDOF 5
ENDMDL
MODEL 7
REMARK VINA RESULT:      -8.3      2.888      3.271
REMARK  Name = 
REMARK  5 active torsions:
REMARK  status: ('A' for Active; 'I' for Inactive)
REMARK    1  A    between atoms: N_2  and  C_4
REMARK    2  A    between atoms: C_6  and  C_7
REMARK    3  A    between atoms: C_10  and  C_11
REMARK    4  A    between atoms: N_12  and  C_13
REMARK    5  A    between atoms: C_21  and  C_22
REMARK                            x       y       z     vdW  Elec       q    Type
REMARK                         _______ _______ _______ _____ _____    ______ ____
ROOT
ATOM      1  C   UNL     1       2.111   7.982  19.318  0.00  0.00    +0.000 C 
ATOM      2  N   UNL     1       2.552   6.785  19.542  0.00  0.00    +0.000 NA
ENDROOT
BRANCH   2   3
ATOM      3  C   UNL     1       3.373   6.277  18.527  0.00  0.00    +0.000 A 
ATOM      4  N   UNL     1       4.282   7.015  17.820  0.00  0.00    +0.000 NA
ATOM      5  C   UNL     1       4.784   6.184  16.936  0.00  0.00    +0.000 A 
ATOM      6  C   UNL     1       5.749   6.401  15.910  0.00  0.00    +0.000 A 
ATOM      7  C   UNL     1       6.114   5.389  15.101  0.00  0.00    +0.000 A 
ATOM      8  C   UNL     1       5.549   4.062  15.256  0.00  0.00    +0.000 A 
ATOM      9  C   UNL     1       4.637   3.847  16.221  0.00  0.00    +0.000 A 
ATOM     10  N   UNL     1       4.244   4.901  17.058  0.00  0.00    +0.000 N 
ATOM     11  C   UNL     1       3.318   4.959  18.093  0.00  0.00    +0.000 A 
BRANCH  11  12
ATOM     12  C   UNL     1       2.504   3.856  18.531  0.00  0.00    +0.000 A 
ATOM     13  C   UNL     1       1.170   3.582  18.269  0.00  0.00    +0.000 A 
ATOM     14  C   UNL     1       0.839   2.366  18.914  0.00  0.00    +0.000 A 
ATOM     15  C   UNL     1       1.982   1.954  19.549  0.00  0.00    +0.000 A 
ATOM     16  O   UNL     1       2.983   2.839  19.325  0.00  0.00    +0.000 OA
ENDBRANCH  11  12
ENDBRANCH   2   3
BRANCH   1  20
ATOM     17  C   UNL     1      -0.073  10.178  21.117  0.00  0.00    +0.000 A 
ATOM     18  C   UNL     1      -0.146   9.102  21.979  0.00  0.00    +0.000 A 
ATOM     19  C   UNL     1       0.685   8.091  21.448  0.00  0.00    +0.000 A 
ATOM     20  C   UNL     1       1.214   8.583  20.275  0.00  0.00    +0.000 A 
ATOM     21  O   UNL     1       0.751   9.860  20.065  0.00  0.00    +0.000 OA
BRANCH  17  24
ATOM     22  C   UNL     1      -1.420  13.468  22.391  0.00  0.00    +0.000 A 
ATOM     23  C   UNL     1      -0.946  12.145  22.363  0.00  0.00    +0.000 A 
ATOM     24  C   UNL     1      -0.647  11.526  21.140  0.00  0.00    +0.000 A 
ATOM     25  C   UNL     1      -0.871  12.256  19.962  0.00  0.00    +0.000 A 
ATOM     26  C   UNL     1      -1.338  13.580  20.004  0.00  0.00    +0.000 A 
ATOM     27  C   UNL     1      -1.602  14.204  21.224  0.00  0.00    +0.000 A 
ATOM     28 CL   UNL     1      -2.078  15.861  21.198  0.00  0.00    +0.000 Cl
BRANCH  22  30
ATOM     29  O   UNL     1      -0.760  14.661  24.231  0.00  0.00    +0.000 OA
ATOM     30  N   UNL     1      -1.692  14.056  23.686  0.00  0.00    +0.000 N 
ATOM     31  O   UNL     1      -2.809  13.859  24.179  0.00  0.00    +0.000 OA
ENDBRANCH  22  30
ENDBRANCH  17  24
ENDBRANCH   1  20
TORSDOF 5
ENDMDL
MODEL 8
REMARK VINA RESULT:      -8.3      4.555     10.574
REMARK  Name = 
REMARK  5 active torsions:
REMARK  status: ('A' for Active; 'I' for Inactive)
REMARK    1  A    between atoms: N_2  and  C_4
REMARK    2  A    between atoms: C_6  and  C_7
REMARK    3  A    between atoms: C_10  and  C_11
REMARK    4  A    between atoms: N_12  and  C_13
REMARK    5  A    between atoms: C_21  and  C_22
REMARK                            x       y       z     vdW  Elec       q    Type
REMARK                         _______ _______ _______ _____ _____    ______ ____
ROOT
ATOM      1  C   UNL     1       0.164  10.372  20.193  0.00  0.00    +0.000 C 
ATOM      2  N   UNL     1       0.582  10.798  21.342  0.00  0.00    +0.000 NA
ENDROOT
BRANCH   2   3
ATOM      3  C   UNL     1      -0.338  11.605  22.024  0.00  0.00    +0.000 A 
ATOM      4  N   UNL     1      -1.431  11.139  22.700  0.00  0.00    +0.000 NA
ATOM      5  C   UNL     1      -2.052  12.213  23.131  0.00  0.00    +0.000 A 
ATOM      6  C   UNL     1      -3.266  12.344  23.866  0.00  0.00    +0.000 A 
ATOM      7  C   UNL     1      -3.726  13.565  24.197  0.00  0.00    +0.000 A 
ATOM      8  C   UNL     1      -3.003  14.767  23.827  0.00  0.00    +0.000 A 
ATOM      9  C   UNL     1      -1.856  14.653  23.133  0.00  0.00    +0.000 A 
ATOM     10  N   UNL     1      -1.379  13.385  22.774  0.00  0.00    +0.000 N 
ATOM     11  C   UNL     1      -0.261  12.993  22.047  0.00  0.00    +0.000 A 
BRANCH  11  12
ATOM     12  C   UNL     1       0.694  13.893  21.458  0.00  0.00    +0.000 A 
ATOM     13  C   UNL     1       0.644  14.569  20.247  0.00  0.00    +0.000 A 
ATOM     14  C   UNL     1       1.821  15.347  20.133  0.00  0.00    +0.000 A 
ATOM     15  C   UNL     1       2.542  15.107  21.273  0.00  0.00    +0.000 A 
ATOM     16  O   UNL     1       1.876  14.239  22.071  0.00  0.00    +0.000 OA
ENDBRANCH  11  12
ENDBRANCH   2   3
BRANCH   1  20
ATOM     17  C   UNL     1       2.213   7.772  18.828  0.00  0.00    +0.000 A 
ATOM     18  C   UNL     1       2.431   8.713  17.840  0.00  0.00    +0.000 A 
ATOM     19  C   UNL     1       1.699   9.865  18.202  0.00  0.00    +0.000 A 
ATOM     20  C   UNL     1       1.051   9.574  19.382  0.00  0.00    +0.000 A 
ATOM     21  O   UNL     1       1.360   8.293  19.769  0.00  0.00    +0.000 OA
BRANCH  17  24
ATOM     22  C   UNL     1       4.409   4.704  18.650  0.00  0.00    +0.000 A 
ATOM     23  C   UNL     1       3.864   5.969  18.370  0.00  0.00    +0.000 A 
ATOM     24  C   UNL     1       2.728   6.420  19.060  0.00  0.00    +0.000 A 
ATOM     25  C   UNL     1       2.144   5.555  19.999  0.00  0.00    +0.000 A 
ATOM     26  C   UNL     1       2.701   4.296  20.274  0.00  0.00    +0.000 A 
ATOM     27  C   UNL     1       3.851   3.865  19.610  0.00  0.00    +0.000 A 
ATOM     28 CL   UNL     1       4.531   2.350  20.074  0.00  0.00    +0.000 Cl
BRANCH  22  30
ATOM     29  O   UNL     1       5.414   3.807  16.799  0.00  0.00    +0.000 OA
ATOM     30  N   UNL     1       5.592   4.306  17.918  0.00  0.00    +0.000 N 
ATOM     31  O   UNL     1       6.685   4.434  18.485  0.00  0.00    +0.000 OA
ENDBRANCH  22  30
ENDBRANCH  17  24
ENDBRANCH   1  20
TORSDOF 5
ENDMDL
MODEL 9
REMARK VINA RESULT:      -8.3      4.676     10.160
REMARK  Name = 
REMARK  5 active torsions:
REMARK  status: ('A' for Active; 'I' for Inactive)
REMARK    1  A    between atoms: N_2  and  C_4
REMARK    2  A    between atoms: C_6  and  C_7
REMARK    3  A    between atoms: C_10  and  C_11
REMARK    4  A    between atoms: N_12  and  C_13
REMARK    5  A    between atoms: C_21  and  C_22
REMARK                            x       y       z     vdW  Elec       q    Type
REMARK                         _______ _______ _______ _____ _____    ______ ____
ROOT
ATOM      1  C   UNL     1       0.721   9.894  20.230  0.00  0.00    +0.000 C 
ATOM      2  N   UNL     1       0.839  11.183  20.232  0.00  0.00    +0.000 NA
ENDROOT
BRANCH   2   3
ATOM      3  C   UNL     1       0.035  11.832  21.177  0.00  0.00    +0.000 A 
ATOM      4  N   UNL     1      -1.091  11.296  21.740  0.00  0.00    +0.000 NA
ATOM      5  C   UNL     1      -1.573  12.243  22.510  0.00  0.00    +0.000 A 
ATOM      6  C   UNL     1      -2.748  12.267  23.317  0.00  0.00    +0.000 A 
ATOM      7  C   UNL     1      -3.056  13.367  24.029  0.00  0.00    +0.000 A 
ATOM      8  C   UNL     1      -2.205  14.543  24.002  0.00  0.00    +0.000 A 
ATOM      9  C   UNL     1      -1.095  14.530  23.243  0.00  0.00    +0.000 A 
ATOM     10  N   UNL     1      -0.777  13.391  22.490  0.00  0.00    +0.000 N 
ATOM     11  C   UNL     1       0.273  13.129  21.617  0.00  0.00    +0.000 A 
BRANCH  11  12
ATOM     12  C   UNL     1       1.314  14.062  21.277  0.00  0.00    +0.000 A 
ATOM     13  C   UNL     1       1.483  14.818  20.127  0.00  0.00    +0.000 A 
ATOM     14  C   UNL     1       2.655  15.597  20.286  0.00  0.00    +0.000 A 
ATOM     15  C   UNL     1       3.155  15.276  21.521  0.00  0.00    +0.000 A 
ATOM     16  O   UNL     1       2.359  14.359  22.121  0.00  0.00    +0.000 OA
ENDBRANCH  11  12
ENDBRANCH   2   3
BRANCH   1  20
ATOM     17  C   UNL     1       2.374   7.306  18.388  0.00  0.00    +0.000 A 
ATOM     18  C   UNL     1       2.657   8.350  17.529  0.00  0.00    +0.000 A 
ATOM     19  C   UNL     1       2.088   9.512  18.093  0.00  0.00    +0.000 A 
ATOM     20  C   UNL     1       1.466   9.128  19.261  0.00  0.00    +0.000 A 
ATOM     21  O   UNL     1       1.635   7.777  19.445  0.00  0.00    +0.000 OA
BRANCH  17  24
ATOM     22  C   UNL     1       2.179   3.573  18.932  0.00  0.00    +0.000 A 
ATOM     23  C   UNL     1       1.878   4.945  18.994  0.00  0.00    +0.000 A 
ATOM     24  C   UNL     1       2.732   5.885  18.396  0.00  0.00    +0.000 A 
ATOM     25  C   UNL     1       3.899   5.411  17.776  0.00  0.00    +0.000 A 
ATOM     26  C   UNL     1       4.185   4.038  17.715  0.00  0.00    +0.000 A 
ATOM     27  C   UNL     1       3.315   3.103  18.281  0.00  0.00    +0.000 A 
ATOM     28 CL   UNL     1       3.684   1.431  18.079  0.00  0.00    +0.000 Cl
BRANCH  22  30
ATOM     29  O   UNL     1       0.330   2.226  18.840  0.00  0.00    +0.000 OA
ATOM     30  N   UNL     1       1.248   2.654  19.551  0.00  0.00    +0.000 N 
ATOM     31  O   UNL     1       1.400   2.413  20.756  0.00  0.00    +0.000 OA
ENDBRANCH  22  30
ENDBRANCH  17  24
ENDBRANCH   1  20
TORSDOF 5
ENDMDL
