MODEL 1
REMARK VINA RESULT:      -7.6      0.000      0.000
REMARK  Name = 
REMARK  9 active torsions:
REMARK  status: ('A' for Active; 'I' for Inactive)
REMARK    1  A    between atoms: C_1  and  C_2
REMARK    2  A    between atoms: C_2  and  C_3
REMARK    3  A    between atoms: C_2  and  C_4
REMARK    4  A    between atoms: C_4  and  C_5
REMARK    5  A    between atoms: N_7  and  C_8
REMARK    6  A    between atoms: N_7  and  S_15
REMARK    7  A    between atoms: C_8  and  C_9
REMARK    8  A    between atoms: S_15  and  C_18
REMARK    9  A    between atoms: N_27  and  C_28
REMARK                            x       y       z     vdW  Elec       q    Type
REMARK                         _______ _______ _______ _____ _____    ______ ____
ROOT
ATOM      1  C   UNL     1       4.402   3.871  19.571  0.00  0.00    +0.000 C 
ATOM      2  O   UNL     1       5.585   3.626  19.345  0.00  0.00    +0.000 OA
ATOM      3  N   UNL     1       3.863   5.188  19.347  0.00  0.00    +0.000 N 
ENDROOT
BRANCH   3   4
ATOM      4  S   UNL     1       2.187   5.465  19.136  0.00  0.00    +0.000 S 
ATOM      5  O   UNL     1       1.776   5.063  17.808  0.00  0.00    +0.000 OA
ATOM      6  O   UNL     1       1.508   4.957  20.310  0.00  0.00    +0.000 OA
BRANCH   4   7
ATOM      7  C   UNL     1       2.026   7.251  19.159  0.00  0.00    +0.000 A 
ATOM      8  C   UNL     1       2.140   8.020  17.968  0.00  0.00    +0.000 A 
ATOM      9  C   UNL     1       1.846   9.397  17.976  0.00  0.00    +0.000 A 
ATOM     10  C   UNL     1       1.489   9.956  19.186  0.00  0.00    +0.000 A 
ATOM     11  C   UNL     1       1.437   9.202  20.346  0.00  0.00    +0.000 A 
ATOM     12  C   UNL     1       1.697   7.848  20.376  0.00  0.00    +0.000 A 
ATOM     13  O   UNL     1       1.057   9.931  21.459  0.00  0.00    +0.000 OA
ATOM     14  C   UNL     1       0.842  11.205  20.921  0.00  0.00    +0.000 A 
ATOM     15  O   UNL     1       0.457  12.151  21.588  0.00  0.00    +0.000 OA
ATOM     16  N   UNL     1       1.106  11.223  19.564  0.00  0.00    +0.000 N 
ATOM     17  C   UNL     1       0.900  12.383  18.746  0.00  0.00    +0.000 C 
ENDBRANCH   4   7
ENDBRANCH   3   4
BRANCH   1  18
ATOM     18  C   UNL     1       3.469   2.799  20.103  0.00  0.00    +0.000 C 
BRANCH  18  20
ATOM     19  C   UNL     1       1.386   1.832  19.057  0.00  0.00    +0.000 C 
ATOM     20  C   UNL     1       2.913   1.764  19.122  0.00  0.00    +0.000 C 
ATOM     21  C   UNL     1       3.490   2.073  17.730  0.00  0.00    +0.000 C 
ENDBRANCH  18  20
ENDBRANCH   1  18
BRANCH   3  22
ATOM     22  C   UNL     1       4.755   6.269  18.800  0.00  0.00    +0.000 C 
BRANCH  22  23
ATOM     23  C   UNL     1       5.453   5.893  17.507  0.00  0.00    +0.000 A 
ATOM     24  C   UNL     1       4.724   5.462  16.390  0.00  0.00    +0.000 A 
ATOM     25  C   UNL     1       5.377   4.995  15.244  0.00  0.00    +0.000 A 
ATOM     26  C   UNL     1       6.769   4.986  15.189  0.00  0.00    +0.000 A 
ATOM     27  C   UNL     1       7.505   5.501  16.252  0.00  0.00    +0.000 A 
ATOM     28  C   UNL     1       6.853   5.956  17.403  0.00  0.00    +0.000 A 
ENDBRANCH  22  23
ENDBRANCH   3  22
TORSDOF 6
ENDMDL
MODEL 2
REMARK VINA RESULT:      -7.5      2.003      4.423
REMARK  Name = 
REMARK  9 active torsions:
REMARK  status: ('A' for Active; 'I' for Inactive)
REMARK    1  A    between atoms: C_1  and  C_2
REMARK    2  A    between atoms: C_2  and  C_3
REMARK    3  A    between atoms: C_2  and  C_4
REMARK    4  A    between atoms: C_4  and  C_5
REMARK    5  A    between atoms: N_7  and  C_8
REMARK    6  A    between atoms: N_7  and  S_15
REMARK    7  A    between atoms: C_8  and  C_9
REMARK    8  A    between atoms: S_15  and  C_18
REMARK    9  A    between atoms: N_27  and  C_28
REMARK                            x       y       z     vdW  Elec       q    Type
REMARK                         _______ _______ _______ _____ _____    ______ ____
ROOT
ATOM      1  C   UNL     1       4.272   3.783  16.683  0.00  0.00    +0.000 C 
ATOM      2  O   UNL     1       3.777   2.671  16.526  0.00  0.00    +0.000 OA
ATOM      3  N   UNL     1       3.539   4.832  17.346  0.00  0.00    +0.000 N 
ENDROOT
BRANCH   3   4
ATOM      4  S   UNL     1       4.318   6.185  18.049  0.00  0.00    +0.000 S 
ATOM      5  O   UNL     1       5.091   5.776  19.201  0.00  0.00    +0.000 OA
ATOM      6  O   UNL     1       4.926   6.947  16.978  0.00  0.00    +0.000 OA
BRANCH   4   7
ATOM      7  C   UNL     1       2.976   7.175  18.709  0.00  0.00    +0.000 A 
ATOM      8  C   UNL     1       2.510   6.996  20.041  0.00  0.00    +0.000 A 
ATOM      9  C   UNL     1       1.574   7.889  20.597  0.00  0.00    +0.000 A 
ATOM     10  C   UNL     1       1.113   8.902  19.781  0.00  0.00    +0.000 A 
ATOM     11  C   UNL     1       1.537   9.028  18.469  0.00  0.00    +0.000 A 
ATOM     12  C   UNL     1       2.467   8.186  17.895  0.00  0.00    +0.000 A 
ATOM     13  O   UNL     1       0.969  10.104  17.809  0.00  0.00    +0.000 OA
ATOM     14  C   UNL     1       0.169  10.676  18.803  0.00  0.00    +0.000 A 
ATOM     15  O   UNL     1      -0.489  11.688  18.626  0.00  0.00    +0.000 OA
ATOM     16  N   UNL     1       0.248   9.956  19.981  0.00  0.00    +0.000 N 
ATOM     17  C   UNL     1      -0.415  10.359  21.186  0.00  0.00    +0.000 C 
ENDBRANCH   4   7
ENDBRANCH   3   4
BRANCH   1  18
ATOM     18  C   UNL     1       5.668   4.097  16.177  0.00  0.00    +0.000 C 
BRANCH  18  20
ATOM     19  C   UNL     1       7.247   5.243  14.574  0.00  0.00    +0.000 C 
ATOM     20  C   UNL     1       5.814   4.758  14.804  0.00  0.00    +0.000 C 
ATOM     21  C   UNL     1       5.460   3.710  13.735  0.00  0.00    +0.000 C 
ENDBRANCH  18  20
ENDBRANCH   1  18
BRANCH   3  22
ATOM     22  C   UNL     1       2.162   4.549  17.879  0.00  0.00    +0.000 C 
BRANCH  22  23
ATOM     23  C   UNL     1       2.155   3.773  19.181  0.00  0.00    +0.000 A 
ATOM     24  C   UNL     1       0.985   3.653  19.946  0.00  0.00    +0.000 A 
ATOM     25  C   UNL     1       1.013   3.046  21.206  0.00  0.00    +0.000 A 
ATOM     26  C   UNL     1       2.202   2.520  21.702  0.00  0.00    +0.000 A 
ATOM     27  C   UNL     1       3.350   2.545  20.914  0.00  0.00    +0.000 A 
ATOM     28  C   UNL     1       3.327   3.162  19.659  0.00  0.00    +0.000 A 
ENDBRANCH  22  23
ENDBRANCH   3  22
TORSDOF 6
ENDMDL
MODEL 3
REMARK VINA RESULT:      -7.5      1.497      2.030
REMARK  Name = 
REMARK  9 active torsions:
REMARK  status: ('A' for Active; 'I' for Inactive)
REMARK    1  A    between atoms: C_1  and  C_2
REMARK    2  A    between atoms: C_2  and  C_3
REMARK    3  A    between atoms: C_2  and  C_4
REMARK    4  A    between atoms: C_4  and  C_5
REMARK    5  A    between atoms: N_7  and  C_8
REMARK    6  A    between atoms: N_7  and  S_15
REMARK    7  A    between atoms: C_8  and  C_9
REMARK    8  A    between atoms: S_15  and  C_18
REMARK    9  A    between atoms: N_27  and  C_28
REMARK                            x       y       z     vdW  Elec       q    Type
REMARK                         _______ _______ _______ _____ _____    ______ ____
ROOT
ATOM      1  C   UNL     1       3.273   4.592  19.945  0.00  0.00    +0.000 C 
ATOM      2  O   UNL     1       4.007   3.765  20.480  0.00  0.00    +0.000 OA
ATOM      3  N   UNL     1       3.818   5.651  19.135  0.00  0.00    +0.000 N 
ENDROOT
BRANCH   3   4
ATOM      4  S   UNL     1       2.878   6.487  17.973  0.00  0.00    +0.000 S 
ATOM      5  O   UNL     1       3.734   7.089  16.974  0.00  0.00    +0.000 OA
ATOM      6  O   UNL     1       1.784   5.619  17.589  0.00  0.00    +0.000 OA
BRANCH   4   7
ATOM      7  C   UNL     1       2.171   7.862  18.881  0.00  0.00    +0.000 A 
ATOM      8  C   UNL     1       1.716   9.033  18.213  0.00  0.00    +0.000 A 
ATOM      9  C   UNL     1       1.014  10.030  18.918  0.00  0.00    +0.000 A 
ATOM     10  C   UNL     1       0.831   9.831  20.271  0.00  0.00    +0.000 A 
ATOM     11  C   UNL     1       1.330   8.711  20.914  0.00  0.00    +0.000 A 
ATOM     12  C   UNL     1       2.004   7.704  20.256  0.00  0.00    +0.000 A 
ATOM     13  O   UNL     1       1.047   8.682  22.268  0.00  0.00    +0.000 OA
ATOM     14  C   UNL     1       0.305   9.856  22.442  0.00  0.00    +0.000 A 
ATOM     15  O   UNL     1      -0.169  10.189  23.516  0.00  0.00    +0.000 OA
ATOM     16  N   UNL     1       0.181  10.548  21.251  0.00  0.00    +0.000 N 
ATOM     17  C   UNL     1      -0.591  11.749  21.126  0.00  0.00    +0.000 C 
ENDBRANCH   4   7
ENDBRANCH   3   4
BRANCH   1  18
ATOM     18  C   UNL     1       1.767   4.535  20.128  0.00  0.00    +0.000 C 
BRANCH  18  20
ATOM     19  C   UNL     1       1.634   2.262  19.037  0.00  0.00    +0.000 C 
ATOM     20  C   UNL     1       1.087   3.164  20.146  0.00  0.00    +0.000 C 
ATOM     21  C   UNL     1       1.370   2.512  21.510  0.00  0.00    +0.000 C 
ENDBRANCH  18  20
ENDBRANCH   1  18
BRANCH   3  22
ATOM     22  C   UNL     1       5.304   5.725  18.915  0.00  0.00    +0.000 C 
BRANCH  22  23
ATOM     23  C   UNL     1       5.759   5.137  17.594  0.00  0.00    +0.000 A 
ATOM     24  C   UNL     1       6.833   5.696  16.885  0.00  0.00    +0.000 A 
ATOM     25  C   UNL     1       7.168   5.231  15.609  0.00  0.00    +0.000 A 
ATOM     26  C   UNL     1       6.456   4.179  15.040  0.00  0.00    +0.000 A 
ATOM     27  C   UNL     1       5.451   3.551  15.770  0.00  0.00    +0.000 A 
ATOM     28  C   UNL     1       5.107   4.022  17.041  0.00  0.00    +0.000 A 
ENDBRANCH  22  23
ENDBRANCH   3  22
TORSDOF 6
ENDMDL
MODEL 4
REMARK VINA RESULT:      -7.2      2.047      4.446
REMARK  Name = 
REMARK  9 active torsions:
REMARK  status: ('A' for Active; 'I' for Inactive)
REMARK    1  A    between atoms: C_1  and  C_2
REMARK    2  A    between atoms: C_2  and  C_3
REMARK    3  A    between atoms: C_2  and  C_4
REMARK    4  A    between atoms: C_4  and  C_5
REMARK    5  A    between atoms: N_7  and  C_8
REMARK    6  A    between atoms: N_7  and  S_15
REMARK    7  A    between atoms: C_8  and  C_9
REMARK    8  A    between atoms: S_15  and  C_18
REMARK    9  A    between atoms: N_27  and  C_28
REMARK                            x       y       z     vdW  Elec       q    Type
REMARK                         _______ _______ _______ _____ _____    ______ ____
ROOT
ATOM      1  C   UNL     1       4.401   3.864  16.761  0.00  0.00    +0.000 C 
ATOM      2  O   UNL     1       3.929   2.745  16.580  0.00  0.00    +0.000 OA
ATOM      3  N   UNL     1       3.631   4.898  17.405  0.00  0.00    +0.000 N 
ENDROOT
BRANCH   3   4
ATOM      4  S   UNL     1       4.366   6.257  18.143  0.00  0.00    +0.000 S 
ATOM      5  O   UNL     1       5.100   5.853  19.322  0.00  0.00    +0.000 OA
ATOM      6  O   UNL     1       5.004   7.031  17.099  0.00  0.00    +0.000 OA
BRANCH   4   7
ATOM      7  C   UNL     1       2.987   7.228  18.756  0.00  0.00    +0.000 A 
ATOM      8  C   UNL     1       2.524   7.092  20.094  0.00  0.00    +0.000 A 
ATOM      9  C   UNL     1       1.554   7.975  20.607  0.00  0.00    +0.000 A 
ATOM     10  C   UNL     1       1.060   8.934  19.746  0.00  0.00    +0.000 A 
ATOM     11  C   UNL     1       1.483   9.015  18.430  0.00  0.00    +0.000 A 
ATOM     12  C   UNL     1       2.445   8.182  17.897  0.00  0.00    +0.000 A 
ATOM     13  O   UNL     1       0.880  10.039  17.721  0.00  0.00    +0.000 OA
ATOM     14  C   UNL     1       0.058  10.627  18.687  0.00  0.00    +0.000 A 
ATOM     15  O   UNL     1      -0.636  11.606  18.463  0.00  0.00    +0.000 OA
ATOM     16  N   UNL     1       0.158   9.964  19.897  0.00  0.00    +0.000 N 
ATOM     17  C   UNL     1      -0.523  10.397  21.082  0.00  0.00    +0.000 C 
ENDBRANCH   4   7
ENDBRANCH   3   4
BRANCH   1  18
ATOM     18  C   UNL     1       5.809   4.203  16.304  0.00  0.00    +0.000 C 
BRANCH  18  20
ATOM     19  C   UNL     1       5.026   4.092  13.907  0.00  0.00    +0.000 C 
ATOM     20  C   UNL     1       6.203   3.880  14.861  0.00  0.00    +0.000 C 
ATOM     21  C   UNL     1       7.350   4.822  14.461  0.00  0.00    +0.000 C 
ENDBRANCH  18  20
ENDBRANCH   1  18
BRANCH   3  22
ATOM     22  C   UNL     1       2.241   4.591  17.891  0.00  0.00    +0.000 C 
BRANCH  22  23
ATOM     23  C   UNL     1       2.201   3.878  19.229  0.00  0.00    +0.000 A 
ATOM     24  C   UNL     1       3.349   3.272  19.760  0.00  0.00    +0.000 A 
ATOM     25  C   UNL     1       3.279   2.508  20.930  0.00  0.00    +0.000 A 
ATOM     26  C   UNL     1       2.068   2.369  21.602  0.00  0.00    +0.000 A 
ATOM     27  C   UNL     1       0.941   3.043  21.140  0.00  0.00    +0.000 A 
ATOM     28  C   UNL     1       1.007   3.797  19.964  0.00  0.00    +0.000 A 
ENDBRANCH  22  23
ENDBRANCH   3  22
TORSDOF 6
ENDMDL
MODEL 5
REMARK VINA RESULT:      -7.2      2.348      4.688
REMARK  Name = 
REMARK  9 active torsions:
REMARK  status: ('A' for Active; 'I' for Inactive)
REMARK    1  A    between atoms: C_1  and  C_2
REMARK    2  A    between atoms: C_2  and  C_3
REMARK    3  A    between atoms: C_2  and  C_4
REMARK    4  A    between atoms: C_4  and  C_5
REMARK    5  A    between atoms: N_7  and  C_8
REMARK    6  A    between atoms: N_7  and  S_15
REMARK    7  A    between atoms: C_8  and  C_9
REMARK    8  A    between atoms: S_15  and  C_18
REMARK    9  A    between atoms: N_27  and  C_28
REMARK                            x       y       z     vdW  Elec       q    Type
REMARK                         _______ _______ _______ _____ _____    ______ ____
ROOT
ATOM      1  C   UNL     1       5.201   3.660  16.162  0.00  0.00    +0.000 C 
ATOM      2  O   UNL     1       5.230   2.433  16.129  0.00  0.00    +0.000 OA
ATOM      3  N   UNL     1       4.982   4.363  17.400  0.00  0.00    +0.000 N 
ENDROOT
BRANCH   3   4
ATOM      4  S   UNL     1       5.440   5.999  17.614  0.00  0.00    +0.000 S 
ATOM      5  O   UNL     1       6.402   6.115  18.688  0.00  0.00    +0.000 OA
ATOM      6  O   UNL     1       5.718   6.551  16.305  0.00  0.00    +0.000 OA
BRANCH   4   7
ATOM      7  C   UNL     1       3.954   6.799  18.223  0.00  0.00    +0.000 A 
ATOM      8  C   UNL     1       3.351   6.404  19.449  0.00  0.00    +0.000 A 
ATOM      9  C   UNL     1       2.287   7.148  19.994  0.00  0.00    +0.000 A 
ATOM     10  C   UNL     1       1.845   8.235  19.268  0.00  0.00    +0.000 A 
ATOM     11  C   UNL     1       2.409   8.572  18.049  0.00  0.00    +0.000 A 
ATOM     12  C   UNL     1       3.465   7.881  17.492  0.00  0.00    +0.000 A 
ATOM     13  O   UNL     1       1.839   9.693  17.471  0.00  0.00    +0.000 OA
ATOM     14  C   UNL     1       0.884  10.067  18.422  0.00  0.00    +0.000 A 
ATOM     15  O   UNL     1       0.173  11.050  18.298  0.00  0.00    +0.000 OA
ATOM     16  N   UNL     1       0.881   9.193  19.494  0.00  0.00    +0.000 N 
ATOM     17  C   UNL     1       0.050   9.379  20.648  0.00  0.00    +0.000 C 
ENDBRANCH   4   7
ENDBRANCH   3   4
BRANCH   1  18
ATOM     18  C   UNL     1       5.385   4.481  14.898  0.00  0.00    +0.000 C 
BRANCH  18  20
ATOM     19  C   UNL     1       5.388   3.545  12.554  0.00  0.00    +0.000 C 
ATOM     20  C   UNL     1       6.243   3.901  13.771  0.00  0.00    +0.000 C 
ATOM     21  C   UNL     1       7.276   4.967  13.366  0.00  0.00    +0.000 C 
ENDBRANCH  18  20
ENDBRANCH   1  18
BRANCH   3  22
ATOM     22  C   UNL     1       4.818   3.582  18.675  0.00  0.00    +0.000 C 
BRANCH  22  23
ATOM     23  C   UNL     1       3.373   3.306  19.044  0.00  0.00    +0.000 A 
ATOM     24  C   UNL     1       3.013   2.983  20.361  0.00  0.00    +0.000 A 
ATOM     25  C   UNL     1       1.702   2.605  20.671  0.00  0.00    +0.000 A 
ATOM     26  C   UNL     1       0.728   2.578  19.677  0.00  0.00    +0.000 A 
ATOM     27  C   UNL     1       1.049   2.988  18.385  0.00  0.00    +0.000 A 
ATOM     28  C   UNL     1       2.361   3.355  18.071  0.00  0.00    +0.000 A 
ENDBRANCH  22  23
ENDBRANCH   3  22
TORSDOF 6
ENDMDL
MODEL 6
REMARK VINA RESULT:      -7.2      1.987      4.326
REMARK  Name = 
REMARK  9 active torsions:
REMARK  status: ('A' for Active; 'I' for Inactive)
REMARK    1  A    between atoms: C_1  and  C_2
REMARK    2  A    between atoms: C_2  and  C_3
REMARK    3  A    between atoms: C_2  and  C_4
REMARK    4  A    between atoms: C_4  and  C_5
REMARK    5  A    between atoms: N_7  and  C_8
REMARK    6  A    between atoms: N_7  and  S_15
REMARK    7  A    between atoms: C_8  and  C_9
REMARK    8  A    between atoms: S_15  and  C_18
REMARK    9  A    between atoms: N_27  and  C_28
REMARK                            x       y       z     vdW  Elec       q    Type
REMARK                         _______ _______ _______ _____ _____    ______ ____
ROOT
ATOM      1  C   UNL     1       3.895   3.864  16.920  0.00  0.00    +0.000 C 
ATOM      2  O   UNL     1       3.262   2.813  16.865  0.00  0.00    +0.000 OA
ATOM      3  N   UNL     1       3.290   5.068  17.429  0.00  0.00    +0.000 N 
ENDROOT
BRANCH   3   4
ATOM      4  S   UNL     1       4.220   6.381  18.012  0.00  0.00    +0.000 S 
ATOM      5  O   UNL     1       4.925   6.002  19.217  0.00  0.00    +0.000 OA
ATOM      6  O   UNL     1       4.929   6.950  16.884  0.00  0.00    +0.000 OA
BRANCH   4   7
ATOM      7  C   UNL     1       3.002   7.589  18.537  0.00  0.00    +0.000 A 
ATOM      8  C   UNL     1       2.412   8.494  17.613  0.00  0.00    +0.000 A 
ATOM      9  C   UNL     1       1.341   9.320  18.006  0.00  0.00    +0.000 A 
ATOM     10  C   UNL     1       0.932   9.233  19.321  0.00  0.00    +0.000 A 
ATOM     11  C   UNL     1       1.555   8.385  20.221  0.00  0.00    +0.000 A 
ATOM     12  C   UNL     1       2.593   7.547  19.869  0.00  0.00    +0.000 A 
ATOM     13  O   UNL     1       1.006   8.430  21.490  0.00  0.00    +0.000 OA
ATOM     14  C   UNL     1      -0.035   9.351  21.332  0.00  0.00    +0.000 A 
ATOM     15  O   UNL     1      -0.797   9.654  22.235  0.00  0.00    +0.000 OA
ATOM     16  N   UNL     1      -0.077   9.838  20.038  0.00  0.00    +0.000 N 
ATOM     17  C   UNL     1      -1.089  10.743  19.579  0.00  0.00    +0.000 C 
ENDBRANCH   4   7
ENDBRANCH   3   4
BRANCH   1  18
ATOM     18  C   UNL     1       5.335   3.936  16.442  0.00  0.00    +0.000 C 
BRANCH  18  20
ATOM     19  C   UNL     1       7.093   5.020  14.991  0.00  0.00    +0.000 C 
ATOM     20  C   UNL     1       5.623   4.608  15.098  0.00  0.00    +0.000 C 
ATOM     21  C   UNL     1       5.302   3.597  13.984  0.00  0.00    +0.000 C 
ENDBRANCH  18  20
ENDBRANCH   1  18
BRANCH   3  22
ATOM     22  C   UNL     1       1.872   5.027  17.931  0.00  0.00    +0.000 C 
BRANCH  22  23
ATOM     23  C   UNL     1       1.687   4.190  19.182  0.00  0.00    +0.000 A 
ATOM     24  C   UNL     1       2.205   4.610  20.416  0.00  0.00    +0.000 A 
ATOM     25  C   UNL     1       2.143   3.777  21.538  0.00  0.00    +0.000 A 
ATOM     26  C   UNL     1       1.532   2.529  21.450  0.00  0.00    +0.000 A 
ATOM     27  C   UNL     1       0.929   2.139  20.257  0.00  0.00    +0.000 A 
ATOM     28  C   UNL     1       1.001   2.965  19.131  0.00  0.00    +0.000 A 
ENDBRANCH  22  23
ENDBRANCH   3  22
TORSDOF 6
ENDMDL
MODEL 7
REMARK VINA RESULT:      -7.2      3.620      6.267
REMARK  Name = 
REMARK  9 active torsions:
REMARK  status: ('A' for Active; 'I' for Inactive)
REMARK    1  A    between atoms: C_1  and  C_2
REMARK    2  A    between atoms: C_2  and  C_3
REMARK    3  A    between atoms: C_2  and  C_4
REMARK    4  A    between atoms: C_4  and  C_5
REMARK    5  A    between atoms: N_7  and  C_8
REMARK    6  A    between atoms: N_7  and  S_15
REMARK    7  A    between atoms: C_8  and  C_9
REMARK    8  A    between atoms: S_15  and  C_18
REMARK    9  A    between atoms: N_27  and  C_28
REMARK                            x       y       z     vdW  Elec       q    Type
REMARK                         _______ _______ _______ _____ _____    ______ ____
ROOT
ATOM      1  C   UNL     1       5.212   6.772  16.093  0.00  0.00    +0.000 C 
ATOM      2  O   UNL     1       4.995   7.505  15.132  0.00  0.00    +0.000 OA
ATOM      3  N   UNL     1       6.240   5.765  16.039  0.00  0.00    +0.000 N 
ENDROOT
BRANCH   3   4
ATOM      4  S   UNL     1       6.935   5.094  17.453  0.00  0.00    +0.000 S 
ATOM      5  O   UNL     1       7.850   4.029  17.105  0.00  0.00    +0.000 OA
ATOM      6  O   UNL     1       7.359   6.192  18.296  0.00  0.00    +0.000 OA
BRANCH   4   7
ATOM      7  C   UNL     1       5.564   4.287  18.281  0.00  0.00    +0.000 A 
ATOM      8  C   UNL     1       5.418   4.341  19.695  0.00  0.00    +0.000 A 
ATOM      9  C   UNL     1       4.253   3.848  20.312  0.00  0.00    +0.000 A 
ATOM     10  C   UNL     1       3.298   3.285  19.491  0.00  0.00    +0.000 A 
ATOM     11  C   UNL     1       3.481   3.191  18.122  0.00  0.00    +0.000 A 
ATOM     12  C   UNL     1       4.599   3.680  17.478  0.00  0.00    +0.000 A 
ATOM     13  O   UNL     1       2.417   2.601  17.463  0.00  0.00    +0.000 OA
ATOM     14  C   UNL     1       1.524   2.346  18.509  0.00  0.00    +0.000 A 
ATOM     15  O   UNL     1       0.424   1.846  18.336  0.00  0.00    +0.000 OA
ATOM     16  N   UNL     1       2.051   2.748  19.723  0.00  0.00    +0.000 N 
ATOM     17  C   UNL     1       1.319   2.670  20.953  0.00  0.00    +0.000 C 
ENDBRANCH   4   7
ENDBRANCH   3   4
BRANCH   1  18
ATOM     18  C   UNL     1       4.397   6.894  17.369  0.00  0.00    +0.000 C 
BRANCH  18  20
ATOM     19  C   UNL     1       2.059   6.320  18.126  0.00  0.00    +0.000 C 
ATOM     20  C   UNL     1       2.912   7.243  17.254  0.00  0.00    +0.000 C 
ATOM     21  C   UNL     1       2.728   8.695  17.728  0.00  0.00    +0.000 C 
ENDBRANCH  18  20
ENDBRANCH   1  18
BRANCH   3  22
ATOM     22  C   UNL     1       7.080   5.632  14.799  0.00  0.00    +0.000 C 
BRANCH  22  23
ATOM     23  C   UNL     1       6.539   4.632  13.796  0.00  0.00    +0.000 A 
ATOM     24  C   UNL     1       7.320   4.198  12.714  0.00  0.00    +0.000 A 
ATOM     25  C   UNL     1       6.775   3.376  11.722  0.00  0.00    +0.000 A 
ATOM     26  C   UNL     1       5.453   2.949  11.817  0.00  0.00    +0.000 A 
ATOM     27  C   UNL     1       4.695   3.292  12.933  0.00  0.00    +0.000 A 
ATOM     28  C   UNL     1       5.235   4.124  13.920  0.00  0.00    +0.000 A 
ENDBRANCH  22  23
ENDBRANCH   3  22
TORSDOF 6
ENDMDL
MODEL 8
REMARK VINA RESULT:      -7.1      1.703      2.493
REMARK  Name = 
REMARK  9 active torsions:
REMARK  status: ('A' for Active; 'I' for Inactive)
REMARK    1  A    between atoms: C_1  and  C_2
REMARK    2  A    between atoms: C_2  and  C_3
REMARK    3  A    between atoms: C_2  and  C_4
REMARK    4  A    between atoms: C_4  and  C_5
REMARK    5  A    between atoms: N_7  and  C_8
REMARK    6  A    between atoms: N_7  and  S_15
REMARK    7  A    between atoms: C_8  and  C_9
REMARK    8  A    between atoms: S_15  and  C_18
REMARK    9  A    between atoms: N_27  and  C_28
REMARK                            x       y       z     vdW  Elec       q    Type
REMARK                         _______ _______ _______ _____ _____    ______ ____
ROOT
ATOM      1  C   UNL     1       4.333   3.640  19.598  0.00  0.00    +0.000 C 
ATOM      2  O   UNL     1       5.124   2.896  20.170  0.00  0.00    +0.000 OA
ATOM      3  N   UNL     1       4.743   4.421  18.459  0.00  0.00    +0.000 N 
ENDROOT
BRANCH   3   4
ATOM      4  S   UNL     1       3.620   5.047  17.328  0.00  0.00    +0.000 S 
ATOM      5  O   UNL     1       4.303   5.474  16.127  0.00  0.00    +0.000 OA
ATOM      6  O   UNL     1       2.506   4.124  17.261  0.00  0.00    +0.000 OA
BRANCH   4   7
ATOM      7  C   UNL     1       3.016   6.554  18.090  0.00  0.00    +0.000 A 
ATOM      8  C   UNL     1       2.963   7.778  17.368  0.00  0.00    +0.000 A 
ATOM      9  C   UNL     1       2.334   8.909  17.923  0.00  0.00    +0.000 A 
ATOM     10  C   UNL     1       1.818   8.777  19.196  0.00  0.00    +0.000 A 
ATOM     11  C   UNL     1       1.928   7.593  19.906  0.00  0.00    +0.000 A 
ATOM     12  C   UNL     1       2.519   6.459  19.389  0.00  0.00    +0.000 A 
ATOM     13  O   UNL     1       1.350   7.649  21.162  0.00  0.00    +0.000 OA
ATOM     14  C   UNL     1       0.836   8.950  21.196  0.00  0.00    +0.000 A 
ATOM     15  O   UNL     1       0.211   9.392  22.146  0.00  0.00    +0.000 OA
ATOM     16  N   UNL     1       1.121   9.629  20.025  0.00  0.00    +0.000 N 
ATOM     17  C   UNL     1       0.651  10.957  19.761  0.00  0.00    +0.000 C 
ENDBRANCH   4   7
ENDBRANCH   3   4
BRANCH   1  18
ATOM     18  C   UNL     1       2.898   3.774  20.075  0.00  0.00    +0.000 C 
BRANCH  18  20
ATOM     19  C   UNL     1       1.682   2.424  21.827  0.00  0.00    +0.000 C 
ATOM     20  C   UNL     1       2.103   2.497  20.358  0.00  0.00    +0.000 C 
ATOM     21  C   UNL     1       0.844   2.517  19.474  0.00  0.00    +0.000 C 
ENDBRANCH  18  20
ENDBRANCH   1  18
BRANCH   3  22
ATOM     22  C   UNL     1       6.152   4.297  17.946  0.00  0.00    +0.000 C 
BRANCH  22  23
ATOM     23  C   UNL     1       6.963   5.574  18.064  0.00  0.00    +0.000 A 
ATOM     24  C   UNL     1       7.814   5.791  19.157  0.00  0.00    +0.000 A 
ATOM     25  C   UNL     1       8.461   7.019  19.327  0.00  0.00    +0.000 A 
ATOM     26  C   UNL     1       8.293   8.034  18.388  0.00  0.00    +0.000 A 
ATOM     27  C   UNL     1       7.528   7.799  17.248  0.00  0.00    +0.000 A 
ATOM     28  C   UNL     1       6.871   6.575  17.083  0.00  0.00    +0.000 A 
ENDBRANCH  22  23
ENDBRANCH   3  22
TORSDOF 6
ENDMDL
MODEL 9
REMARK VINA RESULT:      -7.1      2.164      4.625
REMARK  Name = 
REMARK  9 active torsions:
REMARK  status: ('A' for Active; 'I' for Inactive)
REMARK    1  A    between atoms: C_1  and  C_2
REMARK    2  A    between atoms: C_2  and  C_3
REMARK    3  A    between atoms: C_2  and  C_4
REMARK    4  A    between atoms: C_4  and  C_5
REMARK    5  A    between atoms: N_7  and  C_8
REMARK    6  A    between atoms: N_7  and  S_15
REMARK    7  A    between atoms: C_8  and  C_9
REMARK    8  A    between atoms: S_15  and  C_18
REMARK    9  A    between atoms: N_27  and  C_28
REMARK                            x       y       z     vdW  Elec       q    Type
REMARK                         _______ _______ _______ _____ _____    ______ ____
ROOT
ATOM      1  C   UNL     1       4.874   4.004  16.341  0.00  0.00    +0.000 C 
ATOM      2  O   UNL     1       4.850   2.840  15.951  0.00  0.00    +0.000 OA
ATOM      3  N   UNL     1       4.732   4.319  17.740  0.00  0.00    +0.000 N 
ENDROOT
BRANCH   3   4
ATOM      4  S   UNL     1       5.265   5.807  18.399  0.00  0.00    +0.000 S 
ATOM      5  O   UNL     1       5.911   5.588  19.675  0.00  0.00    +0.000 OA
ATOM      6  O   UNL     1       5.935   6.538  17.343  0.00  0.00    +0.000 OA
BRANCH   4   7
ATOM      7  C   UNL     1       3.752   6.691  18.780  0.00  0.00    +0.000 A 
ATOM      8  C   UNL     1       3.031   6.438  19.980  0.00  0.00    +0.000 A 
ATOM      9  C   UNL     1       1.941   7.253  20.343  0.00  0.00    +0.000 A 
ATOM     10  C   UNL     1       1.595   8.264  19.470  0.00  0.00    +0.000 A 
ATOM     11  C   UNL     1       2.275   8.459  18.280  0.00  0.00    +0.000 A 
ATOM     12  C   UNL     1       3.359   7.696  17.898  0.00  0.00    +0.000 A 
ATOM     13  O   UNL     1       1.788   9.520  17.536  0.00  0.00    +0.000 OA
ATOM     14  C   UNL     1       0.761  10.009  18.351  0.00  0.00    +0.000 A 
ATOM     15  O   UNL     1       0.089  10.985  18.060  0.00  0.00    +0.000 OA
ATOM     16  N   UNL     1       0.639   9.255  19.504  0.00  0.00    +0.000 N 
ATOM     17  C   UNL     1      -0.287   9.577  20.550  0.00  0.00    +0.000 C 
ENDBRANCH   4   7
ENDBRANCH   3   4
BRANCH   1  18
ATOM     18  C   UNL     1       5.043   5.153  15.364  0.00  0.00    +0.000 C 
BRANCH  18  20
ATOM     19  C   UNL     1       7.502   4.770  14.945  0.00  0.00    +0.000 C 
ATOM     20  C   UNL     1       6.142   5.052  14.303  0.00  0.00    +0.000 C 
ATOM     21  C   UNL     1       5.782   3.895  13.357  0.00  0.00    +0.000 C 
ENDBRANCH  18  20
ENDBRANCH   1  18
BRANCH   3  22
ATOM     22  C   UNL     1       4.585   3.204  18.738  0.00  0.00    +0.000 C 
BRANCH  22  23
ATOM     23  C   UNL     1       3.177   3.046  19.279  0.00  0.00    +0.000 A 
ATOM     24  C   UNL     1       2.069   3.027  18.419  0.00  0.00    +0.000 A 
ATOM     25  C   UNL     1       0.767   3.010  18.930  0.00  0.00    +0.000 A 
ATOM     26  C   UNL     1       0.556   2.977  20.306  0.00  0.00    +0.000 A 
ATOM     27  C   UNL     1       1.646   2.899  21.169  0.00  0.00    +0.000 A 
ATOM     28  C   UNL     1       2.948   2.928  20.660  0.00  0.00    +0.000 A 
ENDBRANCH  22  23
ENDBRANCH   3  22
TORSDOF 6
ENDMDL
