MODEL 1
REMARK VINA RESULT:      -8.4      0.000      0.000
REMARK  Name = 
REMARK  7 active torsions:
REMARK  status: ('A' for Active; 'I' for Inactive)
REMARK    1  A    between atoms: C_1  and  C_2
REMARK    2  A    between atoms: C_4  and  N_5
REMARK    3  A    between atoms: C_6  and  C_8
REMARK    4  A    between atoms: C_15  and  O_16
REMARK    5  A    between atoms: C_20  and  C_21
REMARK    6  A    between atoms: C_21  and  C_22
REMARK    7  A    between atoms: C_21  and  C_24
REMARK                            x       y       z     vdW  Elec       q    Type
REMARK                         _______ _______ _______ _____ _____    ______ ____
ROOT
ATOM      1  C   UNL     1       1.896   3.678  21.214  0.00  0.00    +0.000 C 
ATOM      2  C   UNL     1       2.168   4.910  20.395  0.00  0.00    +0.000 A 
ATOM      3  C   UNL     1       1.517   6.101  20.759  0.00  0.00    +0.000 A 
ATOM      4  C   UNL     1       1.664   7.287  20.031  0.00  0.00    +0.000 A 
ATOM      5  C   UNL     1       2.546   7.307  18.957  0.00  0.00    +0.000 A 
ATOM      6 CL   UNL     1       2.799   8.730  18.007  0.00  0.00    +0.000 Cl
ATOM      7  C   UNL     1       3.202   6.135  18.576  0.00  0.00    +0.000 A 
ATOM      8  C   UNL     1       3.007   4.912  19.269  0.00  0.00    +0.000 A 
ENDROOT
BRANCH   4   9
ATOM      9  N   UNL     1       0.945   8.454  20.357  0.00  0.00    +0.000 N 
ATOM     10  C   UNL     1       1.113   9.208  21.497  0.00  0.00    +0.000 C 
ATOM     11  O   UNL     1       1.860   8.916  22.429  0.00  0.00    +0.000 OA
ATOM     12  H   UNL     1       0.155   8.689  19.754  0.00  0.00    +0.000 HD
BRANCH  10  13
ATOM     13  C   UNL     1       0.307  10.454  21.615  0.00  0.00    +0.000 A 
ATOM     14  C   UNL     1       0.611  11.468  20.689  0.00  0.00    +0.000 A 
ATOM     15  C   UNL     1      -0.137  12.639  20.657  0.00  0.00    +0.000 A 
ATOM     16 CL   UNL     1       0.237  13.850  19.493  0.00  0.00    +0.000 Cl
ATOM     17  C   UNL     1      -1.190  12.829  21.543  0.00  0.00    +0.000 A 
ATOM     18  C   UNL     1      -1.483  11.836  22.478  0.00  0.00    +0.000 A 
ATOM     19 CL   UNL     1      -2.796  12.081  23.570  0.00  0.00    +0.000 Cl
ATOM     20  C   UNL     1      -0.737  10.652  22.525  0.00  0.00    +0.000 A 
BRANCH  20  21
ATOM     21  O   UNL     1      -1.042   9.690  23.459  0.00  0.00    +0.000 OA
ATOM     22  H   UNL     1      -1.747  10.048  24.036  0.00  0.00    +0.000 HD
ENDBRANCH  20  21
ENDBRANCH  10  13
ENDBRANCH   4   9
BRANCH   8  23
ATOM     23  C   UNL     1       3.633   3.616  18.738  0.00  0.00    +0.000 C 
BRANCH  23  24
ATOM     24  C   UNL     1       4.668   3.898  17.634  0.00  0.00    +0.000 A 
ATOM     25  C   UNL     1       4.312   3.837  16.267  0.00  0.00    +0.000 A 
ATOM     26  C   UNL     1       5.221   4.182  15.266  0.00  0.00    +0.000 A 
ATOM     27  C   UNL     1       6.501   4.594  15.614  0.00  0.00    +0.000 A 
ATOM     28 CL   UNL     1       7.609   5.063  14.385  0.00  0.00    +0.000 Cl
ATOM     29  C   UNL     1       6.882   4.647  16.954  0.00  0.00    +0.000 A 
ATOM     30  C   UNL     1       5.972   4.300  17.960  0.00  0.00    +0.000 A 
ENDBRANCH  23  24
BRANCH  23  31
ATOM     31  C   UNL     1       4.357   2.892  19.861  0.00  0.00    +0.000 C 
ATOM     32  N   UNL     1       4.959   2.292  20.793  0.00  0.00    +0.000 NA
ENDBRANCH  23  31
ENDBRANCH   8  23
TORSDOF 6
ENDMDL
MODEL 2
REMARK VINA RESULT:      -8.0      2.991     10.251
REMARK  Name = 
REMARK  7 active torsions:
REMARK  status: ('A' for Active; 'I' for Inactive)
REMARK    1  A    between atoms: C_1  and  C_2
REMARK    2  A    between atoms: C_4  and  N_5
REMARK    3  A    between atoms: C_6  and  C_8
REMARK    4  A    between atoms: C_15  and  O_16
REMARK    5  A    between atoms: C_20  and  C_21
REMARK    6  A    between atoms: C_21  and  C_22
REMARK    7  A    between atoms: C_21  and  C_24
REMARK                            x       y       z     vdW  Elec       q    Type
REMARK                         _______ _______ _______ _____ _____    ______ ____
ROOT
ATOM      1  C   UNL     1      -1.243  12.196  18.217  0.00  0.00    +0.000 C 
ATOM      2  C   UNL     1      -0.525  11.514  19.348  0.00  0.00    +0.000 A 
ATOM      3  C   UNL     1       0.048  10.255  19.102  0.00  0.00    +0.000 A 
ATOM      4  C   UNL     1       0.693   9.517  20.102  0.00  0.00    +0.000 A 
ATOM      5  C   UNL     1       0.841  10.085  21.362  0.00  0.00    +0.000 A 
ATOM      6 CL   UNL     1       1.633   9.253  22.654  0.00  0.00    +0.000 Cl
ATOM      7  C   UNL     1       0.278  11.336  21.629  0.00  0.00    +0.000 A 
ATOM      8  C   UNL     1      -0.435  12.060  20.639  0.00  0.00    +0.000 A 
ENDROOT
BRANCH   4   9
ATOM      9  N   UNL     1       1.192   8.221  19.865  0.00  0.00    +0.000 N 
ATOM     10  C   UNL     1       2.175   7.894  18.958  0.00  0.00    +0.000 C 
ATOM     11  O   UNL     1       2.694   8.681  18.168  0.00  0.00    +0.000 OA
ATOM     12  H   UNL     1       0.700   7.450  20.319  0.00  0.00    +0.000 HD
BRANCH  10  13
ATOM     13  C   UNL     1       2.619   6.474  18.917  0.00  0.00    +0.000 A 
ATOM     14  C   UNL     1       2.023   5.620  19.863  0.00  0.00    +0.000 A 
ATOM     15  C   UNL     1       2.302   4.258  19.858  0.00  0.00    +0.000 A 
ATOM     16 CL   UNL     1       1.535   3.233  21.006  0.00  0.00    +0.000 Cl
ATOM     17  C   UNL     1       3.181   3.722  18.925  0.00  0.00    +0.000 A 
ATOM     18  C   UNL     1       3.793   4.566  17.999  0.00  0.00    +0.000 A 
ATOM     19 CL   UNL     1       4.878   3.888  16.842  0.00  0.00    +0.000 Cl
ATOM     20  C   UNL     1       3.523   5.940  17.992  0.00  0.00    +0.000 A 
BRANCH  20  21
ATOM     21  O   UNL     1       4.142   6.753  17.072  0.00  0.00    +0.000 OA
ATOM     22  H   UNL     1       4.401   7.579  17.530  0.00  0.00    +0.000 HD
ENDBRANCH  20  21
ENDBRANCH  10  13
ENDBRANCH   4   9
BRANCH   8  23
ATOM     23  C   UNL     1      -1.159  13.362  21.007  0.00  0.00    +0.000 C 
BRANCH  23  24
ATOM     24  C   UNL     1      -2.460  13.086  21.781  0.00  0.00    +0.000 A 
ATOM     25  C   UNL     1      -2.460  12.973  23.191  0.00  0.00    +0.000 A 
ATOM     26  C   UNL     1      -3.649  12.815  23.904  0.00  0.00    +0.000 A 
ATOM     27  C   UNL     1      -4.858  12.769  23.222  0.00  0.00    +0.000 A 
ATOM     28 CL   UNL     1      -6.328  12.620  24.102  0.00  0.00    +0.000 Cl
ATOM     29  C   UNL     1      -4.883  12.861  21.832  0.00  0.00    +0.000 A 
ATOM     30  C   UNL     1      -3.691  13.018  21.113  0.00  0.00    +0.000 A 
ENDBRANCH  23  24
BRANCH  23  31
ATOM     31  C   UNL     1      -0.273  14.212  21.904  0.00  0.00    +0.000 C 
ATOM     32  N   UNL     1       0.462  14.916  22.648  0.00  0.00    +0.000 NA
ENDBRANCH  23  31
ENDBRANCH   8  23
TORSDOF 6
ENDMDL
MODEL 3
REMARK VINA RESULT:      -8.0      2.860      9.206
REMARK  Name = 
REMARK  7 active torsions:
REMARK  status: ('A' for Active; 'I' for Inactive)
REMARK    1  A    between atoms: C_1  and  C_2
REMARK    2  A    between atoms: C_4  and  N_5
REMARK    3  A    between atoms: C_6  and  C_8
REMARK    4  A    between atoms: C_15  and  O_16
REMARK    5  A    between atoms: C_20  and  C_21
REMARK    6  A    between atoms: C_21  and  C_22
REMARK    7  A    between atoms: C_21  and  C_24
REMARK                            x       y       z     vdW  Elec       q    Type
REMARK                         _______ _______ _______ _____ _____    ______ ____
ROOT
ATOM      1  C   UNL     1      -0.498   9.958  23.148  0.00  0.00    +0.000 C 
ATOM      2  C   UNL     1      -0.000   9.875  21.731  0.00  0.00    +0.000 A 
ATOM      3  C   UNL     1       0.795   8.773  21.376  0.00  0.00    +0.000 A 
ATOM      4  C   UNL     1       1.347   8.630  20.097  0.00  0.00    +0.000 A 
ATOM      5  C   UNL     1       1.033   9.571  19.124  0.00  0.00    +0.000 A 
ATOM      6 CL   UNL     1       1.660   9.469  17.516  0.00  0.00    +0.000 Cl
ATOM      7  C   UNL     1       0.245  10.675  19.456  0.00  0.00    +0.000 A 
ATOM      8  C   UNL     1      -0.265  10.861  20.767  0.00  0.00    +0.000 A 
ENDROOT
BRANCH   4   9
ATOM      9  N   UNL     1       2.210   7.563  19.774  0.00  0.00    +0.000 N 
ATOM     10  C   UNL     1       1.996   6.238  20.083  0.00  0.00    +0.000 C 
ATOM     11  O   UNL     1       1.060   5.815  20.758  0.00  0.00    +0.000 OA
ATOM     12  H   UNL     1       3.120   7.811  19.386  0.00  0.00    +0.000 HD
BRANCH  10  13
ATOM     13  C   UNL     1       2.993   5.253  19.580  0.00  0.00    +0.000 A 
ATOM     14  C   UNL     1       4.319   5.714  19.494  0.00  0.00    +0.000 A 
ATOM     15  C   UNL     1       5.341   4.852  19.117  0.00  0.00    +0.000 A 
ATOM     16 CL   UNL     1       6.958   5.435  19.052  0.00  0.00    +0.000 Cl
ATOM     17  C   UNL     1       5.069   3.525  18.811  0.00  0.00    +0.000 A 
ATOM     18  C   UNL     1       3.752   3.067  18.872  0.00  0.00    +0.000 A 
ATOM     19 CL   UNL     1       3.426   1.415  18.493  0.00  0.00    +0.000 Cl
ATOM     20  C   UNL     1       2.710   3.923  19.248  0.00  0.00    +0.000 A 
BRANCH  20  21
ATOM     21  O   UNL     1       1.421   3.449  19.297  0.00  0.00    +0.000 OA
ATOM     22  H   UNL     1       1.423   2.541  18.931  0.00  0.00    +0.000 HD
ENDBRANCH  20  21
ENDBRANCH  10  13
ENDBRANCH   4   9
BRANCH   8  23
ATOM     23  C   UNL     1      -1.005  12.155  21.131  0.00  0.00    +0.000 C 
BRANCH  23  24
ATOM     24  C   UNL     1      -0.194  13.402  20.736  0.00  0.00    +0.000 A 
ATOM     25  C   UNL     1       1.010  13.728  21.402  0.00  0.00    +0.000 A 
ATOM     26  C   UNL     1       1.797  14.804  20.987  0.00  0.00    +0.000 A 
ATOM     27  C   UNL     1       1.395  15.571  19.901  0.00  0.00    +0.000 A 
ATOM     28 CL   UNL     1       2.385  16.869  19.361  0.00  0.00    +0.000 Cl
ATOM     29  C   UNL     1       0.203  15.280  19.239  0.00  0.00    +0.000 A 
ATOM     30  C   UNL     1      -0.589  14.201  19.654  0.00  0.00    +0.000 A 
ENDBRANCH  23  24
BRANCH  23  31
ATOM     31  C   UNL     1      -2.327  12.222  20.383  0.00  0.00    +0.000 C 
ATOM     32  N   UNL     1      -3.423  12.277  19.762  0.00  0.00    +0.000 NA
ENDBRANCH  23  31
ENDBRANCH   8  23
TORSDOF 6
ENDMDL
MODEL 4
REMARK VINA RESULT:      -8.0      2.818     10.049
REMARK  Name = 
REMARK  7 active torsions:
REMARK  status: ('A' for Active; 'I' for Inactive)
REMARK    1  A    between atoms: C_1  and  C_2
REMARK    2  A    between atoms: C_4  and  N_5
REMARK    3  A    between atoms: C_6  and  C_8
REMARK    4  A    between atoms: C_15  and  O_16
REMARK    5  A    between atoms: C_20  and  C_21
REMARK    6  A    between atoms: C_21  and  C_22
REMARK    7  A    between atoms: C_21  and  C_24
REMARK                            x       y       z     vdW  Elec       q    Type
REMARK                         _______ _______ _______ _____ _____    ______ ____
ROOT
ATOM      1  C   UNL     1      -1.432  12.039  18.181  0.00  0.00    +0.000 C 
ATOM      2  C   UNL     1      -0.639  11.404  19.290  0.00  0.00    +0.000 A 
ATOM      3  C   UNL     1      -0.059  10.148  19.050  0.00  0.00    +0.000 A 
ATOM      4  C   UNL     1       0.655   9.452  20.033  0.00  0.00    +0.000 A 
ATOM      5  C   UNL     1       0.864  10.061  21.264  0.00  0.00    +0.000 A 
ATOM      6 CL   UNL     1       1.743   9.282  22.533  0.00  0.00    +0.000 Cl
ATOM      7  C   UNL     1       0.295  11.310  21.526  0.00  0.00    +0.000 A 
ATOM      8  C   UNL     1      -0.486  11.992  20.556  0.00  0.00    +0.000 A 
ENDROOT
BRANCH   4   9
ATOM      9  N   UNL     1       1.164   8.157  19.807  0.00  0.00    +0.000 N 
ATOM     10  C   UNL     1       2.183   7.837  18.938  0.00  0.00    +0.000 C 
ATOM     11  O   UNL     1       2.733   8.629  18.176  0.00  0.00    +0.000 OA
ATOM     12  H   UNL     1       0.654   7.383  20.235  0.00  0.00    +0.000 HD
BRANCH  10  13
ATOM     13  C   UNL     1       2.627   6.416  18.905  0.00  0.00    +0.000 A 
ATOM     14  C   UNL     1       3.309   6.015  17.742  0.00  0.00    +0.000 A 
ATOM     15  C   UNL     1       3.840   4.735  17.642  0.00  0.00    +0.000 A 
ATOM     16 CL   UNL     1       4.697   4.282  16.222  0.00  0.00    +0.000 Cl
ATOM     17  C   UNL     1       3.699   3.829  18.686  0.00  0.00    +0.000 A 
ATOM     18  C   UNL     1       3.004   4.213  19.834  0.00  0.00    +0.000 A 
ATOM     19 CL   UNL     1       2.839   3.081  21.126  0.00  0.00    +0.000 Cl
ATOM     20  C   UNL     1       2.461   5.498  19.949  0.00  0.00    +0.000 A 
BRANCH  20  21
ATOM     21  O   UNL     1       1.777   5.852  21.087  0.00  0.00    +0.000 OA
ATOM     22  H   UNL     1       1.839   5.104  21.716  0.00  0.00    +0.000 HD
ENDBRANCH  20  21
ENDBRANCH  10  13
ENDBRANCH   4   9
BRANCH   8  23
ATOM     23  C   UNL     1      -1.211  13.292  20.926  0.00  0.00    +0.000 C 
BRANCH  23  24
ATOM     24  C   UNL     1      -2.500  13.015  21.721  0.00  0.00    +0.000 A 
ATOM     25  C   UNL     1      -2.458  12.758  23.111  0.00  0.00    +0.000 A 
ATOM     26  C   UNL     1      -3.629  12.598  23.853  0.00  0.00    +0.000 A 
ATOM     27  C   UNL     1      -4.861  12.692  23.219  0.00  0.00    +0.000 A 
ATOM     28 CL   UNL     1      -6.307  12.540  24.139  0.00  0.00    +0.000 Cl
ATOM     29  C   UNL     1      -4.929  12.928  21.847  0.00  0.00    +0.000 A 
ATOM     30  C   UNL     1      -3.755  13.088  21.100  0.00  0.00    +0.000 A 
ENDBRANCH  23  24
BRANCH  23  31
ATOM     31  C   UNL     1      -0.317  14.153  21.804  0.00  0.00    +0.000 C 
ATOM     32  N   UNL     1       0.425  14.867  22.531  0.00  0.00    +0.000 NA
ENDBRANCH  23  31
ENDBRANCH   8  23
TORSDOF 6
ENDMDL
MODEL 5
REMARK VINA RESULT:      -8.0      3.279      9.661
REMARK  Name = 
REMARK  7 active torsions:
REMARK  status: ('A' for Active; 'I' for Inactive)
REMARK    1  A    between atoms: C_1  and  C_2
REMARK    2  A    between atoms: C_4  and  N_5
REMARK    3  A    between atoms: C_6  and  C_8
REMARK    4  A    between atoms: C_15  and  O_16
REMARK    5  A    between atoms: C_20  and  C_21
REMARK    6  A    between atoms: C_21  and  C_22
REMARK    7  A    between atoms: C_21  and  C_24
REMARK                            x       y       z     vdW  Elec       q    Type
REMARK                         _______ _______ _______ _____ _____    ______ ____
ROOT
ATOM      1  C   UNL     1       0.899  13.048  18.500  0.00  0.00    +0.000 C 
ATOM      2  C   UNL     1       0.584  11.819  19.309  0.00  0.00    +0.000 A 
ATOM      3  C   UNL     1       1.375  10.677  19.107  0.00  0.00    +0.000 A 
ATOM      4  C   UNL     1       1.132   9.469  19.773  0.00  0.00    +0.000 A 
ATOM      5  C   UNL     1       0.120   9.424  20.725  0.00  0.00    +0.000 A 
ATOM      6 CL   UNL     1      -0.244   7.981  21.604  0.00  0.00    +0.000 Cl
ATOM      7  C   UNL     1      -0.679  10.548  20.942  0.00  0.00    +0.000 A 
ATOM      8  C   UNL     1      -0.481  11.756  20.223  0.00  0.00    +0.000 A 
ENDROOT
BRANCH   4   9
ATOM      9  N   UNL     1       1.880   8.306  19.503  0.00  0.00    +0.000 N 
ATOM     10  C   UNL     1       2.415   7.963  18.281  0.00  0.00    +0.000 C 
ATOM     11  O   UNL     1       2.241   8.587  17.236  0.00  0.00    +0.000 OA
ATOM     12  H   UNL     1       1.925   7.608  20.245  0.00  0.00    +0.000 HD
BRANCH  10  13
ATOM     13  C   UNL     1       3.244   6.728  18.225  0.00  0.00    +0.000 A 
ATOM     14  C   UNL     1       4.351   6.773  17.359  0.00  0.00    +0.000 A 
ATOM     15  C   UNL     1       5.238   5.705  17.292  0.00  0.00    +0.000 A 
ATOM     16 CL   UNL     1       6.602   5.802  16.249  0.00  0.00    +0.000 Cl
ATOM     17  C   UNL     1       5.040   4.574  18.073  0.00  0.00    +0.000 A 
ATOM     18  C   UNL     1       3.931   4.512  18.918  0.00  0.00    +0.000 A 
ATOM     19 CL   UNL     1       3.697   3.104  19.887  0.00  0.00    +0.000 Cl
ATOM     20  C   UNL     1       3.027   5.579  18.995  0.00  0.00    +0.000 A 
BRANCH  20  21
ATOM     21  O   UNL     1       1.939   5.494  19.831  0.00  0.00    +0.000 OA
ATOM     22  H   UNL     1       1.355   4.786  19.489  0.00  0.00    +0.000 HD
ENDBRANCH  20  21
ENDBRANCH  10  13
ENDBRANCH   4   9
BRANCH   8  23
ATOM     23  C   UNL     1      -1.466  12.921  20.384  0.00  0.00    +0.000 C 
BRANCH  23  24
ATOM     24  C   UNL     1      -2.855  12.569  19.822  0.00  0.00    +0.000 A 
ATOM     25  C   UNL     1      -2.991  11.846  18.614  0.00  0.00    +0.000 A 
ATOM     26  C   UNL     1      -4.245  11.445  18.149  0.00  0.00    +0.000 A 
ATOM     27  C   UNL     1      -5.382  11.758  18.883  0.00  0.00    +0.000 A 
ATOM     28 CL   UNL     1      -6.923  11.225  18.335  0.00  0.00    +0.000 Cl
ATOM     29  C   UNL     1      -5.275  12.484  20.067  0.00  0.00    +0.000 A 
ATOM     30  C   UNL     1      -4.019  12.889  20.536  0.00  0.00    +0.000 A 
ENDBRANCH  23  24
BRANCH  23  31
ATOM     31  C   UNL     1      -1.645  13.247  21.858  0.00  0.00    +0.000 C 
ATOM     32  N   UNL     1      -1.795  13.519  23.080  0.00  0.00    +0.000 NA
ENDBRANCH  23  31
ENDBRANCH   8  23
TORSDOF 6
ENDMDL
MODEL 6
REMARK VINA RESULT:      -8.0      2.831      9.309
REMARK  Name = 
REMARK  7 active torsions:
REMARK  status: ('A' for Active; 'I' for Inactive)
REMARK    1  A    between atoms: C_1  and  C_2
REMARK    2  A    between atoms: C_4  and  N_5
REMARK    3  A    between atoms: C_6  and  C_8
REMARK    4  A    between atoms: C_15  and  O_16
REMARK    5  A    between atoms: C_20  and  C_21
REMARK    6  A    between atoms: C_21  and  C_22
REMARK    7  A    between atoms: C_21  and  C_24
REMARK                            x       y       z     vdW  Elec       q    Type
REMARK                         _______ _______ _______ _____ _____    ______ ____
ROOT
ATOM      1  C   UNL     1      -0.192   9.686  23.513  0.00  0.00    +0.000 C 
ATOM      2  C   UNL     1       0.168   9.606  22.055  0.00  0.00    +0.000 A 
ATOM      3  C   UNL     1       0.983   8.542  21.635  0.00  0.00    +0.000 A 
ATOM      4  C   UNL     1       1.414   8.407  20.309  0.00  0.00    +0.000 A 
ATOM      5  C   UNL     1       0.955   9.315  19.362  0.00  0.00    +0.000 A 
ATOM      6 CL   UNL     1       1.426   9.220  17.701  0.00  0.00    +0.000 Cl
ATOM      7  C   UNL     1       0.145  10.381  19.758  0.00  0.00    +0.000 A 
ATOM      8  C   UNL     1      -0.242  10.561  21.111  0.00  0.00    +0.000 A 
ENDROOT
BRANCH   4   9
ATOM      9  N   UNL     1       2.297   7.383  19.915  0.00  0.00    +0.000 N 
ATOM     10  C   UNL     1       2.102   6.035  20.117  0.00  0.00    +0.000 C 
ATOM     11  O   UNL     1       1.166   5.545  20.746  0.00  0.00    +0.000 OA
ATOM     12  H   UNL     1       3.208   7.674  19.558  0.00  0.00    +0.000 HD
BRANCH  10  13
ATOM     13  C   UNL     1       3.120   5.107  19.551  0.00  0.00    +0.000 A 
ATOM     14  C   UNL     1       4.422   5.626  19.432  0.00  0.00    +0.000 A 
ATOM     15  C   UNL     1       5.465   4.820  18.994  0.00  0.00    +0.000 A 
ATOM     16 CL   UNL     1       7.053   5.472  18.890  0.00  0.00    +0.000 Cl
ATOM     17  C   UNL     1       5.237   3.491  18.658  0.00  0.00    +0.000 A 
ATOM     18  C   UNL     1       3.943   2.976  18.752  0.00  0.00    +0.000 A 
ATOM     19 CL   UNL     1       3.673   1.323  18.336  0.00  0.00    +0.000 Cl
ATOM     20  C   UNL     1       2.881   3.776  19.189  0.00  0.00    +0.000 A 
BRANCH  20  21
ATOM     21  O   UNL     1       1.615   3.247  19.269  0.00  0.00    +0.000 OA
ATOM     22  H   UNL     1       1.642   2.350  18.877  0.00  0.00    +0.000 HD
ENDBRANCH  20  21
ENDBRANCH  10  13
ENDBRANCH   4   9
BRANCH   8  23
ATOM     23  C   UNL     1      -1.013  11.820  21.532  0.00  0.00    +0.000 C 
BRANCH  23  24
ATOM     24  C   UNL     1      -0.076  13.030  21.693  0.00  0.00    +0.000 A 
ATOM     25  C   UNL     1       1.169  13.082  21.024  0.00  0.00    +0.000 A 
ATOM     26  C   UNL     1       1.980  14.215  21.092  0.00  0.00    +0.000 A 
ATOM     27  C   UNL     1       1.562  15.316  21.829  0.00  0.00    +0.000 A 
ATOM     28 CL   UNL     1       2.539  16.730  21.879  0.00  0.00    +0.000 Cl
ATOM     29  C   UNL     1       0.347  15.283  22.512  0.00  0.00    +0.000 A 
ATOM     30  C   UNL     1      -0.469  14.146  22.445  0.00  0.00    +0.000 A 
ENDBRANCH  23  24
BRANCH  23  31
ATOM     31  C   UNL     1      -2.036  12.181  20.467  0.00  0.00    +0.000 C 
ATOM     32  N   UNL     1      -2.885  12.480  19.585  0.00  0.00    +0.000 NA
ENDBRANCH  23  31
ENDBRANCH   8  23
TORSDOF 6
ENDMDL
MODEL 7
REMARK VINA RESULT:      -7.9      2.974     10.220
REMARK  Name = 
REMARK  7 active torsions:
REMARK  status: ('A' for Active; 'I' for Inactive)
REMARK    1  A    between atoms: C_1  and  C_2
REMARK    2  A    between atoms: C_4  and  N_5
REMARK    3  A    between atoms: C_6  and  C_8
REMARK    4  A    between atoms: C_15  and  O_16
REMARK    5  A    between atoms: C_20  and  C_21
REMARK    6  A    between atoms: C_21  and  C_22
REMARK    7  A    between atoms: C_21  and  C_24
REMARK                            x       y       z     vdW  Elec       q    Type
REMARK                         _______ _______ _______ _____ _____    ______ ____
ROOT
ATOM      1  C   UNL     1       0.676  14.219  20.148  0.00  0.00    +0.000 C 
ATOM      2  C   UNL     1       0.329  12.922  20.826  0.00  0.00    +0.000 A 
ATOM      3  C   UNL     1       1.025  11.767  20.434  0.00  0.00    +0.000 A 
ATOM      4  C   UNL     1       0.741  10.504  20.969  0.00  0.00    +0.000 A 
ATOM      5  C   UNL     1      -0.208  10.405  21.980  0.00  0.00    +0.000 A 
ATOM      6 CL   UNL     1      -0.615   8.890  22.707  0.00  0.00    +0.000 Cl
ATOM      7  C   UNL     1      -0.912  11.541  22.385  0.00  0.00    +0.000 A 
ATOM      8  C   UNL     1      -0.677  12.812  21.800  0.00  0.00    +0.000 A 
ENDROOT
BRANCH   4   9
ATOM      9  N   UNL     1       1.388   9.339  20.511  0.00  0.00    +0.000 N 
ATOM     10  C   UNL     1       1.517   8.960  19.194  0.00  0.00    +0.000 C 
ATOM     11  O   UNL     1       1.010   9.546  18.239  0.00  0.00    +0.000 OA
ATOM     12  H   UNL     1       1.678   8.666  21.221  0.00  0.00    +0.000 HD
BRANCH  10  13
ATOM     13  C   UNL     1       2.308   7.730  18.914  0.00  0.00    +0.000 A 
ATOM     14  C   UNL     1       3.090   7.759  17.745  0.00  0.00    +0.000 A 
ATOM     15  C   UNL     1       3.931   6.697  17.434  0.00  0.00    +0.000 A 
ATOM     16 CL   UNL     1       4.899   6.773  16.015  0.00  0.00    +0.000 Cl
ATOM     17  C   UNL     1       4.006   5.588  18.268  0.00  0.00    +0.000 A 
ATOM     18  C   UNL     1       3.217   5.544  19.418  0.00  0.00    +0.000 A 
ATOM     19 CL   UNL     1       3.323   4.164  20.448  0.00  0.00    +0.000 Cl
ATOM     20  C   UNL     1       2.363   6.604  19.744  0.00  0.00    +0.000 A 
BRANCH  20  21
ATOM     21  O   UNL     1       1.592   6.535  20.880  0.00  0.00    +0.000 OA
ATOM     22  H   UNL     1       1.785   5.683  21.320  0.00  0.00    +0.000 HD
ENDBRANCH  20  21
ENDBRANCH  10  13
ENDBRANCH   4   9
BRANCH   8  23
ATOM     23  C   UNL     1      -1.566  14.007  22.168  0.00  0.00    +0.000 C 
BRANCH  23  24
ATOM     24  C   UNL     1      -3.058  13.630  22.144  0.00  0.00    +0.000 A 
ATOM     25  C   UNL     1      -3.687  13.218  20.946  0.00  0.00    +0.000 A 
ATOM     26  C   UNL     1      -5.014  12.787  20.937  0.00  0.00    +0.000 A 
ATOM     27  C   UNL     1      -5.736  12.760  22.124  0.00  0.00    +0.000 A 
ATOM     28 CL   UNL     1      -7.357  12.187  22.122  0.00  0.00    +0.000 Cl
ATOM     29  C   UNL     1      -5.144  13.178  23.314  0.00  0.00    +0.000 A 
ATOM     30  C   UNL     1      -3.812  13.611  23.326  0.00  0.00    +0.000 A 
ENDBRANCH  23  24
BRANCH  23  31
ATOM     31  C   UNL     1      -1.243  14.479  23.577  0.00  0.00    +0.000 C 
ATOM     32  N   UNL     1      -0.975  14.870  24.745  0.00  0.00    +0.000 NA
ENDBRANCH  23  31
ENDBRANCH   8  23
TORSDOF 6
ENDMDL
MODEL 8
REMARK VINA RESULT:      -7.9      3.188      9.964
REMARK  Name = 
REMARK  7 active torsions:
REMARK  status: ('A' for Active; 'I' for Inactive)
REMARK    1  A    between atoms: C_1  and  C_2
REMARK    2  A    between atoms: C_4  and  N_5
REMARK    3  A    between atoms: C_6  and  C_8
REMARK    4  A    between atoms: C_15  and  O_16
REMARK    5  A    between atoms: C_20  and  C_21
REMARK    6  A    between atoms: C_21  and  C_22
REMARK    7  A    between atoms: C_21  and  C_24
REMARK                            x       y       z     vdW  Elec       q    Type
REMARK                         _______ _______ _______ _____ _____    ______ ____
ROOT
ATOM      1  C   UNL     1       1.081  12.859  18.468  0.00  0.00    +0.000 C 
ATOM      2  C   UNL     1       0.790  11.654  19.320  0.00  0.00    +0.000 A 
ATOM      3  C   UNL     1       1.442  10.450  19.004  0.00  0.00    +0.000 A 
ATOM      4  C   UNL     1       1.201   9.262  19.704  0.00  0.00    +0.000 A 
ATOM      5  C   UNL     1       0.346   9.293  20.799  0.00  0.00    +0.000 A 
ATOM      6 CL   UNL     1      -0.002   7.878  21.729  0.00  0.00    +0.000 Cl
ATOM      7  C   UNL     1      -0.314  10.479  21.131  0.00  0.00    +0.000 A 
ATOM      8  C   UNL     1      -0.125  11.672  20.385  0.00  0.00    +0.000 A 
ENDROOT
BRANCH   4   9
ATOM      9  N   UNL     1       1.798   8.042  19.328  0.00  0.00    +0.000 N 
ATOM     10  C   UNL     1       2.398   7.784  18.116  0.00  0.00    +0.000 C 
ATOM     11  O   UNL     1       2.421   8.560  17.162  0.00  0.00    +0.000 OA
ATOM     12  H   UNL     1       1.668   7.253  19.962  0.00  0.00    +0.000 HD
BRANCH  10  13
ATOM     13  C   UNL     1       3.043   6.453  17.946  0.00  0.00    +0.000 A 
ATOM     14  C   UNL     1       2.215   5.339  18.169  0.00  0.00    +0.000 A 
ATOM     15  C   UNL     1       2.693   4.052  17.957  0.00  0.00    +0.000 A 
ATOM     16 CL   UNL     1       1.647   2.709  18.206  0.00  0.00    +0.000 Cl
ATOM     17  C   UNL     1       3.998   3.845  17.529  0.00  0.00    +0.000 A 
ATOM     18  C   UNL     1       4.833   4.945  17.327  0.00  0.00    +0.000 A 
ATOM     19 CL   UNL     1       6.451   4.676  16.791  0.00  0.00    +0.000 Cl
ATOM     20  C   UNL     1       4.367   6.248  17.539  0.00  0.00    +0.000 A 
BRANCH  20  21
ATOM     21  O   UNL     1       5.209   7.316  17.337  0.00  0.00    +0.000 OA
ATOM     22  H   UNL     1       4.837   8.083  17.818  0.00  0.00    +0.000 HD
ENDBRANCH  20  21
ENDBRANCH  10  13
ENDBRANCH   4   9
BRANCH   8  23
ATOM     23  C   UNL     1      -0.972  12.914  20.690  0.00  0.00    +0.000 C 
BRANCH  23  24
ATOM     24  C   UNL     1      -2.465  12.664  20.409  0.00  0.00    +0.000 A 
ATOM     25  C   UNL     1      -3.458  13.076  21.328  0.00  0.00    +0.000 A 
ATOM     26  C   UNL     1      -4.816  12.935  21.036  0.00  0.00    +0.000 A 
ATOM     27  C   UNL     1      -5.204  12.382  19.822  0.00  0.00    +0.000 A 
ATOM     28 CL   UNL     1      -6.876  12.249  19.442  0.00  0.00    +0.000 Cl
ATOM     29  C   UNL     1      -4.244  11.953  18.907  0.00  0.00    +0.000 A 
ATOM     30  C   UNL     1      -2.881  12.092  19.198  0.00  0.00    +0.000 A 
ENDBRANCH  23  24
BRANCH  23  31
ATOM     31  C   UNL     1      -0.845  13.280  22.160  0.00  0.00    +0.000 C 
ATOM     32  N   UNL     1      -0.740  13.584  23.379  0.00  0.00    +0.000 NA
ENDBRANCH  23  31
ENDBRANCH   8  23
TORSDOF 6
ENDMDL
MODEL 9
REMARK VINA RESULT:      -7.8      3.161     10.178
REMARK  Name = 
REMARK  7 active torsions:
REMARK  status: ('A' for Active; 'I' for Inactive)
REMARK    1  A    between atoms: C_1  and  C_2
REMARK    2  A    between atoms: C_4  and  N_5
REMARK    3  A    between atoms: C_6  and  C_8
REMARK    4  A    between atoms: C_15  and  O_16
REMARK    5  A    between atoms: C_20  and  C_21
REMARK    6  A    between atoms: C_21  and  C_22
REMARK    7  A    between atoms: C_21  and  C_24
REMARK                            x       y       z     vdW  Elec       q    Type
REMARK                         _______ _______ _______ _____ _____    ______ ____
ROOT
ATOM      1  C   UNL     1      -0.355  12.815  18.325  0.00  0.00    +0.000 C 
ATOM      2  C   UNL     1      -0.180  11.974  19.559  0.00  0.00    +0.000 A 
ATOM      3  C   UNL     1       0.501  10.752  19.433  0.00  0.00    +0.000 A 
ATOM      4  C   UNL     1       0.672   9.875  20.512  0.00  0.00    +0.000 A 
ATOM      5  C   UNL     1       0.220  10.264  21.767  0.00  0.00    +0.000 A 
ATOM      6 CL   UNL     1       0.397   9.252  23.157  0.00  0.00    +0.000 Cl
ATOM      7  C   UNL     1      -0.461  11.475  21.915  0.00  0.00    +0.000 A 
ATOM      8  C   UNL     1      -0.695  12.338  20.814  0.00  0.00    +0.000 A 
ENDROOT
BRANCH   4   9
ATOM      9  N   UNL     1       1.284   8.616  20.357  0.00  0.00    +0.000 N 
ATOM     10  C   UNL     1       1.855   8.139  19.198  0.00  0.00    +0.000 C 
ATOM     11  O   UNL     1       1.834   8.717  18.113  0.00  0.00    +0.000 OA
ATOM     12  H   UNL     1       1.190   7.961  21.134  0.00  0.00    +0.000 HD
BRANCH  10  13
ATOM     13  C   UNL     1       2.524   6.811  19.265  0.00  0.00    +0.000 A 
ATOM     14  C   UNL     1       2.091   5.959  20.298  0.00  0.00    +0.000 A 
ATOM     15  C   UNL     1       2.589   4.666  20.400  0.00  0.00    +0.000 A 
ATOM     16 CL   UNL     1       2.017   3.636  21.653  0.00  0.00    +0.000 Cl
ATOM     17  C   UNL     1       3.528   4.197  19.490  0.00  0.00    +0.000 A 
ATOM     18  C   UNL     1       3.979   5.044  18.477  0.00  0.00    +0.000 A 
ATOM     19 CL   UNL     1       5.142   4.449  17.349  0.00  0.00    +0.000 Cl
ATOM     20  C   UNL     1       3.488   6.350  18.361  0.00  0.00    +0.000 A 
BRANCH  20  21
ATOM     21  O   UNL     1       3.951   7.167  17.357  0.00  0.00    +0.000 OA
ATOM     22  H   UNL     1       4.422   6.605  16.709  0.00  0.00    +0.000 HD
ENDBRANCH  20  21
ENDBRANCH  10  13
ENDBRANCH   4   9
BRANCH   8  23
ATOM     23  C   UNL     1      -1.568  13.588  20.986  0.00  0.00    +0.000 C 
BRANCH  23  24
ATOM     24  C   UNL     1      -3.065  13.232  21.034  0.00  0.00    +0.000 A 
ATOM     25  C   UNL     1      -3.727  12.716  19.896  0.00  0.00    +0.000 A 
ATOM     26  C   UNL     1      -5.060  12.305  19.960  0.00  0.00    +0.000 A 
ATOM     27  C   UNL     1      -5.751  12.400  21.161  0.00  0.00    +0.000 A 
ATOM     28 CL   UNL     1      -7.379  11.852  21.253  0.00  0.00    +0.000 Cl
ATOM     29  C   UNL     1      -5.125  12.921  22.291  0.00  0.00    +0.000 A 
ATOM     30  C   UNL     1      -3.789  13.335  22.230  0.00  0.00    +0.000 A 
ENDBRANCH  23  24
BRANCH  23  31
ATOM     31  C   UNL     1      -1.228  14.281  22.296  0.00  0.00    +0.000 C 
ATOM     32  N   UNL     1      -0.946  14.854  23.383  0.00  0.00    +0.000 NA
ENDBRANCH  23  31
ENDBRANCH   8  23
TORSDOF 6
ENDMDL
