MODEL 1
REMARK VINA RESULT:      -6.5      0.000      0.000
REMARK  Name = 
REMARK  11 active torsions:
REMARK  status: ('A' for Active; 'I' for Inactive)
REMARK    1  A    between atoms: C_2  and  C_3
REMARK    2  A    between atoms: C_3  and  O_4
REMARK    3  A    between atoms: O_4  and  C_5
REMARK    4  A    between atoms: C_8  and  C_9
REMARK    5  A    between atoms: C_9  and  C_10
REMARK    6  A    between atoms: C_10  and  C_11
REMARK    7  A    between atoms: C_11  and  C_12
REMARK    8  A    between atoms: C_15  and  O_16
REMARK    9  A    between atoms: O_16  and  C_17
REMARK   10  A    between atoms: C_19  and  O_20
REMARK   11  A    between atoms: O_20  and  C_21
REMARK                            x       y       z     vdW  Elec       q    Type
REMARK                         _______ _______ _______ _____ _____    ______ ____
ROOT
ATOM      1  C   UNL     1       4.254   3.003  17.044  0.00  0.00    +0.000 C 
ENDROOT
BRANCH   1   2
ATOM      2  C   UNL     1       4.793   4.079  16.089  0.00  0.00    +0.000 C 
BRANCH   2   6
ATOM      3  C   UNL     1       7.566   6.763  18.025  0.00  0.00    +0.000 A 
ATOM      4  C   UNL     1       7.725   5.382  18.127  0.00  0.00    +0.000 A 
ATOM      5  C   UNL     1       6.861   4.525  17.452  0.00  0.00    +0.000 A 
ATOM      6  C   UNL     1       5.769   5.029  16.738  0.00  0.00    +0.000 A 
ATOM      7  C   UNL     1       5.592   6.417  16.666  0.00  0.00    +0.000 A 
ATOM      8  C   UNL     1       6.488   7.280  17.307  0.00  0.00    +0.000 A 
BRANCH   3   9
ATOM      9  O   UNL     1       8.419   7.677  18.587  0.00  0.00    +0.000 OA
BRANCH   9  10
ATOM     10  C   UNL     1       8.316   8.987  18.022  0.00  0.00    +0.000 C 
BRANCH  10  12
ATOM     11  C   UNL     1       9.140  11.261  18.645  0.00  0.00    +0.000 C 
ATOM     12  C   UNL     1       9.033   9.949  18.910  0.00  0.00    +0.000 C 
ENDBRANCH  10  12
ENDBRANCH   9  10
ENDBRANCH   3   9
ENDBRANCH   2   6
ENDBRANCH   1   2
BRANCH   1  13
ATOM     13  C   UNL     1       2.763   3.180  17.360  0.00  0.00    +0.000 C 
BRANCH  13  14
ATOM     14  C   UNL     1       2.524   4.210  18.440  0.00  0.00    +0.000 A 
ATOM     15  C   UNL     1       2.276   5.522  17.969  0.00  0.00    +0.000 A 
ATOM     16  C   UNL     1       2.036   6.584  18.834  0.00  0.00    +0.000 A 
ATOM     17  C   UNL     1       2.030   6.375  20.208  0.00  0.00    +0.000 A 
ATOM     18  C   UNL     1       2.262   5.089  20.688  0.00  0.00    +0.000 A 
ATOM     19  C   UNL     1       2.507   3.997  19.829  0.00  0.00    +0.000 A 
BRANCH  17  20
ATOM     20  O   UNL     1       1.791   7.489  20.963  0.00  0.00    +0.000 OA
ATOM     21  C   UNL     1       1.388   8.660  20.260  0.00  0.00    +0.000 C 
ENDBRANCH  17  20
BRANCH  19  22
ATOM     22  O   UNL     1       2.695   2.866  20.573  0.00  0.00    +0.000 OA
ATOM     23  C   UNL     1       3.927   2.185  20.606  0.00  0.00    +0.000 C 
ENDBRANCH  19  22
ENDBRANCH  13  14
ENDBRANCH   1  13
TORSDOF 9
ENDMDL
MODEL 2
REMARK VINA RESULT:      -6.4      0.982      1.431
REMARK  Name = 
REMARK  11 active torsions:
REMARK  status: ('A' for Active; 'I' for Inactive)
REMARK    1  A    between atoms: C_2  and  C_3
REMARK    2  A    between atoms: C_3  and  O_4
REMARK    3  A    between atoms: O_4  and  C_5
REMARK    4  A    between atoms: C_8  and  C_9
REMARK    5  A    between atoms: C_9  and  C_10
REMARK    6  A    between atoms: C_10  and  C_11
REMARK    7  A    between atoms: C_11  and  C_12
REMARK    8  A    between atoms: C_15  and  O_16
REMARK    9  A    between atoms: O_16  and  C_17
REMARK   10  A    between atoms: C_19  and  O_20
REMARK   11  A    between atoms: O_20  and  C_21
REMARK                            x       y       z     vdW  Elec       q    Type
REMARK                         _______ _______ _______ _____ _____    ______ ____
ROOT
ATOM      1  C   UNL     1       4.287   3.469  17.609  0.00  0.00    +0.000 C 
ENDROOT
BRANCH   1   2
ATOM      2  C   UNL     1       5.371   3.954  16.633  0.00  0.00    +0.000 C 
BRANCH   2   6
ATOM      3  C   UNL     1       7.861   7.142  18.140  0.00  0.00    +0.000 A 
ATOM      4  C   UNL     1       6.913   7.390  17.149  0.00  0.00    +0.000 A 
ATOM      5  C   UNL     1       6.075   6.369  16.711  0.00  0.00    +0.000 A 
ATOM      6  C   UNL     1       6.230   5.064  17.188  0.00  0.00    +0.000 A 
ATOM      7  C   UNL     1       7.207   4.811  18.159  0.00  0.00    +0.000 A 
ATOM      8  C   UNL     1       8.019   5.847  18.632  0.00  0.00    +0.000 A 
BRANCH   3   9
ATOM      9  O   UNL     1       8.667   8.106  18.688  0.00  0.00    +0.000 OA
BRANCH   9  10
ATOM     10  C   UNL     1       8.408   9.424  18.196  0.00  0.00    +0.000 C 
BRANCH  10  12
ATOM     11  C   UNL     1       9.865  11.452  18.241  0.00  0.00    +0.000 C 
ATOM     12  C   UNL     1       9.350  10.376  18.856  0.00  0.00    +0.000 C 
ENDBRANCH  10  12
ENDBRANCH   9  10
ENDBRANCH   3   9
ENDBRANCH   2   6
ENDBRANCH   1   2
BRANCH   1  13
ATOM     13  C   UNL     1       2.903   4.058  17.303  0.00  0.00    +0.000 C 
BRANCH  13  14
ATOM     14  C   UNL     1       2.501   5.124  18.298  0.00  0.00    +0.000 A 
ATOM     15  C   UNL     1       2.581   6.452  17.814  0.00  0.00    +0.000 A 
ATOM     16  C   UNL     1       2.246   7.547  18.604  0.00  0.00    +0.000 A 
ATOM     17  C   UNL     1       1.812   7.355  19.910  0.00  0.00    +0.000 A 
ATOM     18  C   UNL     1       1.717   6.056  20.398  0.00  0.00    +0.000 A 
ATOM     19  C   UNL     1       2.052   4.930  19.615  0.00  0.00    +0.000 A 
BRANCH  17  20
ATOM     20  O   UNL     1       1.515   8.501  20.596  0.00  0.00    +0.000 OA
ATOM     21  C   UNL     1       1.645   8.446  22.012  0.00  0.00    +0.000 C 
ENDBRANCH  17  20
BRANCH  19  22
ATOM     22  O   UNL     1       1.860   3.793  20.347  0.00  0.00    +0.000 OA
ATOM     23  C   UNL     1       2.163   3.724  21.721  0.00  0.00    +0.000 C 
ENDBRANCH  19  22
ENDBRANCH  13  14
ENDBRANCH   1  13
TORSDOF 9
ENDMDL
MODEL 3
REMARK VINA RESULT:      -6.3      3.241      5.817
REMARK  Name = 
REMARK  11 active torsions:
REMARK  status: ('A' for Active; 'I' for Inactive)
REMARK    1  A    between atoms: C_2  and  C_3
REMARK    2  A    between atoms: C_3  and  O_4
REMARK    3  A    between atoms: O_4  and  C_5
REMARK    4  A    between atoms: C_8  and  C_9
REMARK    5  A    between atoms: C_9  and  C_10
REMARK    6  A    between atoms: C_10  and  C_11
REMARK    7  A    between atoms: C_11  and  C_12
REMARK    8  A    between atoms: C_15  and  O_16
REMARK    9  A    between atoms: O_16  and  C_17
REMARK   10  A    between atoms: C_19  and  O_20
REMARK   11  A    between atoms: O_20  and  C_21
REMARK                            x       y       z     vdW  Elec       q    Type
REMARK                         _______ _______ _______ _____ _____    ______ ____
ROOT
ATOM      1  C   UNL     1       2.529   6.926  19.458  0.00  0.00    +0.000 C 
ENDROOT
BRANCH   1   2
ATOM      2  C   UNL     1       2.266   5.699  18.571  0.00  0.00    +0.000 C 
BRANCH   2   6
ATOM      3  C   UNL     1       5.694   4.476  16.250  0.00  0.00    +0.000 A 
ATOM      4  C   UNL     1       4.740   3.543  16.655  0.00  0.00    +0.000 A 
ATOM      5  C   UNL     1       3.609   3.955  17.352  0.00  0.00    +0.000 A 
ATOM      6  C   UNL     1       3.455   5.290  17.737  0.00  0.00    +0.000 A 
ATOM      7  C   UNL     1       4.433   6.220  17.359  0.00  0.00    +0.000 A 
ATOM      8  C   UNL     1       5.548   5.812  16.619  0.00  0.00    +0.000 A 
BRANCH   3   9
ATOM      9  O   UNL     1       6.793   4.169  15.489  0.00  0.00    +0.000 OA
BRANCH   9  10
ATOM     10  C   UNL     1       6.767   4.743  14.180  0.00  0.00    +0.000 C 
BRANCH  10  12
ATOM     11  C   UNL     1       6.223   3.262  12.244  0.00  0.00    +0.000 C 
ATOM     12  C   UNL     1       5.832   3.951  13.328  0.00  0.00    +0.000 C 
ENDBRANCH  10  12
ENDBRANCH   9  10
ENDBRANCH   3   9
ENDBRANCH   2   6
ENDBRANCH   1   2
BRANCH   1  13
ATOM     13  C   UNL     1       1.908   8.212  18.896  0.00  0.00    +0.000 C 
BRANCH  13  14
ATOM     14  C   UNL     1       1.214   9.029  19.963  0.00  0.00    +0.000 A 
ATOM     15  C   UNL     1       1.287   8.488  21.269  0.00  0.00    +0.000 A 
ATOM     16  C   UNL     1       0.700   9.117  22.362  0.00  0.00    +0.000 A 
ATOM     17  C   UNL     1       0.021  10.318  22.192  0.00  0.00    +0.000 A 
ATOM     18  C   UNL     1      -0.051  10.869  20.916  0.00  0.00    +0.000 A 
ATOM     19  C   UNL     1       0.536  10.248  19.793  0.00  0.00    +0.000 A 
BRANCH  17  20
ATOM     20  O   UNL     1      -0.520  10.844  23.332  0.00  0.00    +0.000 OA
ATOM     21  C   UNL     1      -1.799  11.456  23.205  0.00  0.00    +0.000 C 
ENDBRANCH  17  20
BRANCH  19  22
ATOM     22  O   UNL     1       0.312  11.011  18.682  0.00  0.00    +0.000 OA
ATOM     23  C   UNL     1      -0.986  11.273  18.201  0.00  0.00    +0.000 C 
ENDBRANCH  19  22
ENDBRANCH  13  14
ENDBRANCH   1  13
TORSDOF 9
ENDMDL
MODEL 4
REMARK VINA RESULT:      -6.3      1.247      1.783
REMARK  Name = 
REMARK  11 active torsions:
REMARK  status: ('A' for Active; 'I' for Inactive)
REMARK    1  A    between atoms: C_2  and  C_3
REMARK    2  A    between atoms: C_3  and  O_4
REMARK    3  A    between atoms: O_4  and  C_5
REMARK    4  A    between atoms: C_8  and  C_9
REMARK    5  A    between atoms: C_9  and  C_10
REMARK    6  A    between atoms: C_10  and  C_11
REMARK    7  A    between atoms: C_11  and  C_12
REMARK    8  A    between atoms: C_15  and  O_16
REMARK    9  A    between atoms: O_16  and  C_17
REMARK   10  A    between atoms: C_19  and  O_20
REMARK   11  A    between atoms: O_20  and  C_21
REMARK                            x       y       z     vdW  Elec       q    Type
REMARK                         _______ _______ _______ _____ _____    ______ ____
ROOT
ATOM      1  C   UNL     1       3.557   2.345  18.514  0.00  0.00    +0.000 C 
ENDROOT
BRANCH   1   2
ATOM      2  C   UNL     1       4.291   2.436  17.166  0.00  0.00    +0.000 C 
BRANCH   2   6
ATOM      3  C   UNL     1       6.673   5.999  16.655  0.00  0.00    +0.000 A 
ATOM      4  C   UNL     1       6.133   5.342  15.551  0.00  0.00    +0.000 A 
ATOM      5  C   UNL     1       5.318   4.228  15.730  0.00  0.00    +0.000 A 
ATOM      6  C   UNL     1       5.104   3.697  17.005  0.00  0.00    +0.000 A 
ATOM      7  C   UNL     1       5.677   4.340  18.110  0.00  0.00    +0.000 A 
ATOM      8  C   UNL     1       6.459   5.486  17.934  0.00  0.00    +0.000 A 
BRANCH   3   9
ATOM      9  O   UNL     1       7.415   7.150  16.575  0.00  0.00    +0.000 OA
BRANCH   9  10
ATOM     10  C   UNL     1       7.883   7.624  17.841  0.00  0.00    +0.000 C 
BRANCH  10  12
ATOM     11  C   UNL     1       8.838   9.871  18.368  0.00  0.00    +0.000 C 
ATOM     12  C   UNL     1       7.868   9.117  17.827  0.00  0.00    +0.000 C 
ENDBRANCH  10  12
ENDBRANCH   9  10
ENDBRANCH   3   9
ENDBRANCH   2   6
ENDBRANCH   1   2
BRANCH   1  13
ATOM     13  C   UNL     1       2.146   2.945  18.465  0.00  0.00    +0.000 C 
BRANCH  13  14
ATOM     14  C   UNL     1       2.109   4.368  18.975  0.00  0.00    +0.000 A 
ATOM     15  C   UNL     1       2.108   5.362  17.967  0.00  0.00    +0.000 A 
ATOM     16  C   UNL     1       2.077   6.720  18.269  0.00  0.00    +0.000 A 
ATOM     17  C   UNL     1       2.039   7.136  19.595  0.00  0.00    +0.000 A 
ATOM     18  C   UNL     1       2.029   6.172  20.598  0.00  0.00    +0.000 A 
ATOM     19  C   UNL     1       2.061   4.790  20.314  0.00  0.00    +0.000 A 
BRANCH  17  20
ATOM     20  O   UNL     1       2.016   8.492  19.775  0.00  0.00    +0.000 OA
ATOM     21  C   UNL     1       1.683   9.280  18.638  0.00  0.00    +0.000 C 
ENDBRANCH  17  20
BRANCH  19  22
ATOM     22  O   UNL     1       2.037   4.085  21.485  0.00  0.00    +0.000 OA
ATOM     23  C   UNL     1       1.231   2.943  21.657  0.00  0.00    +0.000 C 
ENDBRANCH  19  22
ENDBRANCH  13  14
ENDBRANCH   1  13
TORSDOF 9
ENDMDL
MODEL 5
REMARK VINA RESULT:      -6.3      3.418      6.495
REMARK  Name = 
REMARK  11 active torsions:
REMARK  status: ('A' for Active; 'I' for Inactive)
REMARK    1  A    between atoms: C_2  and  C_3
REMARK    2  A    between atoms: C_3  and  O_4
REMARK    3  A    between atoms: O_4  and  C_5
REMARK    4  A    between atoms: C_8  and  C_9
REMARK    5  A    between atoms: C_9  and  C_10
REMARK    6  A    between atoms: C_10  and  C_11
REMARK    7  A    between atoms: C_11  and  C_12
REMARK    8  A    between atoms: C_15  and  O_16
REMARK    9  A    between atoms: O_16  and  C_17
REMARK   10  A    between atoms: C_19  and  O_20
REMARK   11  A    between atoms: O_20  and  C_21
REMARK                            x       y       z     vdW  Elec       q    Type
REMARK                         _______ _______ _______ _____ _____    ______ ____
ROOT
ATOM      1  C   UNL     1       2.498   8.651  17.854  0.00  0.00    +0.000 C 
ENDROOT
BRANCH   1   2
ATOM      2  C   UNL     1       2.540   7.239  18.458  0.00  0.00    +0.000 C 
BRANCH   2   6
ATOM      3  C   UNL     1       5.137   4.572  16.272  0.00  0.00    +0.000 A 
ATOM      4  C   UNL     1       5.369   5.947  16.275  0.00  0.00    +0.000 A 
ATOM      5  C   UNL     1       4.561   6.792  17.029  0.00  0.00    +0.000 A 
ATOM      6  C   UNL     1       3.454   6.293  17.721  0.00  0.00    +0.000 A 
ATOM      7  C   UNL     1       3.203   4.914  17.688  0.00  0.00    +0.000 A 
ATOM      8  C   UNL     1       4.041   4.059  16.966  0.00  0.00    +0.000 A 
BRANCH   3   9
ATOM      9  O   UNL     1       5.932   3.661  15.627  0.00  0.00    +0.000 OA
BRANCH   9  10
ATOM     10  C   UNL     1       6.513   4.156  14.417  0.00  0.00    +0.000 C 
BRANCH  10  12
ATOM     11  C   UNL     1       6.040   3.142  12.184  0.00  0.00    +0.000 C 
ATOM     12  C   UNL     1       5.619   3.800  13.275  0.00  0.00    +0.000 C 
ENDBRANCH  10  12
ENDBRANCH   9  10
ENDBRANCH   3   9
ENDBRANCH   2   6
ENDBRANCH   1   2
BRANCH   1  13
ATOM     13  C   UNL     1       1.087   9.254  17.845  0.00  0.00    +0.000 C 
BRANCH  13  14
ATOM     14  C   UNL     1       0.892  10.274  18.945  0.00  0.00    +0.000 A 
ATOM     15  C   UNL     1       0.043   9.860  19.998  0.00  0.00    +0.000 A 
ATOM     16  C   UNL     1      -0.239  10.681  21.086  0.00  0.00    +0.000 A 
ATOM     17  C   UNL     1       0.324  11.950  21.163  0.00  0.00    +0.000 A 
ATOM     18  C   UNL     1       1.169  12.369  20.141  0.00  0.00    +0.000 A 
ATOM     19  C   UNL     1       1.469  11.553  19.029  0.00  0.00    +0.000 A 
BRANCH  17  20
ATOM     20  O   UNL     1      -0.026  12.672  22.271  0.00  0.00    +0.000 OA
ATOM     21  C   UNL     1      -0.353  14.041  22.060  0.00  0.00    +0.000 C 
ENDBRANCH  17  20
BRANCH  19  22
ATOM     22  O   UNL     1       2.322  12.217  18.194  0.00  0.00    +0.000 OA
ATOM     23  C   UNL     1       2.774  13.523  18.466  0.00  0.00    +0.000 C 
ENDBRANCH  19  22
ENDBRANCH  13  14
ENDBRANCH   1  13
TORSDOF 9
ENDMDL
MODEL 6
REMARK VINA RESULT:      -6.3      2.527      6.209
REMARK  Name = 
REMARK  11 active torsions:
REMARK  status: ('A' for Active; 'I' for Inactive)
REMARK    1  A    between atoms: C_2  and  C_3
REMARK    2  A    between atoms: C_3  and  O_4
REMARK    3  A    between atoms: O_4  and  C_5
REMARK    4  A    between atoms: C_8  and  C_9
REMARK    5  A    between atoms: C_9  and  C_10
REMARK    6  A    between atoms: C_10  and  C_11
REMARK    7  A    between atoms: C_11  and  C_12
REMARK    8  A    between atoms: C_15  and  O_16
REMARK    9  A    between atoms: O_16  and  C_17
REMARK   10  A    between atoms: C_19  and  O_20
REMARK   11  A    between atoms: O_20  and  C_21
REMARK                            x       y       z     vdW  Elec       q    Type
REMARK                         _______ _______ _______ _____ _____    ______ ____
ROOT
ATOM      1  C   UNL     1       2.796   4.448  18.608  0.00  0.00    +0.000 C 
ENDROOT
BRANCH   1   2
ATOM      2  C   UNL     1       2.876   5.468  19.755  0.00  0.00    +0.000 C 
BRANCH   2   6
ATOM      3  C   UNL     1       1.593   9.437  18.645  0.00  0.00    +0.000 A 
ATOM      4  C   UNL     1       2.308   8.645  17.748  0.00  0.00    +0.000 A 
ATOM      5  C   UNL     1       2.667   7.346  18.093  0.00  0.00    +0.000 A 
ATOM      6  C   UNL     1       2.399   6.847  19.371  0.00  0.00    +0.000 A 
ATOM      7  C   UNL     1       1.710   7.658  20.283  0.00  0.00    +0.000 A 
ATOM      8  C   UNL     1       1.309   8.949  19.920  0.00  0.00    +0.000 A 
BRANCH   3   9
ATOM      9  O   UNL     1       1.127  10.694  18.356  0.00  0.00    +0.000 OA
BRANCH   9  10
ATOM     10  C   UNL     1       0.139  11.170  19.274  0.00  0.00    +0.000 C 
BRANCH  10  12
ATOM     11  C   UNL     1       1.777  13.010  19.684  0.00  0.00    +0.000 C 
ATOM     12  C   UNL     1       0.518  12.544  19.717  0.00  0.00    +0.000 C 
ENDBRANCH  10  12
ENDBRANCH   9  10
ENDBRANCH   3   9
ENDBRANCH   2   6
ENDBRANCH   1   2
BRANCH   1  13
ATOM     13  C   UNL     1       4.040   3.554  18.518  0.00  0.00    +0.000 C 
BRANCH  13  14
ATOM     14  C   UNL     1       5.094   4.129  17.599  0.00  0.00    +0.000 A 
ATOM     15  C   UNL     1       4.940   3.796  16.232  0.00  0.00    +0.000 A 
ATOM     16  C   UNL     1       5.826   4.245  15.257  0.00  0.00    +0.000 A 
ATOM     17  C   UNL     1       6.900   5.052  15.613  0.00  0.00    +0.000 A 
ATOM     18  C   UNL     1       7.061   5.398  16.951  0.00  0.00    +0.000 A 
ATOM     19  C   UNL     1       6.175   4.954  17.956  0.00  0.00    +0.000 A 
BRANCH  17  20
ATOM     20  O   UNL     1       7.708   5.430  14.577  0.00  0.00    +0.000 OA
ATOM     21  C   UNL     1       7.391   4.897  13.296  0.00  0.00    +0.000 C 
ENDBRANCH  17  20
BRANCH  19  22
ATOM     22  O   UNL     1       6.574   5.448  19.166  0.00  0.00    +0.000 OA
ATOM     23  C   UNL     1       7.919   5.760  19.443  0.00  0.00    +0.000 C 
ENDBRANCH  19  22
ENDBRANCH  13  14
ENDBRANCH   1  13
TORSDOF 9
ENDMDL
MODEL 7
REMARK VINA RESULT:      -6.3      3.168      7.469
REMARK  Name = 
REMARK  11 active torsions:
REMARK  status: ('A' for Active; 'I' for Inactive)
REMARK    1  A    between atoms: C_2  and  C_3
REMARK    2  A    between atoms: C_3  and  O_4
REMARK    3  A    between atoms: O_4  and  C_5
REMARK    4  A    between atoms: C_8  and  C_9
REMARK    5  A    between atoms: C_9  and  C_10
REMARK    6  A    between atoms: C_10  and  C_11
REMARK    7  A    between atoms: C_11  and  C_12
REMARK    8  A    between atoms: C_15  and  O_16
REMARK    9  A    between atoms: O_16  and  C_17
REMARK   10  A    between atoms: C_19  and  O_20
REMARK   11  A    between atoms: O_20  and  C_21
REMARK                            x       y       z     vdW  Elec       q    Type
REMARK                         _______ _______ _______ _____ _____    ______ ____
ROOT
ATOM      1  C   UNL     1       2.856   8.241  17.968  0.00  0.00    +0.000 C 
ENDROOT
BRANCH   1   2
ATOM      2  C   UNL     1       1.542   9.020  17.804  0.00  0.00    +0.000 C 
BRANCH   2   6
ATOM      3  C   UNL     1       0.308  11.030  21.420  0.00  0.00    +0.000 A 
ATOM      4  C   UNL     1       0.562  11.754  20.256  0.00  0.00    +0.000 A 
ATOM      5  C   UNL     1       0.902  11.092  19.080  0.00  0.00    +0.000 A 
ATOM      6  C   UNL     1       1.085   9.706  19.068  0.00  0.00    +0.000 A 
ATOM      7  C   UNL     1       0.863   8.985  20.249  0.00  0.00    +0.000 A 
ATOM      8  C   UNL     1       0.477   9.646  21.420  0.00  0.00    +0.000 A 
BRANCH   3   9
ATOM      9  O   UNL     1      -0.113  11.593  22.597  0.00  0.00    +0.000 OA
BRANCH   9  10
ATOM     10  C   UNL     1      -1.278  10.973  23.150  0.00  0.00    +0.000 C 
BRANCH  10  12
ATOM     11  C   UNL     1      -2.196  13.295  23.163  0.00  0.00    +0.000 C 
ATOM     12  C   UNL     1      -2.391  11.967  23.159  0.00  0.00    +0.000 C 
ENDBRANCH  10  12
ENDBRANCH   9  10
ENDBRANCH   3   9
ENDBRANCH   2   6
ENDBRANCH   1   2
BRANCH   1  13
ATOM     13  C   UNL     1       2.634   6.776  18.369  0.00  0.00    +0.000 C 
BRANCH  13  14
ATOM     14  C   UNL     1       3.534   5.830  17.606  0.00  0.00    +0.000 A 
ATOM     15  C   UNL     1       4.524   6.458  16.813  0.00  0.00    +0.000 A 
ATOM     16  C   UNL     1       5.431   5.729  16.050  0.00  0.00    +0.000 A 
ATOM     17  C   UNL     1       5.386   4.340  16.056  0.00  0.00    +0.000 A 
ATOM     18  C   UNL     1       4.426   3.706  16.838  0.00  0.00    +0.000 A 
ATOM     19  C   UNL     1       3.496   4.425  17.619  0.00  0.00    +0.000 A 
BRANCH  17  20
ATOM     20  O   UNL     1       6.319   3.727  15.266  0.00  0.00    +0.000 OA
ATOM     21  C   UNL     1       6.371   4.141  13.905  0.00  0.00    +0.000 C 
ENDBRANCH  17  20
BRANCH  19  22
ATOM     22  O   UNL     1       2.683   3.549  18.281  0.00  0.00    +0.000 OA
ATOM     23  C   UNL     1       2.615   2.184  17.940  0.00  0.00    +0.000 C 
ENDBRANCH  19  22
ENDBRANCH  13  14
ENDBRANCH   1  13
TORSDOF 9
ENDMDL
MODEL 8
REMARK VINA RESULT:      -6.2      2.845      6.861
REMARK  Name = 
REMARK  11 active torsions:
REMARK  status: ('A' for Active; 'I' for Inactive)
REMARK    1  A    between atoms: C_2  and  C_3
REMARK    2  A    between atoms: C_3  and  O_4
REMARK    3  A    between atoms: O_4  and  C_5
REMARK    4  A    between atoms: C_8  and  C_9
REMARK    5  A    between atoms: C_9  and  C_10
REMARK    6  A    between atoms: C_10  and  C_11
REMARK    7  A    between atoms: C_11  and  C_12
REMARK    8  A    between atoms: C_15  and  O_16
REMARK    9  A    between atoms: O_16  and  C_17
REMARK   10  A    between atoms: C_19  and  O_20
REMARK   11  A    between atoms: O_20  and  C_21
REMARK                            x       y       z     vdW  Elec       q    Type
REMARK                         _______ _______ _______ _____ _____    ______ ____
ROOT
ATOM      1  C   UNL     1       3.270   8.148  17.786  0.00  0.00    +0.000 C 
ENDROOT
BRANCH   1   2
ATOM      2  C   UNL     1       1.754   8.370  17.901  0.00  0.00    +0.000 C 
BRANCH   2   6
ATOM      3  C   UNL     1       0.634  10.346  21.572  0.00  0.00    +0.000 A 
ATOM      4  C   UNL     1       0.773  11.070  20.389  0.00  0.00    +0.000 A 
ATOM      5  C   UNL     1       1.077  10.416  19.199  0.00  0.00    +0.000 A 
ATOM      6  C   UNL     1       1.338   9.042  19.186  0.00  0.00    +0.000 A 
ATOM      7  C   UNL     1       1.231   8.323  20.383  0.00  0.00    +0.000 A 
ATOM      8  C   UNL     1       0.881   8.973  21.571  0.00  0.00    +0.000 A 
BRANCH   3   9
ATOM      9  O   UNL     1       0.255  10.897  22.769  0.00  0.00    +0.000 OA
BRANCH   9  10
ATOM     10  C   UNL     1      -1.095  10.600  23.139  0.00  0.00    +0.000 C 
BRANCH  10  12
ATOM     11  C   UNL     1      -3.015  12.137  23.575  0.00  0.00    +0.000 C 
ATOM     12  C   UNL     1      -1.946  11.790  22.841  0.00  0.00    +0.000 C 
ENDBRANCH  10  12
ENDBRANCH   9  10
ENDBRANCH   3   9
ENDBRANCH   2   6
ENDBRANCH   1   2
BRANCH   1  13
ATOM     13  C   UNL     1       3.629   6.782  17.187  0.00  0.00    +0.000 C 
BRANCH  13  14
ATOM     14  C   UNL     1       3.251   5.638  18.101  0.00  0.00    +0.000 A 
ATOM     15  C   UNL     1       2.014   5.019  17.801  0.00  0.00    +0.000 A 
ATOM     16  C   UNL     1       1.522   3.952  18.546  0.00  0.00    +0.000 A 
ATOM     17  C   UNL     1       2.254   3.458  19.619  0.00  0.00    +0.000 A 
ATOM     18  C   UNL     1       3.477   4.048  19.922  0.00  0.00    +0.000 A 
ATOM     19  C   UNL     1       3.995   5.131  19.180  0.00  0.00    +0.000 A 
BRANCH  17  20
ATOM     20  O   UNL     1       1.673   2.413  20.284  0.00  0.00    +0.000 OA
ATOM     21  C   UNL     1       1.491   2.573  21.686  0.00  0.00    +0.000 C 
ENDBRANCH  17  20
BRANCH  19  22
ATOM     22  O   UNL     1       5.205   5.499  19.697  0.00  0.00    +0.000 OA
ATOM     23  C   UNL     1       6.401   5.388  18.962  0.00  0.00    +0.000 C 
ENDBRANCH  19  22
ENDBRANCH  13  14
ENDBRANCH   1  13
TORSDOF 9
ENDMDL
MODEL 9
REMARK VINA RESULT:      -6.2      3.244      5.815
REMARK  Name = 
REMARK  11 active torsions:
REMARK  status: ('A' for Active; 'I' for Inactive)
REMARK    1  A    between atoms: C_2  and  C_3
REMARK    2  A    between atoms: C_3  and  O_4
REMARK    3  A    between atoms: O_4  and  C_5
REMARK    4  A    between atoms: C_8  and  C_9
REMARK    5  A    between atoms: C_9  and  C_10
REMARK    6  A    between atoms: C_10  and  C_11
REMARK    7  A    between atoms: C_11  and  C_12
REMARK    8  A    between atoms: C_15  and  O_16
REMARK    9  A    between atoms: O_16  and  C_17
REMARK   10  A    between atoms: C_19  and  O_20
REMARK   11  A    between atoms: O_20  and  C_21
REMARK                            x       y       z     vdW  Elec       q    Type
REMARK                         _______ _______ _______ _____ _____    ______ ____
ROOT
ATOM      1  C   UNL     1       7.006   5.937  18.076  0.00  0.00    +0.000 C 
ENDROOT
BRANCH   1   2
ATOM      2  C   UNL     1       7.508   4.638  17.426  0.00  0.00    +0.000 C 
BRANCH   2   6
ATOM      3  C   UNL     1       6.228   4.056  13.344  0.00  0.00    +0.000 A 
ATOM      4  C   UNL     1       5.549   3.444  14.396  0.00  0.00    +0.000 A 
ATOM      5  C   UNL     1       5.932   3.684  15.712  0.00  0.00    +0.000 A 
ATOM      6  C   UNL     1       7.056   4.465  15.997  0.00  0.00    +0.000 A 
ATOM      7  C   UNL     1       7.758   5.051  14.935  0.00  0.00    +0.000 A 
ATOM      8  C   UNL     1       7.345   4.846  13.614  0.00  0.00    +0.000 A 
BRANCH   3   9
ATOM      9  O   UNL     1       5.866   3.942  12.027  0.00  0.00    +0.000 OA
BRANCH   9  10
ATOM     10  C   UNL     1       5.052   2.799  11.749  0.00  0.00    +0.000 C 
BRANCH  10  12
ATOM     11  C   UNL     1       7.164   1.771  10.902  0.00  0.00    +0.000 C 
ATOM     12  C   UNL     1       5.942   1.641  11.440  0.00  0.00    +0.000 C 
ENDBRANCH  10  12
ENDBRANCH   9  10
ENDBRANCH   3   9
ENDBRANCH   2   6
ENDBRANCH   1   2
BRANCH   1  13
ATOM     13  C   UNL     1       6.062   5.684  19.260  0.00  0.00    +0.000 C 
BRANCH  13  14
ATOM     14  C   UNL     1       4.787   4.990  18.839  0.00  0.00    +0.000 A 
ATOM     15  C   UNL     1       4.672   3.645  19.264  0.00  0.00    +0.000 A 
ATOM     16  C   UNL     1       3.560   2.866  18.960  0.00  0.00    +0.000 A 
ATOM     17  C   UNL     1       2.514   3.407  18.221  0.00  0.00    +0.000 A 
ATOM     18  C   UNL     1       2.605   4.731  17.804  0.00  0.00    +0.000 A 
ATOM     19  C   UNL     1       3.724   5.539  18.101  0.00  0.00    +0.000 A 
BRANCH  17  20
ATOM     20  O   UNL     1       1.476   2.552  17.976  0.00  0.00    +0.000 OA
ATOM     21  C   UNL     1       0.527   2.385  19.024  0.00  0.00    +0.000 C 
ENDBRANCH  17  20
BRANCH  19  22
ATOM     22  O   UNL     1       3.539   6.785  17.573  0.00  0.00    +0.000 OA
ATOM     23  C   UNL     1       2.703   7.742  18.180  0.00  0.00    +0.000 C 
ENDBRANCH  19  22
ENDBRANCH  13  14
ENDBRANCH   1  13
TORSDOF 9
ENDMDL
