MODEL 1
REMARK VINA RESULT:      -9.8      0.000      0.000
REMARK  Name = 
REMARK  7 active torsions:
REMARK  status: ('A' for Active; 'I' for Inactive)
REMARK    1  A    between atoms: C_1  and  O_2
REMARK    2  A    between atoms: O_2  and  C_3
REMARK    3  A    between atoms: N_10  and  C_11
REMARK    4  A    between atoms: C_20  and  C_22
REMARK    5  A    between atoms: C_22  and  C_23
REMARK    6  A    between atoms: C_34  and  O_35
REMARK    7  A    between atoms: O_35  and  C_36
REMARK                            x       y       z     vdW  Elec       q    Type
REMARK                         _______ _______ _______ _____ _____    ______ ____
ROOT
ATOM      1  C   UNL     1       2.403   6.061  20.086  0.00  0.00    +0.000 A 
ATOM      2  C   UNL     1       1.708   6.576  21.200  0.00  0.00    +0.000 A 
ATOM      3  C   UNL     1       1.138   7.862  21.190  0.00  0.00    +0.000 A 
ATOM      4  C   UNL     1       1.262   8.631  20.046  0.00  0.00    +0.000 A 
ATOM      5  C   UNL     1       1.964   8.136  18.946  0.00  0.00    +0.000 A 
ATOM      6  C   UNL     1       2.518   6.860  18.941  0.00  0.00    +0.000 A 
ATOM      7  C   UNL     1       1.941   9.103  17.807  0.00  0.00    +0.000 C 
ATOM      8  C   UNL     1       1.293  10.331  18.450  0.00  0.00    +0.000 C 
ATOM      9  N   UNL     1       0.755   9.916  19.757  0.00  0.00    +0.000 N 
ATOM     10  C   UNL     1      -0.111  10.659  20.547  0.00  0.00    +0.000 C 
ATOM     11  O   UNL     1      -0.582  10.267  21.617  0.00  0.00    +0.000 OA
ENDROOT
BRANCH   1  19
ATOM     12  C   UNL     1       5.888   5.190  15.993  0.00  0.00    +0.000 A 
ATOM     13  C   UNL     1       5.441   3.859  16.111  0.00  0.00    +0.000 A 
ATOM     14  C   UNL     1       4.613   3.436  17.146  0.00  0.00    +0.000 A 
ATOM     15  N   UNL     1       4.136   2.186  17.133  0.00  0.00    +0.000 NA
ATOM     16  C   UNL     1       3.300   1.851  18.126  0.00  0.00    +0.000 A 
ATOM     17  N   UNL     1       2.888   2.650  19.118  0.00  0.00    +0.000 NA
ATOM     18  C   UNL     1       3.371   3.906  19.115  0.00  0.00    +0.000 A 
ATOM     19  N   UNL     1       2.900   4.734  20.158  0.00  0.00    +0.000 N 
ATOM     20  C   UNL     1       4.288   4.350  18.147  0.00  0.00    +0.000 A 
ATOM     21  C   UNL     1       4.879   5.627  18.120  0.00  0.00    +0.000 A 
ATOM     22  C   UNL     1       5.629   6.079  17.036  0.00  0.00    +0.000 A 
ATOM     23  H   UNL     1       2.257   4.157  20.699  0.00  0.00    +0.000 HD
BRANCH  12  25
ATOM     24  C   UNL     1       6.833   4.648  13.883  0.00  0.00    +0.000 C 
ATOM     25  O   UNL     1       6.589   5.623  14.899  0.00  0.00    +0.000 OA
ENDBRANCH  12  25
BRANCH  22  26
ATOM     26  O   UNL     1       5.967   7.390  17.195  0.00  0.00    +0.000 OA
ATOM     27  C   UNL     1       7.289   7.752  17.539  0.00  0.00    +0.000 C 
ENDBRANCH  22  26
ENDBRANCH   1  19
BRANCH  10  28
ATOM     28  C   UNL     1      -0.510  12.037  20.007  0.00  0.00    +0.000 C 
BRANCH  28  29
ATOM     29  C   UNL     1      -1.935  12.110  19.553  0.00  0.00    +0.000 A 
ATOM     30  C   UNL     1      -2.994  12.700  20.216  0.00  0.00    +0.000 A 
ATOM     31  O   UNL     1      -4.149  12.575  19.515  0.00  0.00    +0.000 OA
ATOM     32  C   UNL     1      -3.849  11.908  18.366  0.00  0.00    +0.000 A 
ATOM     33  C   UNL     1      -4.761  11.583  17.361  0.00  0.00    +0.000 A 
ATOM     34  C   UNL     1      -4.249  10.901  16.253  0.00  0.00    +0.000 A 
ATOM     35  C   UNL     1      -2.893  10.587  16.163  0.00  0.00    +0.000 A 
ATOM     36  C   UNL     1      -1.999  10.933  17.192  0.00  0.00    +0.000 A 
ATOM     37  C   UNL     1      -2.493  11.611  18.328  0.00  0.00    +0.000 A 
ENDBRANCH  28  29
ENDBRANCH  10  28
TORSDOF 5
ENDMDL
MODEL 2
REMARK VINA RESULT:      -9.5      3.137     10.234
REMARK  Name = 
REMARK  7 active torsions:
REMARK  status: ('A' for Active; 'I' for Inactive)
REMARK    1  A    between atoms: C_1  and  O_2
REMARK    2  A    between atoms: O_2  and  C_3
REMARK    3  A    between atoms: N_10  and  C_11
REMARK    4  A    between atoms: C_20  and  C_22
REMARK    5  A    between atoms: C_22  and  C_23
REMARK    6  A    between atoms: C_34  and  O_35
REMARK    7  A    between atoms: O_35  and  C_36
REMARK                            x       y       z     vdW  Elec       q    Type
REMARK                         _______ _______ _______ _____ _____    ______ ____
ROOT
ATOM      1  C   UNL     1      -1.525  11.250  19.433  0.00  0.00    +0.000 A 
ATOM      2  C   UNL     1      -0.758  11.150  18.254  0.00  0.00    +0.000 A 
ATOM      3  C   UNL     1       0.348  10.287  18.159  0.00  0.00    +0.000 A 
ATOM      4  C   UNL     1       0.679   9.512  19.257  0.00  0.00    +0.000 A 
ATOM      5  C   UNL     1      -0.063   9.619  20.433  0.00  0.00    +0.000 A 
ATOM      6  C   UNL     1      -1.169  10.458  20.533  0.00  0.00    +0.000 A 
ATOM      7  C   UNL     1       0.431   8.669  21.475  0.00  0.00    +0.000 C 
ATOM      8  C   UNL     1       1.701   8.119  20.822  0.00  0.00    +0.000 C 
ATOM      9  N   UNL     1       1.696   8.546  19.413  0.00  0.00    +0.000 N 
ATOM     10  C   UNL     1       2.536   8.065  18.419  0.00  0.00    +0.000 C 
ATOM     11  O   UNL     1       2.479   8.407  17.236  0.00  0.00    +0.000 OA
ENDROOT
BRANCH   1  19
ATOM     12  C   UNL     1      -1.321  14.585  23.734  0.00  0.00    +0.000 A 
ATOM     13  C   UNL     1      -2.726  14.539  23.631  0.00  0.00    +0.000 A 
ATOM     14  C   UNL     1      -3.380  13.927  22.566  0.00  0.00    +0.000 A 
ATOM     15  N   UNL     1      -4.713  13.821  22.591  0.00  0.00    +0.000 NA
ATOM     16  C   UNL     1      -5.283  13.175  21.565  0.00  0.00    +0.000 A 
ATOM     17  N   UNL     1      -4.647  12.616  20.528  0.00  0.00    +0.000 NA
ATOM     18  C   UNL     1      -3.306  12.724  20.520  0.00  0.00    +0.000 A 
ATOM     19  N   UNL     1      -2.659  12.103  19.428  0.00  0.00    +0.000 N 
ATOM     20  C   UNL     1      -2.608  13.419  21.522  0.00  0.00    +0.000 A 
ATOM     21  C   UNL     1      -1.215  13.624  21.543  0.00  0.00    +0.000 A 
ATOM     22  C   UNL     1      -0.556  14.149  22.653  0.00  0.00    +0.000 A 
ATOM     23  H   UNL     1      -3.402  11.683  18.871  0.00  0.00    +0.000 HD
BRANCH  12  25
ATOM     24  C   UNL     1      -1.460  15.953  25.669  0.00  0.00    +0.000 C 
ATOM     25  O   UNL     1      -0.693  15.068  24.851  0.00  0.00    +0.000 OA
ENDBRANCH  12  25
BRANCH  22  26
ATOM     26  O   UNL     1       0.795  14.114  22.472  0.00  0.00    +0.000 OA
ATOM     27  C   UNL     1       1.367  14.541  21.253  0.00  0.00    +0.000 C 
ENDBRANCH  22  26
ENDBRANCH   1  19
BRANCH  10  28
ATOM     28  C   UNL     1       3.568   7.016  18.851  0.00  0.00    +0.000 C 
BRANCH  28  29
ATOM     29  C   UNL     1       3.287   5.647  18.315  0.00  0.00    +0.000 A 
ATOM     30  C   UNL     1       3.843   5.058  17.195  0.00  0.00    +0.000 A 
ATOM     31  O   UNL     1       3.355   3.807  17.000  0.00  0.00    +0.000 OA
ATOM     32  C   UNL     1       2.478   3.557  18.010  0.00  0.00    +0.000 A 
ATOM     33  C   UNL     1       1.762   2.371  18.182  0.00  0.00    +0.000 A 
ATOM     34  C   UNL     1       0.916   2.311  19.293  0.00  0.00    +0.000 A 
ATOM     35  C   UNL     1       0.818   3.381  20.184  0.00  0.00    +0.000 A 
ATOM     36  C   UNL     1       1.555   4.561  19.984  0.00  0.00    +0.000 A 
ATOM     37  C   UNL     1       2.408   4.652  18.863  0.00  0.00    +0.000 A 
ENDBRANCH  28  29
ENDBRANCH  10  28
TORSDOF 5
ENDMDL
MODEL 3
REMARK VINA RESULT:      -9.1      0.853      1.772
REMARK  Name = 
REMARK  7 active torsions:
REMARK  status: ('A' for Active; 'I' for Inactive)
REMARK    1  A    between atoms: C_1  and  O_2
REMARK    2  A    between atoms: O_2  and  C_3
REMARK    3  A    between atoms: N_10  and  C_11
REMARK    4  A    between atoms: C_20  and  C_22
REMARK    5  A    between atoms: C_22  and  C_23
REMARK    6  A    between atoms: C_34  and  O_35
REMARK    7  A    between atoms: O_35  and  C_36
REMARK                            x       y       z     vdW  Elec       q    Type
REMARK                         _______ _______ _______ _____ _____    ______ ____
ROOT
ATOM      1  C   UNL     1       2.355   6.172  20.141  0.00  0.00    +0.000 A 
ATOM      2  C   UNL     1       1.748   6.776  21.261  0.00  0.00    +0.000 A 
ATOM      3  C   UNL     1       1.171   8.058  21.192  0.00  0.00    +0.000 A 
ATOM      4  C   UNL     1       1.199   8.731  19.983  0.00  0.00    +0.000 A 
ATOM      5  C   UNL     1       1.814   8.147  18.875  0.00  0.00    +0.000 A 
ATOM      6  C   UNL     1       2.373   6.874  18.929  0.00  0.00    +0.000 A 
ATOM      7  C   UNL     1       1.695   9.018  17.667  0.00  0.00    +0.000 C 
ATOM      8  C   UNL     1       1.094  10.295  18.257  0.00  0.00    +0.000 C 
ATOM      9  N   UNL     1       0.664   9.988  19.632  0.00  0.00    +0.000 N 
ATOM     10  C   UNL     1      -0.140  10.793  20.426  0.00  0.00    +0.000 C 
ATOM     11  O   UNL     1      -0.523  10.490  21.558  0.00  0.00    +0.000 OA
ENDROOT
BRANCH   1  19
ATOM     12  C   UNL     1       5.814   5.106  16.071  0.00  0.00    +0.000 A 
ATOM     13  C   UNL     1       5.379   3.780  16.266  0.00  0.00    +0.000 A 
ATOM     14  C   UNL     1       4.562   3.407  17.330  0.00  0.00    +0.000 A 
ATOM     15  N   UNL     1       4.095   2.155  17.388  0.00  0.00    +0.000 NA
ATOM     16  C   UNL     1       3.271   1.868  18.405  0.00  0.00    +0.000 A 
ATOM     17  N   UNL     1       2.860   2.716  19.356  0.00  0.00    +0.000 NA
ATOM     18  C   UNL     1       3.332   3.974  19.280  0.00  0.00    +0.000 A 
ATOM     19  N   UNL     1       2.863   4.854  20.280  0.00  0.00    +0.000 N 
ATOM     20  C   UNL     1       4.238   4.372  18.281  0.00  0.00    +0.000 A 
ATOM     21  C   UNL     1       4.818   5.651  18.180  0.00  0.00    +0.000 A 
ATOM     22  C   UNL     1       5.555   6.049  17.066  0.00  0.00    +0.000 A 
ATOM     23  H   UNL     1       2.229   4.302  20.858  0.00  0.00    +0.000 HD
BRANCH  12  25
ATOM     24  C   UNL     1       6.707   4.468  13.966  0.00  0.00    +0.000 C 
ATOM     25  O   UNL     1       6.502   5.485  14.950  0.00  0.00    +0.000 OA
ENDBRANCH  12  25
BRANCH  22  26
ATOM     26  O   UNL     1       5.883   7.368  17.152  0.00  0.00    +0.000 OA
ATOM     27  C   UNL     1       7.208   7.760  17.450  0.00  0.00    +0.000 C 
ENDBRANCH  22  26
ENDBRANCH   1  19
BRANCH  10  28
ATOM     28  C   UNL     1      -0.589  12.123  19.809  0.00  0.00    +0.000 C 
BRANCH  28  29
ATOM     29  C   UNL     1      -2.006  12.109  19.324  0.00  0.00    +0.000 A 
ATOM     30  C   UNL     1      -2.452  11.782  18.058  0.00  0.00    +0.000 A 
ATOM     31  O   UNL     1      -3.803  11.881  17.968  0.00  0.00    +0.000 OA
ATOM     32  C   UNL     1      -4.258  12.261  19.193  0.00  0.00    +0.000 A 
ATOM     33  C   UNL     1      -5.598  12.467  19.528  0.00  0.00    +0.000 A 
ATOM     34  C   UNL     1      -5.858  12.848  20.847  0.00  0.00    +0.000 A 
ATOM     35  C   UNL     1      -4.825  12.993  21.773  0.00  0.00    +0.000 A 
ATOM     36  C   UNL     1      -3.486  12.775  21.405  0.00  0.00    +0.000 A 
ATOM     37  C   UNL     1      -3.194  12.400  20.075  0.00  0.00    +0.000 A 
ENDBRANCH  28  29
ENDBRANCH  10  28
TORSDOF 5
ENDMDL
MODEL 4
REMARK VINA RESULT:      -9.0      2.861     10.632
REMARK  Name = 
REMARK  7 active torsions:
REMARK  status: ('A' for Active; 'I' for Inactive)
REMARK    1  A    between atoms: C_1  and  O_2
REMARK    2  A    between atoms: O_2  and  C_3
REMARK    3  A    between atoms: N_10  and  C_11
REMARK    4  A    between atoms: C_20  and  C_22
REMARK    5  A    between atoms: C_22  and  C_23
REMARK    6  A    between atoms: C_34  and  O_35
REMARK    7  A    between atoms: O_35  and  C_36
REMARK                            x       y       z     vdW  Elec       q    Type
REMARK                         _______ _______ _______ _____ _____    ______ ____
ROOT
ATOM      1  C   UNL     1      -0.910  11.403  22.401  0.00  0.00    +0.000 A 
ATOM      2  C   UNL     1      -0.531  10.070  22.665  0.00  0.00    +0.000 A 
ATOM      3  C   UNL     1       0.145   9.288  21.711  0.00  0.00    +0.000 A 
ATOM      4  C   UNL     1       0.448   9.854  20.486  0.00  0.00    +0.000 A 
ATOM      5  C   UNL     1       0.061  11.166  20.210  0.00  0.00    +0.000 A 
ATOM      6  C   UNL     1      -0.594  11.953  21.152  0.00  0.00    +0.000 A 
ATOM      7  C   UNL     1       0.522  11.595  18.856  0.00  0.00    +0.000 C 
ATOM      8  C   UNL     1       1.071  10.287  18.281  0.00  0.00    +0.000 C 
ATOM      9  N   UNL     1       1.148   9.315  19.385  0.00  0.00    +0.000 N 
ATOM     10  C   UNL     1       1.809   8.096  19.344  0.00  0.00    +0.000 C 
ATOM     11  O   UNL     1       1.896   7.322  20.300  0.00  0.00    +0.000 OA
ENDROOT
BRANCH   1  19
ATOM     12  C   UNL     1      -5.145  14.159  20.368  0.00  0.00    +0.000 A 
ATOM     13  C   UNL     1      -4.844  15.065  21.405  0.00  0.00    +0.000 A 
ATOM     14  C   UNL     1      -3.900  14.790  22.390  0.00  0.00    +0.000 A 
ATOM     15  N   UNL     1      -3.584  15.741  23.276  0.00  0.00    +0.000 NA
ATOM     16  C   UNL     1      -2.631  15.438  24.168  0.00  0.00    +0.000 A 
ATOM     17  N   UNL     1      -1.957  14.284  24.248  0.00  0.00    +0.000 NA
ATOM     18  C   UNL     1      -2.282  13.339  23.346  0.00  0.00    +0.000 A 
ATOM     19  N   UNL     1      -1.539  12.141  23.437  0.00  0.00    +0.000 N 
ATOM     20  C   UNL     1      -3.297  13.534  22.394  0.00  0.00    +0.000 A 
ATOM     21  C   UNL     1      -3.730  12.569  21.465  0.00  0.00    +0.000 A 
ATOM     22  C   UNL     1      -4.601  12.876  20.422  0.00  0.00    +0.000 A 
ATOM     23  H   UNL     1      -0.882  12.281  24.204  0.00  0.00    +0.000 HD
BRANCH  12  25
ATOM     24  C   UNL     1      -7.358  14.192  19.510  0.00  0.00    +0.000 C 
ATOM     25  O   UNL     1      -5.972  14.495  19.331  0.00  0.00    +0.000 OA
ENDBRANCH  12  25
BRANCH  22  26
ATOM     26  O   UNL     1      -4.748  11.809  19.587  0.00  0.00    +0.000 OA
ATOM     27  C   UNL     1      -3.901  11.654  18.466  0.00  0.00    +0.000 C 
ENDBRANCH  22  26
ENDBRANCH   1  19
BRANCH  10  28
ATOM     28  C   UNL     1       2.491   7.737  18.019  0.00  0.00    +0.000 C 
BRANCH  28  29
ATOM     29  C   UNL     1       3.280   6.467  18.078  0.00  0.00    +0.000 A 
ATOM     30  C   UNL     1       4.653   6.339  18.164  0.00  0.00    +0.000 A 
ATOM     31  O   UNL     1       5.029   5.036  18.194  0.00  0.00    +0.000 OA
ATOM     32  C   UNL     1       3.890   4.290  18.143  0.00  0.00    +0.000 A 
ATOM     33  C   UNL     1       3.838   2.896  18.160  0.00  0.00    +0.000 A 
ATOM     34  C   UNL     1       2.566   2.320  18.108  0.00  0.00    +0.000 A 
ATOM     35  C   UNL     1       1.417   3.111  18.060  0.00  0.00    +0.000 A 
ATOM     36  C   UNL     1       1.504   4.515  18.048  0.00  0.00    +0.000 A 
ATOM     37  C   UNL     1       2.779   5.121  18.087  0.00  0.00    +0.000 A 
ENDBRANCH  28  29
ENDBRANCH  10  28
TORSDOF 5
ENDMDL
MODEL 5
REMARK VINA RESULT:      -9.0      2.356      3.604
REMARK  Name = 
REMARK  7 active torsions:
REMARK  status: ('A' for Active; 'I' for Inactive)
REMARK    1  A    between atoms: C_1  and  O_2
REMARK    2  A    between atoms: O_2  and  C_3
REMARK    3  A    between atoms: N_10  and  C_11
REMARK    4  A    between atoms: C_20  and  C_22
REMARK    5  A    between atoms: C_22  and  C_23
REMARK    6  A    between atoms: C_34  and  O_35
REMARK    7  A    between atoms: O_35  and  C_36
REMARK                            x       y       z     vdW  Elec       q    Type
REMARK                         _______ _______ _______ _____ _____    ______ ____
ROOT
ATOM      1  C   UNL     1       2.186   6.427  20.033  0.00  0.00    +0.000 A 
ATOM      2  C   UNL     1       1.590   7.054  21.148  0.00  0.00    +0.000 A 
ATOM      3  C   UNL     1       1.163   8.393  21.105  0.00  0.00    +0.000 A 
ATOM      4  C   UNL     1       1.330   9.103  19.929  0.00  0.00    +0.000 A 
ATOM      5  C   UNL     1       1.935   8.496  18.828  0.00  0.00    +0.000 A 
ATOM      6  C   UNL     1       2.347   7.167  18.855  0.00  0.00    +0.000 A 
ATOM      7  C   UNL     1       1.978   9.419  17.654  0.00  0.00    +0.000 C 
ATOM      8  C   UNL     1       1.491  10.732  18.268  0.00  0.00    +0.000 C 
ATOM      9  N   UNL     1       0.956  10.425  19.606  0.00  0.00    +0.000 N 
ATOM     10  C   UNL     1       0.204  11.286  20.393  0.00  0.00    +0.000 C 
ATOM     11  O   UNL     1      -0.270  10.986  21.491  0.00  0.00    +0.000 OA
ENDROOT
BRANCH   1  19
ATOM     12  C   UNL     1       5.787   5.152  16.152  0.00  0.00    +0.000 A 
ATOM     13  C   UNL     1       5.198   3.876  16.252  0.00  0.00    +0.000 A 
ATOM     14  C   UNL     1       4.273   3.553  17.241  0.00  0.00    +0.000 A 
ATOM     15  N   UNL     1       3.671   2.359  17.207  0.00  0.00    +0.000 NA
ATOM     16  C   UNL     1       2.751   2.124  18.152  0.00  0.00    +0.000 A 
ATOM     17  N   UNL     1       2.368   2.972  19.115  0.00  0.00    +0.000 NA
ATOM     18  C   UNL     1       2.978   4.172  19.132  0.00  0.00    +0.000 A 
ATOM     19  N   UNL     1       2.537   5.056  20.141  0.00  0.00    +0.000 N 
ATOM     20  C   UNL     1       3.989   4.508  18.216  0.00  0.00    +0.000 A 
ATOM     21  C   UNL     1       4.710   5.717  18.215  0.00  0.00    +0.000 A 
ATOM     22  C   UNL     1       5.562   6.076  17.173  0.00  0.00    +0.000 A 
ATOM     23  H   UNL     1       1.808   4.555  20.648  0.00  0.00    +0.000 HD
BRANCH  12  25
ATOM     24  C   UNL     1       6.748   4.509  14.078  0.00  0.00    +0.000 C 
ATOM     25  O   UNL     1       6.590   5.499  15.098  0.00  0.00    +0.000 OA
ENDBRANCH  12  25
BRANCH  22  26
ATOM     26  O   UNL     1       6.025   7.346  17.344  0.00  0.00    +0.000 OA
ATOM     27  C   UNL     1       7.397   7.584  17.584  0.00  0.00    +0.000 C 
ENDBRANCH  22  26
ENDBRANCH   1  19
BRANCH  10  28
ATOM     28  C   UNL     1      -0.061  12.680  19.813  0.00  0.00    +0.000 C 
BRANCH  28  29
ATOM     29  C   UNL     1       0.898  13.721  20.299  0.00  0.00    +0.000 A 
ATOM     30  C   UNL     1       0.990  14.243  21.575  0.00  0.00    +0.000 A 
ATOM     31  O   UNL     1       1.973  15.175  21.660  0.00  0.00    +0.000 OA
ATOM     32  C   UNL     1       2.550  15.261  20.430  0.00  0.00    +0.000 A 
ATOM     33  C   UNL     1       3.612  16.102  20.095  0.00  0.00    +0.000 A 
ATOM     34  C   UNL     1       4.068  16.033  18.775  0.00  0.00    +0.000 A 
ATOM     35  C   UNL     1       3.492  15.151  17.859  0.00  0.00    +0.000 A 
ATOM     36  C   UNL     1       2.425  14.315  18.230  0.00  0.00    +0.000 A 
ATOM     37  C   UNL     1       1.938  14.373  19.554  0.00  0.00    +0.000 A 
ENDBRANCH  28  29
ENDBRANCH  10  28
TORSDOF 5
ENDMDL
MODEL 6
REMARK VINA RESULT:      -9.0      3.289     10.590
REMARK  Name = 
REMARK  7 active torsions:
REMARK  status: ('A' for Active; 'I' for Inactive)
REMARK    1  A    between atoms: C_1  and  O_2
REMARK    2  A    between atoms: O_2  and  C_3
REMARK    3  A    between atoms: N_10  and  C_11
REMARK    4  A    between atoms: C_20  and  C_22
REMARK    5  A    between atoms: C_22  and  C_23
REMARK    6  A    between atoms: C_34  and  O_35
REMARK    7  A    between atoms: O_35  and  C_36
REMARK                            x       y       z     vdW  Elec       q    Type
REMARK                         _______ _______ _______ _____ _____    ______ ____
ROOT
ATOM      1  C   UNL     1      -1.516  11.770  19.659  0.00  0.00    +0.000 A 
ATOM      2  C   UNL     1      -0.771  11.468  18.500  0.00  0.00    +0.000 A 
ATOM      3  C   UNL     1       0.210  10.461  18.490  0.00  0.00    +0.000 A 
ATOM      4  C   UNL     1       0.438   9.747  19.653  0.00  0.00    +0.000 A 
ATOM      5  C   UNL     1      -0.281  10.052  20.809  0.00  0.00    +0.000 A 
ATOM      6  C   UNL     1      -1.266  11.035  20.826  0.00  0.00    +0.000 A 
ATOM      7  C   UNL     1       0.085   9.139  21.933  0.00  0.00    +0.000 C 
ATOM      8  C   UNL     1       1.269   8.371  21.342  0.00  0.00    +0.000 C 
ATOM      9  N   UNL     1       1.318   8.673  19.901  0.00  0.00    +0.000 N 
ATOM     10  C   UNL     1       2.085   8.001  18.960  0.00  0.00    +0.000 C 
ATOM     11  O   UNL     1       2.072   8.244  17.752  0.00  0.00    +0.000 OA
ENDROOT
BRANCH   1  19
ATOM     12  C   UNL     1      -0.894  15.378  23.692  0.00  0.00    +0.000 A 
ATOM     13  C   UNL     1      -2.292  15.509  23.571  0.00  0.00    +0.000 A 
ATOM     14  C   UNL     1      -3.016  14.906  22.546  0.00  0.00    +0.000 A 
ATOM     15  N   UNL     1      -4.351  14.979  22.558  0.00  0.00    +0.000 NA
ATOM     16  C   UNL     1      -4.997  14.335  21.576  0.00  0.00    +0.000 A 
ATOM     17  N   UNL     1      -4.436  13.617  20.596  0.00  0.00    +0.000 NA
ATOM     18  C   UNL     1      -3.092  13.547  20.601  0.00  0.00    +0.000 A 
ATOM     19  N   UNL     1      -2.527  12.762  19.571  0.00  0.00    +0.000 N 
ATOM     20  C   UNL     1      -2.313  14.221  21.557  0.00  0.00    +0.000 A 
ATOM     21  C   UNL     1      -0.905  14.242  21.583  0.00  0.00    +0.000 A 
ATOM     22  C   UNL     1      -0.188  14.761  22.659  0.00  0.00    +0.000 A 
ATOM     23  H   UNL     1      -3.316  12.400  19.036  0.00  0.00    +0.000 HD
BRANCH  12  25
ATOM     24  C   UNL     1      -0.915  15.832  26.022  0.00  0.00    +0.000 C 
ATOM     25  O   UNL     1      -0.213  15.860  24.777  0.00  0.00    +0.000 OA
ENDBRANCH  12  25
BRANCH  22  26
ATOM     26  O   UNL     1       1.147  14.534  22.503  0.00  0.00    +0.000 OA
ATOM     27  C   UNL     1       1.656  14.070  21.268  0.00  0.00    +0.000 C 
ENDBRANCH  22  26
ENDBRANCH   1  19
BRANCH  10  28
ATOM     28  C   UNL     1       2.969   6.865  19.490  0.00  0.00    +0.000 C 
BRANCH  28  29
ATOM     29  C   UNL     1       3.291   5.829  18.459  0.00  0.00    +0.000 A 
ATOM     30  C   UNL     1       2.490   4.778  18.052  0.00  0.00    +0.000 A 
ATOM     31  O   UNL     1       3.102   4.029  17.100  0.00  0.00    +0.000 OA
ATOM     32  C   UNL     1       4.316   4.599  16.861  0.00  0.00    +0.000 A 
ATOM     33  C   UNL     1       5.256   4.137  15.939  0.00  0.00    +0.000 A 
ATOM     34  C   UNL     1       6.441   4.871  15.838  0.00  0.00    +0.000 A 
ATOM     35  C   UNL     1       6.650   6.013  16.612  0.00  0.00    +0.000 A 
ATOM     36  C   UNL     1       5.681   6.454  17.530  0.00  0.00    +0.000 A 
ATOM     37  C   UNL     1       4.479   5.724  17.660  0.00  0.00    +0.000 A 
ENDBRANCH  28  29
ENDBRANCH  10  28
TORSDOF 5
ENDMDL
MODEL 7
REMARK VINA RESULT:      -9.0      2.630      3.754
REMARK  Name = 
REMARK  7 active torsions:
REMARK  status: ('A' for Active; 'I' for Inactive)
REMARK    1  A    between atoms: C_1  and  O_2
REMARK    2  A    between atoms: O_2  and  C_3
REMARK    3  A    between atoms: N_10  and  C_11
REMARK    4  A    between atoms: C_20  and  C_22
REMARK    5  A    between atoms: C_22  and  C_23
REMARK    6  A    between atoms: C_34  and  O_35
REMARK    7  A    between atoms: O_35  and  C_36
REMARK                            x       y       z     vdW  Elec       q    Type
REMARK                         _______ _______ _______ _____ _____    ______ ____
ROOT
ATOM      1  C   UNL     1       1.743   7.115  20.674  0.00  0.00    +0.000 A 
ATOM      2  C   UNL     1       0.913   7.936  21.466  0.00  0.00    +0.000 A 
ATOM      3  C   UNL     1       0.501   9.210  21.036  0.00  0.00    +0.000 A 
ATOM      4  C   UNL     1       0.920   9.656  19.795  0.00  0.00    +0.000 A 
ATOM      5  C   UNL     1       1.756   8.859  19.013  0.00  0.00    +0.000 A 
ATOM      6  C   UNL     1       2.157   7.591  19.423  0.00  0.00    +0.000 A 
ATOM      7  C   UNL     1       2.054   9.506  17.701  0.00  0.00    +0.000 C 
ATOM      8  C   UNL     1       1.437  10.894  17.888  0.00  0.00    +0.000 C 
ATOM      9  N   UNL     1       0.621  10.855  19.114  0.00  0.00    +0.000 N 
ATOM     10  C   UNL     1      -0.290  11.824  19.509  0.00  0.00    +0.000 C 
ATOM     11  O   UNL     1      -0.994  11.744  20.518  0.00  0.00    +0.000 OA
ENDROOT
BRANCH   1  19
ATOM     12  C   UNL     1       4.351   4.318  16.796  0.00  0.00    +0.000 A 
ATOM     13  C   UNL     1       3.761   3.206  17.429  0.00  0.00    +0.000 A 
ATOM     14  C   UNL     1       3.069   3.308  18.633  0.00  0.00    +0.000 A 
ATOM     15  N   UNL     1       2.439   2.233  19.118  0.00  0.00    +0.000 NA
ATOM     16  C   UNL     1       1.745   2.404  20.251  0.00  0.00    +0.000 A 
ATOM     17  N   UNL     1       1.612   3.548  20.934  0.00  0.00    +0.000 NA
ATOM     18  C   UNL     1       2.246   4.623  20.431  0.00  0.00    +0.000 A 
ATOM     19  N   UNL     1       2.068   5.821  21.157  0.00  0.00    +0.000 N 
ATOM     20  C   UNL     1       3.038   4.546  19.272  0.00  0.00    +0.000 A 
ATOM     21  C   UNL     1       3.778   5.613  18.727  0.00  0.00    +0.000 A 
ATOM     22  C   UNL     1       4.387   5.535  17.477  0.00  0.00    +0.000 A 
ATOM     23  H   UNL     1       1.455   5.583  21.936  0.00  0.00    +0.000 HD
BRANCH  12  25
ATOM     24  C   UNL     1       6.284   3.842  15.503  0.00  0.00    +0.000 C 
ATOM     25  O   UNL     1       4.909   4.229  15.549  0.00  0.00    +0.000 OA
ENDBRANCH  12  25
BRANCH  22  26
ATOM     26  O   UNL     1       4.914   6.741  17.121  0.00  0.00    +0.000 OA
ATOM     27  C   UNL     1       6.287   7.011  17.324  0.00  0.00    +0.000 C 
ENDBRANCH  22  26
ENDBRANCH   1  19
BRANCH  10  28
ATOM     28  C   UNL     1      -0.427  13.044  18.590  0.00  0.00    +0.000 C 
BRANCH  28  29
ATOM     29  C   UNL     1       0.261  14.266  19.114  0.00  0.00    +0.000 A 
ATOM     30  C   UNL     1      -0.244  15.190  20.009  0.00  0.00    +0.000 A 
ATOM     31  O   UNL     1       0.652  16.178  20.260  0.00  0.00    +0.000 OA
ATOM     32  C   UNL     1       1.770  15.897  19.535  0.00  0.00    +0.000 A 
ATOM     33  C   UNL     1       2.935  16.666  19.519  0.00  0.00    +0.000 A 
ATOM     34  C   UNL     1       3.977  16.200  18.713  0.00  0.00    +0.000 A 
ATOM     35  C   UNL     1       3.850  15.017  17.983  0.00  0.00    +0.000 A 
ATOM     36  C   UNL     1       2.664  14.263  18.024  0.00  0.00    +0.000 A 
ATOM     37  C   UNL     1       1.592  14.719  18.821  0.00  0.00    +0.000 A 
ENDBRANCH  28  29
ENDBRANCH  10  28
TORSDOF 5
ENDMDL
MODEL 8
REMARK VINA RESULT:      -8.9      2.303      3.406
REMARK  Name = 
REMARK  7 active torsions:
REMARK  status: ('A' for Active; 'I' for Inactive)
REMARK    1  A    between atoms: C_1  and  O_2
REMARK    2  A    between atoms: O_2  and  C_3
REMARK    3  A    between atoms: N_10  and  C_11
REMARK    4  A    between atoms: C_20  and  C_22
REMARK    5  A    between atoms: C_22  and  C_23
REMARK    6  A    between atoms: C_34  and  O_35
REMARK    7  A    between atoms: O_35  and  C_36
REMARK                            x       y       z     vdW  Elec       q    Type
REMARK                         _______ _______ _______ _____ _____    ______ ____
ROOT
ATOM      1  C   UNL     1       2.229   6.505  20.170  0.00  0.00    +0.000 A 
ATOM      2  C   UNL     1       1.573   7.144  21.243  0.00  0.00    +0.000 A 
ATOM      3  C   UNL     1       1.076   8.455  21.135  0.00  0.00    +0.000 A 
ATOM      4  C   UNL     1       1.235   9.125  19.935  0.00  0.00    +0.000 A 
ATOM      5  C   UNL     1       1.900   8.509  18.875  0.00  0.00    +0.000 A 
ATOM      6  C   UNL     1       2.380   7.206  18.966  0.00  0.00    +0.000 A 
ATOM      7  C   UNL     1       1.923   9.384  17.665  0.00  0.00    +0.000 C 
ATOM      8  C   UNL     1       1.350  10.693  18.212  0.00  0.00    +0.000 C 
ATOM      9  N   UNL     1       0.799  10.411  19.549  0.00  0.00    +0.000 N 
ATOM     10  C   UNL     1      -0.017  11.260  20.282  0.00  0.00    +0.000 C 
ATOM     11  O   UNL     1      -0.502  10.980  21.380  0.00  0.00    +0.000 OA
ENDROOT
BRANCH   1  19
ATOM     12  C   UNL     1       5.688   5.148  16.188  0.00  0.00    +0.000 A 
ATOM     13  C   UNL     1       5.166   3.856  16.397  0.00  0.00    +0.000 A 
ATOM     14  C   UNL     1       4.308   3.556  17.451  0.00  0.00    +0.000 A 
ATOM     15  N   UNL     1       3.762   2.337  17.522  0.00  0.00    +0.000 NA
ATOM     16  C   UNL     1       2.903   2.121  18.528  0.00  0.00    +0.000 A 
ATOM     17  N   UNL     1       2.529   3.011  19.455  0.00  0.00    +0.000 NA
ATOM     18  C   UNL     1       3.081   4.235  19.367  0.00  0.00    +0.000 A 
ATOM     19  N   UNL     1       2.650   5.161  20.342  0.00  0.00    +0.000 N 
ATOM     20  C   UNL     1       4.028   4.557  18.379  0.00  0.00    +0.000 A 
ATOM     21  C   UNL     1       4.690   5.794  18.267  0.00  0.00    +0.000 A 
ATOM     22  C   UNL     1       5.471   6.124  17.161  0.00  0.00    +0.000 A 
ATOM     23  H   UNL     1       1.972   4.661  20.917  0.00  0.00    +0.000 HD
BRANCH  12  25
ATOM     24  C   UNL     1       6.677   4.386  14.169  0.00  0.00    +0.000 C 
ATOM     25  O   UNL     1       6.419   5.462  15.073  0.00  0.00    +0.000 OA
ENDBRANCH  12  25
BRANCH  22  26
ATOM     26  O   UNL     1       5.880   7.422  17.229  0.00  0.00    +0.000 OA
ATOM     27  C   UNL     1       7.236   7.734  17.478  0.00  0.00    +0.000 C 
ENDBRANCH  22  26
ENDBRANCH   1  19
BRANCH  10  28
ATOM     28  C   UNL     1      -0.342  12.614  19.639  0.00  0.00    +0.000 C 
BRANCH  28  29
ATOM     29  C   UNL     1       0.646  13.687  19.976  0.00  0.00    +0.000 A 
ATOM     30  C   UNL     1       1.766  13.570  20.777  0.00  0.00    +0.000 A 
ATOM     31  O   UNL     1       2.434  14.748  20.869  0.00  0.00    +0.000 OA
ATOM     32  C   UNL     1       1.758  15.652  20.107  0.00  0.00    +0.000 A 
ATOM     33  C   UNL     1       2.123  16.987  19.926  0.00  0.00    +0.000 A 
ATOM     34  C   UNL     1       1.298  17.750  19.095  0.00  0.00    +0.000 A 
ATOM     35  C   UNL     1       0.183  17.187  18.472  0.00  0.00    +0.000 A 
ATOM     36  C   UNL     1      -0.156  15.838  18.673  0.00  0.00    +0.000 A 
ATOM     37  C   UNL     1       0.655  15.048  19.517  0.00  0.00    +0.000 A 
ENDBRANCH  28  29
ENDBRANCH  10  28
TORSDOF 5
ENDMDL
MODEL 9
REMARK VINA RESULT:      -8.9      3.622     10.158
REMARK  Name = 
REMARK  7 active torsions:
REMARK  status: ('A' for Active; 'I' for Inactive)
REMARK    1  A    between atoms: C_1  and  O_2
REMARK    2  A    between atoms: O_2  and  C_3
REMARK    3  A    between atoms: N_10  and  C_11
REMARK    4  A    between atoms: C_20  and  C_22
REMARK    5  A    between atoms: C_22  and  C_23
REMARK    6  A    between atoms: C_34  and  O_35
REMARK    7  A    between atoms: O_35  and  C_36
REMARK                            x       y       z     vdW  Elec       q    Type
REMARK                         _______ _______ _______ _____ _____    ______ ____
ROOT
ATOM      1  C   UNL     1      -1.303  11.850  19.710  0.00  0.00    +0.000 A 
ATOM      2  C   UNL     1      -0.577  11.722  18.507  0.00  0.00    +0.000 A 
ATOM      3  C   UNL     1       0.390  10.717  18.327  0.00  0.00    +0.000 A 
ATOM      4  C   UNL     1       0.621   9.828  19.362  0.00  0.00    +0.000 A 
ATOM      5  C   UNL     1      -0.079   9.959  20.562  0.00  0.00    +0.000 A 
ATOM      6  C   UNL     1      -1.049  10.940  20.745  0.00  0.00    +0.000 A 
ATOM      7  C   UNL     1       0.287   8.878  21.526  0.00  0.00    +0.000 C 
ATOM      8  C   UNL     1       1.453   8.197  20.806  0.00  0.00    +0.000 C 
ATOM      9  N   UNL     1       1.488   8.717  19.428  0.00  0.00    +0.000 N 
ATOM     10  C   UNL     1       2.234   8.189  18.384  0.00  0.00    +0.000 C 
ATOM     11  O   UNL     1       2.209   8.618  17.228  0.00  0.00    +0.000 OA
ENDROOT
BRANCH   1  19
ATOM     12  C   UNL     1       0.728  16.238  22.216  0.00  0.00    +0.000 A 
ATOM     13  C   UNL     1      -0.609  16.425  22.620  0.00  0.00    +0.000 A 
ATOM     14  C   UNL     1      -1.656  15.650  22.129  0.00  0.00    +0.000 A 
ATOM     15  N   UNL     1      -2.881  15.807  22.641  0.00  0.00    +0.000 NA
ATOM     16  C   UNL     1      -3.838  14.997  22.168  0.00  0.00    +0.000 A 
ATOM     17  N   UNL     1      -3.682  14.040  21.245  0.00  0.00    +0.000 NA
ATOM     18  C   UNL     1      -2.442  13.889  20.744  0.00  0.00    +0.000 A 
ATOM     19  N   UNL     1      -2.300  12.856  19.791  0.00  0.00    +0.000 N 
ATOM     20  C   UNL     1      -1.374  14.714  21.135  0.00  0.00    +0.000 A 
ATOM     21  C   UNL     1      -0.070  14.653  20.608  0.00  0.00    +0.000 A 
ATOM     22  C   UNL     1       0.994  15.359  21.166  0.00  0.00    +0.000 A 
ATOM     23  H   UNL     1      -3.223  12.431  19.705  0.00  0.00    +0.000 HD
BRANCH  12  25
ATOM     24  C   UNL     1       1.445  17.631  24.000  0.00  0.00    +0.000 C 
ATOM     25  O   UNL     1       1.763  16.912  22.806  0.00  0.00    +0.000 OA
ENDBRANCH  12  25
BRANCH  22  26
ATOM     26  O   UNL     1       2.167  15.019  20.563  0.00  0.00    +0.000 OA
ATOM     27  C   UNL     1       2.851  13.840  20.937  0.00  0.00    +0.000 C 
ENDBRANCH  22  26
ENDBRANCH   1  19
BRANCH  10  28
ATOM     28  C   UNL     1       3.108   6.975  18.719  0.00  0.00    +0.000 C 
BRANCH  28  29
ATOM     29  C   UNL     1       2.382   5.670  18.612  0.00  0.00    +0.000 A 
ATOM     30  C   UNL     1       1.809   5.123  17.480  0.00  0.00    +0.000 A 
ATOM     31  O   UNL     1       1.228   3.926  17.747  0.00  0.00    +0.000 OA
ATOM     32  C   UNL     1       1.433   3.669  19.069  0.00  0.00    +0.000 A 
ATOM     33  C   UNL     1       0.999   2.528  19.745  0.00  0.00    +0.000 A 
ATOM     34  C   UNL     1       1.319   2.449  21.103  0.00  0.00    +0.000 A 
ATOM     35  C   UNL     1       2.050   3.459  21.731  0.00  0.00    +0.000 A 
ATOM     36  C   UNL     1       2.476   4.594  21.020  0.00  0.00    +0.000 A 
ATOM     37  C   UNL     1       2.155   4.704  19.650  0.00  0.00    +0.000 A 
ENDBRANCH  28  29
ENDBRANCH  10  28
TORSDOF 5
ENDMDL
