MODEL 1
REMARK VINA RESULT:      -7.8      0.000      0.000
REMARK  Name = 
REMARK  6 active torsions:
REMARK  status: ('A' for Active; 'I' for Inactive)
REMARK    1  A    between atoms: C_1  and  C_2
REMARK    2  A    between atoms: C_7  and  C_8
REMARK    3  A    between atoms: C_13  and  N_14
REMARK    4  A    between atoms: N_14  and  C_15
REMARK    5  A    between atoms: C_15  and  C_16
REMARK    6  A    between atoms: C_15  and  C_17
REMARK                            x       y       z     vdW  Elec       q    Type
REMARK                         _______ _______ _______ _____ _____    ______ ____
ROOT
ATOM      1  C   UNL     1       4.438   2.951  11.023  0.00  0.00    +0.000 C 
ATOM      2  C   UNL     1       5.245   3.503  12.157  0.00  0.00    +0.000 A 
ATOM      3  C   UNL     1       6.545   4.076  11.824  0.00  0.00    +0.000 A 
ATOM      4  C   UNL     1       7.376   4.518  12.780  0.00  0.00    +0.000 A 
ATOM      5  C   UNL     1       6.974   4.464  14.137  0.00  0.00    +0.000 A 
ATOM      6  N   UNL     1       7.635   4.817  15.202  0.00  0.00    +0.000 NA
ATOM      7  C   UNL     1       6.686   4.912  16.199  0.00  0.00    +0.000 A 
ATOM      8  C   UNL     1       5.483   4.295  15.826  0.00  0.00    +0.000 A 
ATOM      9  N   UNL     1       5.681   4.044  14.446  0.00  0.00    +0.000 N 
ATOM     10  C   UNL     1       4.837   3.522  13.447  0.00  0.00    +0.000 A 
ENDROOT
BRANCH   7  11
ATOM     11  C   UNL     1       7.083   5.820  17.327  0.00  0.00    +0.000 A 
ATOM     12  C   UNL     1       7.460   5.281  18.551  0.00  0.00    +0.000 A 
ATOM     13  C   UNL     1       8.156   6.213  19.365  0.00  0.00    +0.000 A 
ATOM     14  C   UNL     1       8.227   7.451  18.765  0.00  0.00    +0.000 A 
ATOM     15  S   UNL     1       7.401   7.488  17.259  0.00  0.00    +0.000 S 
ENDBRANCH   7  11
BRANCH   8  16
ATOM     16  N   UNL     1       4.261   4.023  16.419  0.00  0.00    +0.000 N 
ATOM     17  H   UNL     1       3.530   3.628  15.835  0.00  0.00    +0.000 HD
BRANCH  16  18
ATOM     18  C   UNL     1       4.117   3.553  17.813  0.00  0.00    +0.000 C 
ATOM     19  C   UNL     1       3.456   2.169  17.840  0.00  0.00    +0.000 C 
BRANCH  18  20
ATOM     20  C   UNL     1       3.320   4.543  18.680  0.00  0.00    +0.000 A 
ATOM     21  C   UNL     1       2.548   4.031  19.742  0.00  0.00    +0.000 A 
ATOM     22  C   UNL     1       1.852   4.877  20.616  0.00  0.00    +0.000 A 
ATOM     23  C   UNL     1       1.889   6.256  20.434  0.00  0.00    +0.000 A 
ATOM     24  C   UNL     1       2.593   6.774  19.351  0.00  0.00    +0.000 A 
ATOM     25  C   UNL     1       3.292   5.932  18.476  0.00  0.00    +0.000 A 
ENDBRANCH  18  20
ENDBRANCH  16  18
ENDBRANCH   8  16
TORSDOF 4
ENDMDL
MODEL 2
REMARK VINA RESULT:      -7.7      2.995      6.297
REMARK  Name = 
REMARK  6 active torsions:
REMARK  status: ('A' for Active; 'I' for Inactive)
REMARK    1  A    between atoms: C_1  and  C_2
REMARK    2  A    between atoms: C_7  and  C_8
REMARK    3  A    between atoms: C_13  and  N_14
REMARK    4  A    between atoms: N_14  and  C_15
REMARK    5  A    between atoms: C_15  and  C_16
REMARK    6  A    between atoms: C_15  and  C_17
REMARK                            x       y       z     vdW  Elec       q    Type
REMARK                         _______ _______ _______ _____ _____    ______ ____
ROOT
ATOM      1  C   UNL     1      -0.023  10.347  20.943  0.00  0.00    +0.000 C 
ATOM      2  C   UNL     1       0.877   9.516  20.083  0.00  0.00    +0.000 A 
ATOM      3  C   UNL     1       1.373  10.134  18.857  0.00  0.00    +0.000 A 
ATOM      4  C   UNL     1       2.116   9.442  17.981  0.00  0.00    +0.000 A 
ATOM      5  C   UNL     1       2.459   8.097  18.262  0.00  0.00    +0.000 A 
ATOM      6  N   UNL     1       3.143   7.257  17.539  0.00  0.00    +0.000 NA
ATOM      7  C   UNL     1       3.498   6.244  18.404  0.00  0.00    +0.000 A 
ATOM      8  C   UNL     1       2.750   6.293  19.590  0.00  0.00    +0.000 A 
ATOM      9  N   UNL     1       2.101   7.548  19.492  0.00  0.00    +0.000 N 
ATOM     10  C   UNL     1       1.269   8.256  20.380  0.00  0.00    +0.000 A 
ENDROOT
BRANCH   7  11
ATOM     11  C   UNL     1       4.720   5.483  17.976  0.00  0.00    +0.000 A 
ATOM     12  C   UNL     1       4.792   4.954  16.693  0.00  0.00    +0.000 A 
ATOM     13  C   UNL     1       6.118   4.611  16.319  0.00  0.00    +0.000 A 
ATOM     14  C   UNL     1       7.004   4.825  17.353  0.00  0.00    +0.000 A 
ATOM     15  S   UNL     1       6.215   5.377  18.776  0.00  0.00    +0.000 S 
ENDBRANCH   7  11
BRANCH   8  16
ATOM     16  N   UNL     1       2.623   5.525  20.737  0.00  0.00    +0.000 N 
ATOM     17  H   UNL     1       2.484   6.011  21.617  0.00  0.00    +0.000 HD
BRANCH  16  18
ATOM     18  C   UNL     1       1.958   4.206  20.765  0.00  0.00    +0.000 C 
ATOM     19  C   UNL     1       2.028   3.608  22.176  0.00  0.00    +0.000 C 
BRANCH  18  20
ATOM     20  C   UNL     1       2.562   3.229  19.742  0.00  0.00    +0.000 A 
ATOM     21  C   UNL     1       1.860   2.998  18.542  0.00  0.00    +0.000 A 
ATOM     22  C   UNL     1       2.382   2.176  17.534  0.00  0.00    +0.000 A 
ATOM     23  C   UNL     1       3.609   1.545  17.711  0.00  0.00    +0.000 A 
ATOM     24  C   UNL     1       4.285   1.710  18.916  0.00  0.00    +0.000 A 
ATOM     25  C   UNL     1       3.767   2.532  19.926  0.00  0.00    +0.000 A 
ENDBRANCH  18  20
ENDBRANCH  16  18
ENDBRANCH   8  16
TORSDOF 4
ENDMDL
MODEL 3
REMARK VINA RESULT:      -7.4      3.280      6.266
REMARK  Name = 
REMARK  6 active torsions:
REMARK  status: ('A' for Active; 'I' for Inactive)
REMARK    1  A    between atoms: C_1  and  C_2
REMARK    2  A    between atoms: C_7  and  C_8
REMARK    3  A    between atoms: C_13  and  N_14
REMARK    4  A    between atoms: N_14  and  C_15
REMARK    5  A    between atoms: C_15  and  C_16
REMARK    6  A    between atoms: C_15  and  C_17
REMARK                            x       y       z     vdW  Elec       q    Type
REMARK                         _______ _______ _______ _____ _____    ______ ____
ROOT
ATOM      1  C   UNL     1      -0.172  10.349  20.961  0.00  0.00    +0.000 C 
ATOM      2  C   UNL     1       0.745   9.690  19.979  0.00  0.00    +0.000 A 
ATOM      3  C   UNL     1       1.047  10.431  18.758  0.00  0.00    +0.000 A 
ATOM      4  C   UNL     1       1.790   9.889  17.782  0.00  0.00    +0.000 A 
ATOM      5  C   UNL     1       2.325   8.589  17.949  0.00  0.00    +0.000 A 
ATOM      6  N   UNL     1       3.042   7.885  17.120  0.00  0.00    +0.000 NA
ATOM      7  C   UNL     1       3.599   6.883  17.887  0.00  0.00    +0.000 A 
ATOM      8  C   UNL     1       2.960   6.772  19.131  0.00  0.00    +0.000 A 
ATOM      9  N   UNL     1       2.151   7.934  19.167  0.00  0.00    +0.000 N 
ATOM     10  C   UNL     1       1.319   8.479  20.163  0.00  0.00    +0.000 A 
ENDROOT
BRANCH   7  11
ATOM     11  C   UNL     1       4.864   6.314  17.313  0.00  0.00    +0.000 A 
ATOM     12  C   UNL     1       6.062   7.002  17.459  0.00  0.00    +0.000 A 
ATOM     13  C   UNL     1       7.195   6.181  17.213  0.00  0.00    +0.000 A 
ATOM     14  C   UNL     1       6.822   4.914  16.821  0.00  0.00    +0.000 A 
ATOM     15  S   UNL     1       5.116   4.751  16.695  0.00  0.00    +0.000 S 
ENDBRANCH   7  11
BRANCH   8  16
ATOM     16  N   UNL     1       3.034   5.936  20.234  0.00  0.00    +0.000 N 
ATOM     17  H   UNL     1       3.212   6.361  21.138  0.00  0.00    +0.000 HD
BRANCH  16  18
ATOM     18  C   UNL     1       2.213   4.717  20.390  0.00  0.00    +0.000 C 
ATOM     19  C   UNL     1       2.228   4.252  21.851  0.00  0.00    +0.000 C 
BRANCH  18  20
ATOM     20  C   UNL     1       2.678   3.581  19.463  0.00  0.00    +0.000 A 
ATOM     21  C   UNL     1       3.827   2.850  19.824  0.00  0.00    +0.000 A 
ATOM     22  C   UNL     1       4.270   1.757  19.067  0.00  0.00    +0.000 A 
ATOM     23  C   UNL     1       3.588   1.384  17.913  0.00  0.00    +0.000 A 
ATOM     24  C   UNL     1       2.489   2.135  17.505  0.00  0.00    +0.000 A 
ATOM     25  C   UNL     1       2.043   3.227  18.261  0.00  0.00    +0.000 A 
ENDBRANCH  18  20
ENDBRANCH  16  18
ENDBRANCH   8  16
TORSDOF 4
ENDMDL
MODEL 4
REMARK VINA RESULT:      -7.2      3.386      4.998
REMARK  Name = 
REMARK  6 active torsions:
REMARK  status: ('A' for Active; 'I' for Inactive)
REMARK    1  A    between atoms: C_1  and  C_2
REMARK    2  A    between atoms: C_7  and  C_8
REMARK    3  A    between atoms: C_13  and  N_14
REMARK    4  A    between atoms: N_14  and  C_15
REMARK    5  A    between atoms: C_15  and  C_16
REMARK    6  A    between atoms: C_15  and  C_17
REMARK                            x       y       z     vdW  Elec       q    Type
REMARK                         _______ _______ _______ _____ _____    ______ ____
ROOT
ATOM      1  C   UNL     1       0.266   2.136  18.803  0.00  0.00    +0.000 C 
ATOM      2  C   UNL     1       1.667   2.654  18.699  0.00  0.00    +0.000 A 
ATOM      3  C   UNL     1       2.640   1.794  18.033  0.00  0.00    +0.000 A 
ATOM      4  C   UNL     1       3.936   2.133  17.966  0.00  0.00    +0.000 A 
ATOM      5  C   UNL     1       4.367   3.364  18.519  0.00  0.00    +0.000 A 
ATOM      6  N   UNL     1       5.571   3.859  18.577  0.00  0.00    +0.000 NA
ATOM      7  C   UNL     1       5.395   5.197  18.863  0.00  0.00    +0.000 A 
ATOM      8  C   UNL     1       4.092   5.462  19.310  0.00  0.00    +0.000 A 
ATOM      9  N   UNL     1       3.420   4.246  19.034  0.00  0.00    +0.000 N 
ATOM     10  C   UNL     1       2.072   3.860  19.159  0.00  0.00    +0.000 A 
ENDROOT
BRANCH   7  11
ATOM     11  C   UNL     1       6.542   6.064  18.429  0.00  0.00    +0.000 A 
ATOM     12  C   UNL     1       6.360   6.999  17.418  0.00  0.00    +0.000 A 
ATOM     13  C   UNL     1       7.391   7.976  17.388  0.00  0.00    +0.000 A 
ATOM     14  C   UNL     1       8.360   7.714  18.332  0.00  0.00    +0.000 A 
ATOM     15  S   UNL     1       8.045   6.263  19.197  0.00  0.00    +0.000 S 
ENDBRANCH   7  11
BRANCH   8  16
ATOM     16  N   UNL     1       3.392   6.557  19.791  0.00  0.00    +0.000 N 
ATOM     17  H   UNL     1       3.885   7.202  20.400  0.00  0.00    +0.000 HD
BRANCH  16  18
ATOM     18  C   UNL     1       2.358   7.270  19.012  0.00  0.00    +0.000 C 
ATOM     19  C   UNL     1       2.997   7.982  17.813  0.00  0.00    +0.000 C 
BRANCH  18  20
ATOM     20  C   UNL     1       1.573   8.274  19.873  0.00  0.00    +0.000 A 
ATOM     21  C   UNL     1       1.096   9.451  19.262  0.00  0.00    +0.000 A 
ATOM     22  C   UNL     1       0.314  10.377  19.964  0.00  0.00    +0.000 A 
ATOM     23  C   UNL     1       0.010  10.162  21.305  0.00  0.00    +0.000 A 
ATOM     24  C   UNL     1       0.526   9.038  21.942  0.00  0.00    +0.000 A 
ATOM     25  C   UNL     1       1.308   8.108  21.242  0.00  0.00    +0.000 A 
ENDBRANCH  18  20
ENDBRANCH  16  18
ENDBRANCH   8  16
TORSDOF 4
ENDMDL
MODEL 5
REMARK VINA RESULT:      -7.2      1.060      1.553
REMARK  Name = 
REMARK  6 active torsions:
REMARK  status: ('A' for Active; 'I' for Inactive)
REMARK    1  A    between atoms: C_1  and  C_2
REMARK    2  A    between atoms: C_7  and  C_8
REMARK    3  A    between atoms: C_13  and  N_14
REMARK    4  A    between atoms: N_14  and  C_15
REMARK    5  A    between atoms: C_15  and  C_16
REMARK    6  A    between atoms: C_15  and  C_17
REMARK                            x       y       z     vdW  Elec       q    Type
REMARK                         _______ _______ _______ _____ _____    ______ ____
ROOT
ATOM      1  C   UNL     1       4.640   2.873  11.121  0.00  0.00    +0.000 C 
ATOM      2  C   UNL     1       5.428   3.506  12.225  0.00  0.00    +0.000 A 
ATOM      3  C   UNL     1       6.557   4.344  11.833  0.00  0.00    +0.000 A 
ATOM      4  C   UNL     1       7.373   4.884  12.751  0.00  0.00    +0.000 A 
ATOM      5  C   UNL     1       7.118   4.671  14.127  0.00  0.00    +0.000 A 
ATOM      6  N   UNL     1       7.796   5.084  15.160  0.00  0.00    +0.000 NA
ATOM      7  C   UNL     1       6.945   4.929  16.234  0.00  0.00    +0.000 A 
ATOM      8  C   UNL     1       5.854   4.109  15.913  0.00  0.00    +0.000 A 
ATOM      9  N   UNL     1       5.966   3.985  14.506  0.00  0.00    +0.000 N 
ATOM     10  C   UNL     1       5.148   3.367  13.541  0.00  0.00    +0.000 A 
ENDROOT
BRANCH   7  11
ATOM     11  C   UNL     1       7.264   5.829  17.393  0.00  0.00    +0.000 A 
ATOM     12  C   UNL     1       7.631   5.280  18.615  0.00  0.00    +0.000 A 
ATOM     13  C   UNL     1       8.257   6.226  19.471  0.00  0.00    +0.000 A 
ATOM     14  C   UNL     1       8.285   7.480  18.900  0.00  0.00    +0.000 A 
ATOM     15  S   UNL     1       7.503   7.512  17.370  0.00  0.00    +0.000 S 
ENDBRANCH   7  11
BRANCH   8  16
ATOM     16  N   UNL     1       4.767   3.565  16.580  0.00  0.00    +0.000 N 
ATOM     17  H   UNL     1       4.942   2.798  17.221  0.00  0.00    +0.000 HD
BRANCH  16  18
ATOM     18  C   UNL     1       3.607   4.361  17.032  0.00  0.00    +0.000 C 
ATOM     19  C   UNL     1       3.997   5.839  17.159  0.00  0.00    +0.000 C 
BRANCH  18  20
ATOM     20  C   UNL     1       3.033   3.845  18.363  0.00  0.00    +0.000 A 
ATOM     21  C   UNL     1       3.845   3.021  19.168  0.00  0.00    +0.000 A 
ATOM     22  C   UNL     1       3.416   2.571  20.424  0.00  0.00    +0.000 A 
ATOM     23  C   UNL     1       2.152   2.912  20.895  0.00  0.00    +0.000 A 
ATOM     24  C   UNL     1       1.312   3.670  20.085  0.00  0.00    +0.000 A 
ATOM     25  C   UNL     1       1.738   4.124  18.830  0.00  0.00    +0.000 A 
ENDBRANCH  18  20
ENDBRANCH  16  18
ENDBRANCH   8  16
TORSDOF 4
ENDMDL
MODEL 6
REMARK VINA RESULT:      -7.0      3.600      5.741
REMARK  Name = 
REMARK  6 active torsions:
REMARK  status: ('A' for Active; 'I' for Inactive)
REMARK    1  A    between atoms: C_1  and  C_2
REMARK    2  A    between atoms: C_7  and  C_8
REMARK    3  A    between atoms: C_13  and  N_14
REMARK    4  A    between atoms: N_14  and  C_15
REMARK    5  A    between atoms: C_15  and  C_16
REMARK    6  A    between atoms: C_15  and  C_17
REMARK                            x       y       z     vdW  Elec       q    Type
REMARK                         _______ _______ _______ _____ _____    ______ ____
ROOT
ATOM      1  C   UNL     1       7.889   8.388  17.441  0.00  0.00    +0.000 C 
ATOM      2  C   UNL     1       7.047   7.173  17.678  0.00  0.00    +0.000 A 
ATOM      3  C   UNL     1       7.749   5.901  17.818  0.00  0.00    +0.000 A 
ATOM      4  C   UNL     1       7.077   4.747  17.948  0.00  0.00    +0.000 A 
ATOM      5  C   UNL     1       5.661   4.762  17.987  0.00  0.00    +0.000 A 
ATOM      6  N   UNL     1       4.834   3.760  18.082  0.00  0.00    +0.000 NA
ATOM      7  C   UNL     1       3.628   4.324  18.446  0.00  0.00    +0.000 A 
ATOM      8  C   UNL     1       3.629   5.713  18.252  0.00  0.00    +0.000 A 
ATOM      9  N   UNL     1       4.994   5.986  17.989  0.00  0.00    +0.000 N 
ATOM     10  C   UNL     1       5.699   7.188  17.789  0.00  0.00    +0.000 A 
ENDROOT
BRANCH   7  11
ATOM     11  C   UNL     1       2.704   3.373  19.150  0.00  0.00    +0.000 A 
ATOM     12  C   UNL     1       2.936   3.039  20.479  0.00  0.00    +0.000 A 
ATOM     13  C   UNL     1       1.799   2.457  21.100  0.00  0.00    +0.000 A 
ATOM     14  C   UNL     1       0.761   2.303  20.207  0.00  0.00    +0.000 A 
ATOM     15  S   UNL     1       1.193   2.804  18.621  0.00  0.00    +0.000 S 
ENDBRANCH   7  11
BRANCH   8  16
ATOM     16  N   UNL     1       2.717   6.750  18.365  0.00  0.00    +0.000 N 
ATOM     17  H   UNL     1       1.915   6.744  17.742  0.00  0.00    +0.000 HD
BRANCH  16  18
ATOM     18  C   UNL     1       2.367   7.390  19.650  0.00  0.00    +0.000 C 
ATOM     19  C   UNL     1       1.702   6.372  20.585  0.00  0.00    +0.000 C 
BRANCH  18  20
ATOM     20  C   UNL     1       1.455   8.615  19.459  0.00  0.00    +0.000 A 
ATOM     21  C   UNL     1       1.357   9.182  18.172  0.00  0.00    +0.000 A 
ATOM     22  C   UNL     1       0.494  10.253  17.907  0.00  0.00    +0.000 A 
ATOM     23  C   UNL     1      -0.274  10.802  18.930  0.00  0.00    +0.000 A 
ATOM     24  C   UNL     1      -0.141  10.297  20.219  0.00  0.00    +0.000 A 
ATOM     25  C   UNL     1       0.720   9.225  20.488  0.00  0.00    +0.000 A 
ENDBRANCH  18  20
ENDBRANCH  16  18
ENDBRANCH   8  16
TORSDOF 4
ENDMDL
MODEL 7
REMARK VINA RESULT:      -6.9      3.250      5.930
REMARK  Name = 
REMARK  6 active torsions:
REMARK  status: ('A' for Active; 'I' for Inactive)
REMARK    1  A    between atoms: C_1  and  C_2
REMARK    2  A    between atoms: C_7  and  C_8
REMARK    3  A    between atoms: C_13  and  N_14
REMARK    4  A    between atoms: N_14  and  C_15
REMARK    5  A    between atoms: C_15  and  C_16
REMARK    6  A    between atoms: C_15  and  C_17
REMARK                            x       y       z     vdW  Elec       q    Type
REMARK                         _______ _______ _______ _____ _____    ______ ____
ROOT
ATOM      1  C   UNL     1       8.016   8.231  17.411  0.00  0.00    +0.000 C 
ATOM      2  C   UNL     1       6.904   7.229  17.424  0.00  0.00    +0.000 A 
ATOM      3  C   UNL     1       7.189   5.920  16.845  0.00  0.00    +0.000 A 
ATOM      4  C   UNL     1       6.233   4.985  16.735  0.00  0.00    +0.000 A 
ATOM      5  C   UNL     1       4.931   5.256  17.219  0.00  0.00    +0.000 A 
ATOM      6  N   UNL     1       3.870   4.500  17.185  0.00  0.00    +0.000 NA
ATOM      7  C   UNL     1       2.998   5.063  18.094  0.00  0.00    +0.000 A 
ATOM      8  C   UNL     1       3.391   6.362  18.448  0.00  0.00    +0.000 A 
ATOM      9  N   UNL     1       4.691   6.452  17.893  0.00  0.00    +0.000 N 
ATOM     10  C   UNL     1       5.679   7.454  17.951  0.00  0.00    +0.000 A 
ENDROOT
BRANCH   7  11
ATOM     11  C   UNL     1       1.986   4.097  18.639  0.00  0.00    +0.000 A 
ATOM     12  C   UNL     1       1.792   2.872  18.014  0.00  0.00    +0.000 A 
ATOM     13  C   UNL     1       1.108   1.941  18.842  0.00  0.00    +0.000 A 
ATOM     14  C   UNL     1       0.743   2.509  20.042  0.00  0.00    +0.000 A 
ATOM     15  S   UNL     1       1.174   4.171  20.130  0.00  0.00    +0.000 S 
ENDBRANCH   7  11
BRANCH   8  16
ATOM     16  N   UNL     1       2.888   7.394  19.225  0.00  0.00    +0.000 N 
ATOM     17  H   UNL     1       3.551   7.957  19.749  0.00  0.00    +0.000 HD
BRANCH  16  18
ATOM     18  C   UNL     1       1.711   8.202  18.844  0.00  0.00    +0.000 C 
ATOM     19  C   UNL     1       2.087   9.193  17.735  0.00  0.00    +0.000 C 
BRANCH  18  20
ATOM     20  C   UNL     1       1.107   8.949  20.045  0.00  0.00    +0.000 A 
ATOM     21  C   UNL     1       0.772  10.310  19.888  0.00  0.00    +0.000 A 
ATOM     22  C   UNL     1       0.154  11.036  20.914  0.00  0.00    +0.000 A 
ATOM     23  C   UNL     1      -0.122  10.426  22.134  0.00  0.00    +0.000 A 
ATOM     24  C   UNL     1       0.261   9.103  22.329  0.00  0.00    +0.000 A 
ATOM     25  C   UNL     1       0.878   8.373  21.304  0.00  0.00    +0.000 A 
ENDBRANCH  18  20
ENDBRANCH  16  18
ENDBRANCH   8  16
TORSDOF 4
ENDMDL
MODEL 8
REMARK VINA RESULT:      -6.8      3.388      5.762
REMARK  Name = 
REMARK  6 active torsions:
REMARK  status: ('A' for Active; 'I' for Inactive)
REMARK    1  A    between atoms: C_1  and  C_2
REMARK    2  A    between atoms: C_7  and  C_8
REMARK    3  A    between atoms: C_13  and  N_14
REMARK    4  A    between atoms: N_14  and  C_15
REMARK    5  A    between atoms: C_15  and  C_16
REMARK    6  A    between atoms: C_15  and  C_17
REMARK                            x       y       z     vdW  Elec       q    Type
REMARK                         _______ _______ _______ _____ _____    ______ ____
ROOT
ATOM      1  C   UNL     1       7.959   8.597  17.575  0.00  0.00    +0.000 C 
ATOM      2  C   UNL     1       7.098   7.374  17.636  0.00  0.00    +0.000 A 
ATOM      3  C   UNL     1       7.784   6.085  17.658  0.00  0.00    +0.000 A 
ATOM      4  C   UNL     1       7.098   4.933  17.627  0.00  0.00    +0.000 A 
ATOM      5  C   UNL     1       5.683   4.960  17.610  0.00  0.00    +0.000 A 
ATOM      6  N   UNL     1       4.844   3.964  17.557  0.00  0.00    +0.000 NA
ATOM      7  C   UNL     1       3.629   4.497  17.933  0.00  0.00    +0.000 A 
ATOM      8  C   UNL     1       3.649   5.899  17.900  0.00  0.00    +0.000 A 
ATOM      9  N   UNL     1       5.025   6.183  17.725  0.00  0.00    +0.000 N 
ATOM     10  C   UNL     1       5.747   7.392  17.694  0.00  0.00    +0.000 A 
ENDROOT
BRANCH   7  11
ATOM     11  C   UNL     1       2.669   3.483  18.485  0.00  0.00    +0.000 A 
ATOM     12  C   UNL     1       1.303   3.734  18.454  0.00  0.00    +0.000 A 
ATOM     13  C   UNL     1       0.529   2.559  18.649  0.00  0.00    +0.000 A 
ATOM     14  C   UNL     1       1.329   1.464  18.891  0.00  0.00    +0.000 A 
ATOM     15  S   UNL     1       2.996   1.879  18.941  0.00  0.00    +0.000 S 
ENDBRANCH   7  11
BRANCH   8  16
ATOM     16  N   UNL     1       2.740   6.927  18.094  0.00  0.00    +0.000 N 
ATOM     17  H   UNL     1       1.890   6.918  17.539  0.00  0.00    +0.000 HD
BRANCH  16  18
ATOM     18  C   UNL     1       2.492   7.558  19.407  0.00  0.00    +0.000 C 
ATOM     19  C   UNL     1       2.086   6.496  20.436  0.00  0.00    +0.000 C 
BRANCH  18  20
ATOM     20  C   UNL     1       1.422   8.661  19.328  0.00  0.00    +0.000 A 
ATOM     21  C   UNL     1       1.100   9.192  18.063  0.00  0.00    +0.000 A 
ATOM     22  C   UNL     1       0.087  10.148  17.905  0.00  0.00    +0.000 A 
ATOM     23  C   UNL     1      -0.611  10.616  19.014  0.00  0.00    +0.000 A 
ATOM     24  C   UNL     1      -0.262  10.151  20.278  0.00  0.00    +0.000 A 
ATOM     25  C   UNL     1       0.748   9.194  20.439  0.00  0.00    +0.000 A 
ENDBRANCH  18  20
ENDBRANCH  16  18
ENDBRANCH   8  16
TORSDOF 4
ENDMDL
MODEL 9
REMARK VINA RESULT:      -6.8      6.254      9.443
REMARK  Name = 
REMARK  6 active torsions:
REMARK  status: ('A' for Active; 'I' for Inactive)
REMARK    1  A    between atoms: C_1  and  C_2
REMARK    2  A    between atoms: C_7  and  C_8
REMARK    3  A    between atoms: C_13  and  N_14
REMARK    4  A    between atoms: N_14  and  C_15
REMARK    5  A    between atoms: C_15  and  C_16
REMARK    6  A    between atoms: C_15  and  C_17
REMARK                            x       y       z     vdW  Elec       q    Type
REMARK                         _______ _______ _______ _____ _____    ______ ____
ROOT
ATOM      1  C   UNL     1      -3.827  10.026  14.114  0.00  0.00    +0.000 C 
ATOM      2  C   UNL     1      -3.413  10.406  15.502  0.00  0.00    +0.000 A 
ATOM      3  C   UNL     1      -4.396  11.122  16.310  0.00  0.00    +0.000 A 
ATOM      4  C   UNL     1      -4.089  11.578  17.534  0.00  0.00    +0.000 A 
ATOM      5  C   UNL     1      -2.802  11.333  18.070  0.00  0.00    +0.000 A 
ATOM      6  N   UNL     1      -2.307  11.708  19.216  0.00  0.00    +0.000 NA
ATOM      7  C   UNL     1      -1.191  10.917  19.401  0.00  0.00    +0.000 A 
ATOM      8  C   UNL     1      -0.808  10.281  18.211  0.00  0.00    +0.000 A 
ATOM      9  N   UNL     1      -1.909  10.535  17.357  0.00  0.00    +0.000 N 
ATOM     10  C   UNL     1      -2.211  10.112  16.049  0.00  0.00    +0.000 A 
ENDROOT
BRANCH   7  11
ATOM     11  C   UNL     1      -0.796  10.757  20.840  0.00  0.00    +0.000 A 
ATOM     12  C   UNL     1      -1.233  11.678  21.785  0.00  0.00    +0.000 A 
ATOM     13  C   UNL     1      -1.106  11.195  23.115  0.00  0.00    +0.000 A 
ATOM     14  C   UNL     1      -0.513   9.952  23.144  0.00  0.00    +0.000 A 
ATOM     15  S   UNL     1      -0.063   9.413  21.576  0.00  0.00    +0.000 S 
ENDBRANCH   7  11
BRANCH   8  16
ATOM     16  N   UNL     1       0.230   9.464  17.791  0.00  0.00    +0.000 N 
ATOM     17  H   UNL     1       0.304   9.267  16.798  0.00  0.00    +0.000 HD
BRANCH  16  18
ATOM     18  C   UNL     1       1.568   9.458  18.420  0.00  0.00    +0.000 C 
ATOM     19  C   UNL     1       2.407  10.628  17.889  0.00  0.00    +0.000 C 
BRANCH  18  20
ATOM     20  C   UNL     1       2.307   8.127  18.198  0.00  0.00    +0.000 A 
ATOM     21  C   UNL     1       3.462   8.129  17.391  0.00  0.00    +0.000 A 
ATOM     22  C   UNL     1       4.227   6.970  17.202  0.00  0.00    +0.000 A 
ATOM     23  C   UNL     1       3.839   5.773  17.795  0.00  0.00    +0.000 A 
ATOM     24  C   UNL     1       2.666   5.737  18.541  0.00  0.00    +0.000 A 
ATOM     25  C   UNL     1       1.900   6.895  18.734  0.00  0.00    +0.000 A 
ENDBRANCH  18  20
ENDBRANCH  16  18
ENDBRANCH   8  16
TORSDOF 4
ENDMDL
