MODEL 1
REMARK VINA RESULT:      -8.8      0.000      0.000
REMARK  Name = 
REMARK  7 active torsions:
REMARK  status: ('A' for Active; 'I' for Inactive)
REMARK    1  A    between atoms: N_1  and  C_2
REMARK    2  A    between atoms: C_2  and  C_3
REMARK    3  A    between atoms: C_2  and  C_11
REMARK    4  A    between atoms: C_11  and  C_12
REMARK    5  A    between atoms: C_11  and  C_18
REMARK    6  A    between atoms: C_12  and  N_13
REMARK    7  A    between atoms: C_21  and  C_22
REMARK                            x       y       z     vdW  Elec       q    Type
REMARK                         _______ _______ _______ _____ _____    ______ ____
ROOT
ATOM      1  C   UNL     1       4.772   4.334  18.199  0.00  0.00    +0.000 C 
ENDROOT
BRANCH   1   2
ATOM      2  C   UNL     1       3.948   5.594  18.554  0.00  0.00    +0.000 A 
ATOM      3  C   UNL     1       3.290   5.706  19.786  0.00  0.00    +0.000 A 
ATOM      4  C   UNL     1       2.436   6.793  20.050  0.00  0.00    +0.000 A 
ATOM      5  C   UNL     1       2.205   7.795  19.092  0.00  0.00    +0.000 A 
ATOM      6  C   UNL     1       2.920   7.701  17.886  0.00  0.00    +0.000 A 
ATOM      7  C   UNL     1       3.789   6.645  17.638  0.00  0.00    +0.000 A 
BRANCH   5   8
ATOM      8  C   UNL     1       1.267   8.920  19.300  0.00  0.00    +0.000 A 
ATOM      9  C   UNL     1       0.830   9.722  18.233  0.00  0.00    +0.000 A 
ATOM     10  C   UNL     1      -0.111  10.738  18.434  0.00  0.00    +0.000 A 
ATOM     11  C   UNL     1      -0.625  10.964  19.703  0.00  0.00    +0.000 A 
ATOM     12  F   UNL     1      -1.546  11.929  19.877  0.00  0.00    +0.000 F 
ATOM     13  C   UNL     1      -0.202  10.213  20.780  0.00  0.00    +0.000 A 
ATOM     14  C   UNL     1       0.743   9.207  20.581  0.00  0.00    +0.000 A 
ENDBRANCH   5   8
ENDBRANCH   1   2
BRANCH   1  15
ATOM     15  C   UNL     1       6.313   4.655  18.017  0.00  0.00    +0.000 C 
BRANCH  15  16
ATOM     16  C   UNL     1       6.752   5.494  16.773  0.00  0.00    +0.000 C 
ATOM     17  O   UNL     1       7.215   6.629  16.889  0.00  0.00    +0.000 OA
ATOM     18  N   UNL     1       6.727   4.832  15.540  0.00  0.00    +0.000 N 
ATOM     19  C   UNL     1       7.317   5.403  14.338  0.00  0.00    +0.000 C 
ATOM     20  C   UNL     1       7.100   4.372  13.230  0.00  0.00    +0.000 C 
ATOM     21  C   UNL     1       5.893   3.591  13.718  0.00  0.00    +0.000 C 
ATOM     22  F   UNL     1       4.768   4.302  13.431  0.00  0.00    +0.000 F 
ATOM     23  C   UNL     1       6.094   3.548  15.229  0.00  0.00    +0.000 C 
ENDBRANCH  15  16
BRANCH  15  24
ATOM     24  N   UNL     1       6.801   5.481  19.186  0.00  0.00    +0.000 NA
ATOM     25  H   UNL     1       7.163   4.871  19.917  0.00  0.00    +0.000 HD
ATOM     26  H   UNL     1       5.974   5.909  19.611  0.00  0.00    +0.000 HD
ENDBRANCH  15  24
ENDBRANCH   1  15
BRANCH   1  27
ATOM     27  C   UNL     1       4.335   3.098  19.070  0.00  0.00    +0.000 C 
BRANCH  27  28
ATOM     28  N   UNL     1       3.233   2.173  18.707  0.00  0.00    +0.000 NA
ATOM     29  C   UNL     1       2.591   2.630  17.443  0.00  0.00    +0.000 C 
ATOM     30  C   UNL     1       1.402   3.482  17.857  0.00  0.00    +0.000 C 
ATOM     31  C   UNL     1       0.879   2.734  19.058  0.00  0.00    +0.000 C 
ATOM     32  C   UNL     1       2.121   2.091  19.673  0.00  0.00    +0.000 C 
ENDBRANCH  27  28
ENDBRANCH   1  27
TORSDOF 7
ENDMDL
MODEL 2
REMARK VINA RESULT:      -8.6      2.646      5.150
REMARK  Name = 
REMARK  7 active torsions:
REMARK  status: ('A' for Active; 'I' for Inactive)
REMARK    1  A    between atoms: N_1  and  C_2
REMARK    2  A    between atoms: C_2  and  C_3
REMARK    3  A    between atoms: C_2  and  C_11
REMARK    4  A    between atoms: C_11  and  C_12
REMARK    5  A    between atoms: C_11  and  C_18
REMARK    6  A    between atoms: C_12  and  N_13
REMARK    7  A    between atoms: C_21  and  C_22
REMARK                            x       y       z     vdW  Elec       q    Type
REMARK                         _______ _______ _______ _____ _____    ______ ____
ROOT
ATOM      1  C   UNL     1       4.452   5.889  17.753  0.00  0.00    +0.000 C 
ENDROOT
BRANCH   1   2
ATOM      2  C   UNL     1       3.336   6.842  18.242  0.00  0.00    +0.000 A 
ATOM      3  C   UNL     1       2.821   7.845  17.409  0.00  0.00    +0.000 A 
ATOM      4  C   UNL     1       1.903   8.789  17.902  0.00  0.00    +0.000 A 
ATOM      5  C   UNL     1       1.477   8.770  19.241  0.00  0.00    +0.000 A 
ATOM      6  C   UNL     1       1.953   7.723  20.047  0.00  0.00    +0.000 A 
ATOM      7  C   UNL     1       2.835   6.768  19.551  0.00  0.00    +0.000 A 
BRANCH   5   8
ATOM      8  C   UNL     1       0.564   9.780  19.820  0.00  0.00    +0.000 A 
ATOM      9  C   UNL     1      -0.270  10.569  19.011  0.00  0.00    +0.000 A 
ATOM     10  C   UNL     1      -1.179  11.470  19.576  0.00  0.00    +0.000 A 
ATOM     11  C   UNL     1      -1.264  11.595  20.956  0.00  0.00    +0.000 A 
ATOM     12  F   UNL     1      -2.158  12.449  21.485  0.00  0.00    +0.000 F 
ATOM     13  C   UNL     1      -0.444  10.855  21.782  0.00  0.00    +0.000 A 
ATOM     14  C   UNL     1       0.468   9.964  21.218  0.00  0.00    +0.000 A 
ENDBRANCH   5   8
ENDBRANCH   1   2
BRANCH   1  15
ATOM     15  C   UNL     1       3.931   4.407  17.552  0.00  0.00    +0.000 C 
BRANCH  15  16
ATOM     16  C   UNL     1       2.465   4.073  17.980  0.00  0.00    +0.000 C 
ATOM     17  O   UNL     1       1.516   4.225  17.209  0.00  0.00    +0.000 OA
ATOM     18  N   UNL     1       2.309   3.457  19.226  0.00  0.00    +0.000 N 
ATOM     19  C   UNL     1       1.041   2.885  19.659  0.00  0.00    +0.000 C 
ATOM     20  C   UNL     1       1.295   2.299  21.049  0.00  0.00    +0.000 C 
ATOM     21  C   UNL     1       2.480   3.103  21.551  0.00  0.00    +0.000 C 
ATOM     22  F   UNL     1       2.030   4.302  22.015  0.00  0.00    +0.000 F 
ATOM     23  C   UNL     1       3.308   3.327  20.290  0.00  0.00    +0.000 C 
ENDBRANCH  15  16
BRANCH  15  24
ATOM     24  N   UNL     1       3.955   4.055  16.081  0.00  0.00    +0.000 NA
ATOM     25  H   UNL     1       3.175   3.439  15.857  0.00  0.00    +0.000 HD
ATOM     26  H   UNL     1       4.780   3.468  15.931  0.00  0.00    +0.000 HD
ENDBRANCH  15  24
ENDBRANCH   1  15
BRANCH   1  27
ATOM     27  C   UNL     1       5.331   6.562  16.635  0.00  0.00    +0.000 C 
BRANCH  27  28
ATOM     28  N   UNL     1       6.815   6.554  16.626  0.00  0.00    +0.000 NA
ATOM     29  C   UNL     1       7.313   5.283  17.221  0.00  0.00    +0.000 C 
ATOM     30  C   UNL     1       7.573   5.578  18.689  0.00  0.00    +0.000 C 
ATOM     31  C   UNL     1       8.142   6.974  18.636  0.00  0.00    +0.000 C 
ATOM     32  C   UNL     1       7.466   7.611  17.423  0.00  0.00    +0.000 C 
ENDBRANCH  27  28
ENDBRANCH   1  27
TORSDOF 7
ENDMDL
MODEL 3
REMARK VINA RESULT:      -8.5      2.618      5.140
REMARK  Name = 
REMARK  7 active torsions:
REMARK  status: ('A' for Active; 'I' for Inactive)
REMARK    1  A    between atoms: N_1  and  C_2
REMARK    2  A    between atoms: C_2  and  C_3
REMARK    3  A    between atoms: C_2  and  C_11
REMARK    4  A    between atoms: C_11  and  C_12
REMARK    5  A    between atoms: C_11  and  C_18
REMARK    6  A    between atoms: C_12  and  N_13
REMARK    7  A    between atoms: C_21  and  C_22
REMARK                            x       y       z     vdW  Elec       q    Type
REMARK                         _______ _______ _______ _____ _____    ______ ____
ROOT
ATOM      1  C   UNL     1       4.507   5.549  17.637  0.00  0.00    +0.000 C 
ENDROOT
BRANCH   1   2
ATOM      2  C   UNL     1       3.578   6.667  18.166  0.00  0.00    +0.000 A 
ATOM      3  C   UNL     1       3.058   6.623  19.466  0.00  0.00    +0.000 A 
ATOM      4  C   UNL     1       2.111   7.571  19.895  0.00  0.00    +0.000 A 
ATOM      5  C   UNL     1       1.646   8.584  19.039  0.00  0.00    +0.000 A 
ATOM      6  C   UNL     1       2.222   8.652  17.760  0.00  0.00    +0.000 A 
ATOM      7  C   UNL     1       3.183   7.736  17.347  0.00  0.00    +0.000 A 
BRANCH   5   8
ATOM      8  C   UNL     1       0.605   9.561  19.425  0.00  0.00    +0.000 A 
ATOM      9  C   UNL     1       0.381   9.909  20.767  0.00  0.00    +0.000 A 
ATOM     10  C   UNL     1      -0.559  10.886  21.112  0.00  0.00    +0.000 A 
ATOM     11  C   UNL     1      -1.287  11.527  20.119  0.00  0.00    +0.000 A 
ATOM     12  F   UNL     1      -2.171  12.481  20.463  0.00  0.00    +0.000 F 
ATOM     13  C   UNL     1      -1.113  11.195  18.791  0.00  0.00    +0.000 A 
ATOM     14  C   UNL     1      -0.183  10.215  18.450  0.00  0.00    +0.000 A 
ENDBRANCH   5   8
ENDBRANCH   1   2
BRANCH   1  15
ATOM     15  C   UNL     1       3.761   4.157  17.510  0.00  0.00    +0.000 C 
BRANCH  15  16
ATOM     16  C   UNL     1       2.306   4.044  18.069  0.00  0.00    +0.000 C 
ATOM     17  O   UNL     1       1.325   4.337  17.383  0.00  0.00    +0.000 OA
ATOM     18  N   UNL     1       2.171   3.456  19.331  0.00  0.00    +0.000 N 
ATOM     19  C   UNL     1       0.876   3.077  19.880  0.00  0.00    +0.000 C 
ATOM     20  C   UNL     1       1.162   2.458  21.249  0.00  0.00    +0.000 C 
ATOM     21  C   UNL     1       2.494   3.078  21.636  0.00  0.00    +0.000 C 
ATOM     22  F   UNL     1       2.268   4.329  22.123  0.00  0.00    +0.000 F 
ATOM     23  C   UNL     1       3.230   3.178  20.304  0.00  0.00    +0.000 C 
ENDBRANCH  15  16
BRANCH  15  24
ATOM     24  N   UNL     1       3.604   3.796  16.050  0.00  0.00    +0.000 NA
ATOM     25  H   UNL     1       4.518   3.622  15.634  0.00  0.00    +0.000 HD
ATOM     26  H   UNL     1       3.274   4.639  15.571  0.00  0.00    +0.000 HD
ENDBRANCH  15  24
ENDBRANCH   1  15
BRANCH   1  27
ATOM     27  C   UNL     1       5.402   6.061  16.449  0.00  0.00    +0.000 C 
BRANCH  27  28
ATOM     28  N   UNL     1       6.874   6.233  16.530  0.00  0.00    +0.000 NA
ATOM     29  C   UNL     1       7.483   5.042  17.185  0.00  0.00    +0.000 C 
ATOM     30  C   UNL     1       7.612   5.391  18.659  0.00  0.00    +0.000 C 
ATOM     31  C   UNL     1       8.011   6.845  18.607  0.00  0.00    +0.000 C 
ATOM     32  C   UNL     1       7.342   7.375  17.340  0.00  0.00    +0.000 C 
ENDBRANCH  27  28
ENDBRANCH   1  27
TORSDOF 7
ENDMDL
MODEL 4
REMARK VINA RESULT:      -8.4      4.460      7.182
REMARK  Name = 
REMARK  7 active torsions:
REMARK  status: ('A' for Active; 'I' for Inactive)
REMARK    1  A    between atoms: N_1  and  C_2
REMARK    2  A    between atoms: C_2  and  C_3
REMARK    3  A    between atoms: C_2  and  C_11
REMARK    4  A    between atoms: C_11  and  C_12
REMARK    5  A    between atoms: C_11  and  C_18
REMARK    6  A    between atoms: C_12  and  N_13
REMARK    7  A    between atoms: C_21  and  C_22
REMARK                            x       y       z     vdW  Elec       q    Type
REMARK                         _______ _______ _______ _____ _____    ______ ____
ROOT
ATOM      1  C   UNL     1       6.545   4.889  17.301  0.00  0.00    +0.000 C 
ENDROOT
BRANCH   1   2
ATOM      2  C   UNL     1       7.112   6.255  17.756  0.00  0.00    +0.000 A 
ATOM      3  C   UNL     1       6.857   7.425  17.028  0.00  0.00    +0.000 A 
ATOM      4  C   UNL     1       7.482   8.637  17.373  0.00  0.00    +0.000 A 
ATOM      5  C   UNL     1       8.387   8.719  18.445  0.00  0.00    +0.000 A 
ATOM      6  C   UNL     1       8.584   7.552  19.202  0.00  0.00    +0.000 A 
ATOM      7  C   UNL     1       7.941   6.362  18.883  0.00  0.00    +0.000 A 
BRANCH   5   8
ATOM      8  C   UNL     1       9.116   9.955  18.802  0.00  0.00    +0.000 A 
ATOM      9  C   UNL     1       9.282  10.352  20.139  0.00  0.00    +0.000 A 
ATOM     10  C   UNL     1      10.034  11.486  20.465  0.00  0.00    +0.000 A 
ATOM     11  C   UNL     1      10.628  12.236  19.460  0.00  0.00    +0.000 A 
ATOM     12  F   UNL     1      11.367  13.311  19.791  0.00  0.00    +0.000 F 
ATOM     13  C   UNL     1      10.467  11.891  18.134  0.00  0.00    +0.000 A 
ATOM     14  C   UNL     1       9.710  10.767  17.809  0.00  0.00    +0.000 A 
ENDBRANCH   5   8
ENDBRANCH   1   2
BRANCH   1  15
ATOM     15  C   UNL     1       5.009   4.728  17.654  0.00  0.00    +0.000 C 
BRANCH  15  16
ATOM     16  C   UNL     1       4.623   3.871  18.903  0.00  0.00    +0.000 C 
ATOM     17  O   UNL     1       5.473   3.465  19.697  0.00  0.00    +0.000 OA
ATOM     18  N   UNL     1       3.254   3.717  19.148  0.00  0.00    +0.000 N 
ATOM     19  C   UNL     1       2.745   3.144  20.387  0.00  0.00    +0.000 C 
ATOM     20  C   UNL     1       1.220   3.172  20.269  0.00  0.00    +0.000 C 
ATOM     21  C   UNL     1       0.991   3.178  18.768  0.00  0.00    +0.000 C 
ATOM     22  F   UNL     1       1.116   1.905  18.302  0.00  0.00    +0.000 F 
ATOM     23  C   UNL     1       2.144   4.027  18.244  0.00  0.00    +0.000 C 
ENDBRANCH  15  16
BRANCH  15  24
ATOM     24  N   UNL     1       4.414   6.084  17.962  0.00  0.00    +0.000 NA
ATOM     25  H   UNL     1       3.558   5.974  18.503  0.00  0.00    +0.000 HD
ATOM     26  H   UNL     1       4.093   6.475  17.071  0.00  0.00    +0.000 HD
ENDBRANCH  15  24
ENDBRANCH   1  15
BRANCH   1  27
ATOM     27  C   UNL     1       7.055   4.507  15.862  0.00  0.00    +0.000 C 
BRANCH  27  28
ATOM     28  N   UNL     1       6.588   5.160  14.613  0.00  0.00    +0.000 NA
ATOM     29  C   UNL     1       5.474   4.369  14.021  0.00  0.00    +0.000 C 
ATOM     30  C   UNL     1       6.112   3.441  13.000  0.00  0.00    +0.000 C 
ATOM     31  C   UNL     1       7.177   4.321  12.394  0.00  0.00    +0.000 C 
ATOM     32  C   UNL     1       7.584   5.257  13.530  0.00  0.00    +0.000 C 
ENDBRANCH  27  28
ENDBRANCH   1  27
TORSDOF 7
ENDMDL
MODEL 5
REMARK VINA RESULT:      -8.4      4.595      9.119
REMARK  Name = 
REMARK  7 active torsions:
REMARK  status: ('A' for Active; 'I' for Inactive)
REMARK    1  A    between atoms: N_1  and  C_2
REMARK    2  A    between atoms: C_2  and  C_3
REMARK    3  A    between atoms: C_2  and  C_11
REMARK    4  A    between atoms: C_11  and  C_12
REMARK    5  A    between atoms: C_11  and  C_18
REMARK    6  A    between atoms: C_12  and  N_13
REMARK    7  A    between atoms: C_21  and  C_22
REMARK                            x       y       z     vdW  Elec       q    Type
REMARK                         _______ _______ _______ _____ _____    ______ ____
ROOT
ATOM      1  C   UNL     1       0.668  10.799  20.094  0.00  0.00    +0.000 C 
ENDROOT
BRANCH   1   2
ATOM      2  C   UNL     1       1.338   9.463  19.695  0.00  0.00    +0.000 A 
ATOM      3  C   UNL     1       1.732   9.215  18.373  0.00  0.00    +0.000 A 
ATOM      4  C   UNL     1       2.219   7.952  17.991  0.00  0.00    +0.000 A 
ATOM      5  C   UNL     1       2.319   6.894  18.911  0.00  0.00    +0.000 A 
ATOM      6  C   UNL     1       1.978   7.176  20.245  0.00  0.00    +0.000 A 
ATOM      7  C   UNL     1       1.529   8.434  20.630  0.00  0.00    +0.000 A 
BRANCH   5   8
ATOM      8  C   UNL     1       2.763   5.533  18.542  0.00  0.00    +0.000 A 
ATOM      9  C   UNL     1       3.994   5.016  18.975  0.00  0.00    +0.000 A 
ATOM     10  C   UNL     1       4.370   3.702  18.676  0.00  0.00    +0.000 A 
ATOM     11  C   UNL     1       3.519   2.889  17.940  0.00  0.00    +0.000 A 
ATOM     12  F   UNL     1       3.884   1.621  17.680  0.00  0.00    +0.000 F 
ATOM     13  C   UNL     1       2.312   3.369  17.476  0.00  0.00    +0.000 A 
ATOM     14  C   UNL     1       1.943   4.681  17.767  0.00  0.00    +0.000 A 
ENDBRANCH   5   8
ENDBRANCH   1   2
BRANCH   1  15
ATOM     15  C   UNL     1       0.224  11.649  18.833  0.00  0.00    +0.000 C 
BRANCH  15  16
ATOM     16  C   UNL     1      -1.274  12.078  18.718  0.00  0.00    +0.000 C 
ATOM     17  O   UNL     1      -1.699  13.097  19.264  0.00  0.00    +0.000 OA
ATOM     18  N   UNL     1      -2.069  11.325  17.846  0.00  0.00    +0.000 N 
ATOM     19  C   UNL     1      -3.412  11.738  17.464  0.00  0.00    +0.000 C 
ATOM     20  C   UNL     1      -3.923  10.669  16.497  0.00  0.00    +0.000 C 
ATOM     21  C   UNL     1      -3.106   9.445  16.872  0.00  0.00    +0.000 C 
ATOM     22  F   UNL     1      -3.661   8.872  17.976  0.00  0.00    +0.000 F 
ATOM     23  C   UNL     1      -1.747  10.033  17.235  0.00  0.00    +0.000 C 
ENDBRANCH  15  16
BRANCH  15  24
ATOM     24  N   UNL     1       0.967  12.966  18.822  0.00  0.00    +0.000 NA
ATOM     25  H   UNL     1       0.594  13.570  18.091  0.00  0.00    +0.000 HD
ATOM     26  H   UNL     1       1.921  12.765  18.509  0.00  0.00    +0.000 HD
ENDBRANCH  15  24
ENDBRANCH   1  15
BRANCH   1  27
ATOM     27  C   UNL     1      -0.337  10.602  21.289  0.00  0.00    +0.000 C 
BRANCH  27  28
ATOM     28  N   UNL     1      -0.338  11.432  22.520  0.00  0.00    +0.000 NA
ATOM     29  C   UNL     1      -1.578  11.168  23.301  0.00  0.00    +0.000 C 
ATOM     30  C   UNL     1      -2.576  12.235  22.882  0.00  0.00    +0.000 C 
ATOM     31  C   UNL     1      -1.698  13.452  22.739  0.00  0.00    +0.000 C 
ATOM     32  C   UNL     1      -0.343  12.892  22.308  0.00  0.00    +0.000 C 
ENDBRANCH  27  28
ENDBRANCH   1  27
TORSDOF 7
ENDMDL
MODEL 6
REMARK VINA RESULT:      -8.3      4.483      9.195
REMARK  Name = 
REMARK  7 active torsions:
REMARK  status: ('A' for Active; 'I' for Inactive)
REMARK    1  A    between atoms: N_1  and  C_2
REMARK    2  A    between atoms: C_2  and  C_3
REMARK    3  A    between atoms: C_2  and  C_11
REMARK    4  A    between atoms: C_11  and  C_12
REMARK    5  A    between atoms: C_11  and  C_18
REMARK    6  A    between atoms: C_12  and  N_13
REMARK    7  A    between atoms: C_21  and  C_22
REMARK                            x       y       z     vdW  Elec       q    Type
REMARK                         _______ _______ _______ _____ _____    ______ ____
ROOT
ATOM      1  C   UNL     1       0.510  10.967  20.058  0.00  0.00    +0.000 C 
ENDROOT
BRANCH   1   2
ATOM      2  C   UNL     1       1.158   9.714  19.423  0.00  0.00    +0.000 A 
ATOM      3  C   UNL     1       1.446   8.578  20.192  0.00  0.00    +0.000 A 
ATOM      4  C   UNL     1       2.154   7.495  19.639  0.00  0.00    +0.000 A 
ATOM      5  C   UNL     1       2.604   7.514  18.308  0.00  0.00    +0.000 A 
ATOM      6  C   UNL     1       2.254   8.632  17.533  0.00  0.00    +0.000 A 
ATOM      7  C   UNL     1       1.526   9.688  18.069  0.00  0.00    +0.000 A 
BRANCH   5   8
ATOM      8  C   UNL     1       3.406   6.428  17.705  0.00  0.00    +0.000 A 
ATOM      9  C   UNL     1       4.609   6.688  17.028  0.00  0.00    +0.000 A 
ATOM     10  C   UNL     1       5.393   5.645  16.524  0.00  0.00    +0.000 A 
ATOM     11  C   UNL     1       4.983   4.329  16.688  0.00  0.00    +0.000 A 
ATOM     12  F   UNL     1       5.758   3.335  16.218  0.00  0.00    +0.000 F 
ATOM     13  C   UNL     1       3.796   4.035  17.326  0.00  0.00    +0.000 A 
ATOM     14  C   UNL     1       3.011   5.076  17.820  0.00  0.00    +0.000 A 
ENDBRANCH   5   8
ENDBRANCH   1   2
BRANCH   1  15
ATOM     15  C   UNL     1      -0.061  11.965  18.968  0.00  0.00    +0.000 C 
BRANCH  15  16
ATOM     16  C   UNL     1      -1.598  12.248  18.956  0.00  0.00    +0.000 C 
ATOM     17  O   UNL     1      -2.094  13.153  19.630  0.00  0.00    +0.000 OA
ATOM     18  N   UNL     1      -2.355  11.518  18.033  0.00  0.00    +0.000 N 
ATOM     19  C   UNL     1      -3.748  11.831  17.749  0.00  0.00    +0.000 C 
ATOM     20  C   UNL     1      -4.197  10.829  16.684  0.00  0.00    +0.000 C 
ATOM     21  C   UNL     1      -3.248   9.661  16.889  0.00  0.00    +0.000 C 
ATOM     22  F   UNL     1      -3.692   8.917  17.938  0.00  0.00    +0.000 F 
ATOM     23  C   UNL     1      -1.937  10.342  17.268  0.00  0.00    +0.000 C 
ENDBRANCH  15  16
BRANCH  15  24
ATOM     24  N   UNL     1       0.546  13.336  19.167  0.00  0.00    +0.000 NA
ATOM     25  H   UNL     1       0.349  13.671  20.109  0.00  0.00    +0.000 HD
ATOM     26  H   UNL     1       0.026  13.980  18.565  0.00  0.00    +0.000 HD
ENDBRANCH  15  24
ENDBRANCH   1  15
BRANCH   1  27
ATOM     27  C   UNL     1      -0.374  10.587  21.302  0.00  0.00    +0.000 C 
BRANCH  27  28
ATOM     28  N   UNL     1      -0.344  11.312  22.597  0.00  0.00    +0.000 NA
ATOM     29  C   UNL     1      -1.548  10.958  23.399  0.00  0.00    +0.000 C 
ATOM     30  C   UNL     1      -2.581  12.034  23.107  0.00  0.00    +0.000 C 
ATOM     31  C   UNL     1      -1.730  13.278  23.034  0.00  0.00    +0.000 C 
ATOM     32  C   UNL     1      -0.384  12.784  22.508  0.00  0.00    +0.000 C 
ENDBRANCH  27  28
ENDBRANCH   1  27
TORSDOF 7
ENDMDL
MODEL 7
REMARK VINA RESULT:      -8.2      1.274      1.828
REMARK  Name = 
REMARK  7 active torsions:
REMARK  status: ('A' for Active; 'I' for Inactive)
REMARK    1  A    between atoms: N_1  and  C_2
REMARK    2  A    between atoms: C_2  and  C_3
REMARK    3  A    between atoms: C_2  and  C_11
REMARK    4  A    between atoms: C_11  and  C_12
REMARK    5  A    between atoms: C_11  and  C_18
REMARK    6  A    between atoms: C_12  and  N_13
REMARK    7  A    between atoms: C_21  and  C_22
REMARK                            x       y       z     vdW  Elec       q    Type
REMARK                         _______ _______ _______ _____ _____    ______ ____
ROOT
ATOM      1  C   UNL     1       3.295   5.286  17.640  0.00  0.00    +0.000 C 
ENDROOT
BRANCH   1   2
ATOM      2  C   UNL     1       2.715   6.357  18.595  0.00  0.00    +0.000 A 
ATOM      3  C   UNL     1       2.316   6.028  19.897  0.00  0.00    +0.000 A 
ATOM      4  C   UNL     1       1.670   6.974  20.713  0.00  0.00    +0.000 A 
ATOM      5  C   UNL     1       1.392   8.273  20.253  0.00  0.00    +0.000 A 
ATOM      6  C   UNL     1       1.853   8.606  18.969  0.00  0.00    +0.000 A 
ATOM      7  C   UNL     1       2.522   7.682  18.175  0.00  0.00    +0.000 A 
BRANCH   5   8
ATOM      8  C   UNL     1       0.658   9.279  21.051  0.00  0.00    +0.000 A 
ATOM      9  C   UNL     1       0.165  10.460  20.474  0.00  0.00    +0.000 A 
ATOM     10  C   UNL     1      -0.588  11.370  21.225  0.00  0.00    +0.000 A 
ATOM     11  C   UNL     1      -0.857  11.109  22.562  0.00  0.00    +0.000 A 
ATOM     12  F   UNL     1      -1.602  11.981  23.265  0.00  0.00    +0.000 F 
ATOM     13  C   UNL     1      -0.370   9.971  23.169  0.00  0.00    +0.000 A 
ATOM     14  C   UNL     1       0.389   9.070  22.423  0.00  0.00    +0.000 A 
ENDBRANCH   5   8
ENDBRANCH   1   2
BRANCH   1  15
ATOM     15  C   UNL     1       4.876   5.211  17.711  0.00  0.00    +0.000 C 
BRANCH  15  16
ATOM     16  C   UNL     1       5.701   5.876  16.561  0.00  0.00    +0.000 C 
ATOM     17  O   UNL     1       6.128   7.028  16.654  0.00  0.00    +0.000 OA
ATOM     18  N   UNL     1       6.050   5.046  15.490  0.00  0.00    +0.000 N 
ATOM     19  C   UNL     1       7.000   5.456  14.465  0.00  0.00    +0.000 C 
ATOM     20  C   UNL     1       7.120   4.273  13.503  0.00  0.00    +0.000 C 
ATOM     21  C   UNL     1       5.804   3.540  13.694  0.00  0.00    +0.000 C 
ATOM     22  F   UNL     1       4.841   4.175  12.971  0.00  0.00    +0.000 F 
ATOM     23  C   UNL     1       5.521   3.716  15.181  0.00  0.00    +0.000 C 
ENDBRANCH  15  16
BRANCH  15  24
ATOM     24  N   UNL     1       5.363   5.927  18.950  0.00  0.00    +0.000 NA
ATOM     25  H   UNL     1       5.830   6.795  18.691  0.00  0.00    +0.000 HD
ATOM     26  H   UNL     1       6.114   5.355  19.346  0.00  0.00    +0.000 HD
ENDBRANCH  15  24
ENDBRANCH   1  15
BRANCH   1  27
ATOM     27  C   UNL     1       2.452   3.959  17.687  0.00  0.00    +0.000 C 
BRANCH  27  28
ATOM     28  N   UNL     1       2.876   2.729  18.401  0.00  0.00    +0.000 NA
ATOM     29  C   UNL     1       1.680   2.030  18.950  0.00  0.00    +0.000 C 
ATOM     30  C   UNL     1       1.531   2.510  20.384  0.00  0.00    +0.000 C 
ATOM     31  C   UNL     1       2.966   2.593  20.841  0.00  0.00    +0.000 C 
ATOM     32  C   UNL     1       3.747   2.937  19.574  0.00  0.00    +0.000 C 
ENDBRANCH  27  28
ENDBRANCH   1  27
TORSDOF 7
ENDMDL
MODEL 8
REMARK VINA RESULT:      -8.2      1.428      2.203
REMARK  Name = 
REMARK  7 active torsions:
REMARK  status: ('A' for Active; 'I' for Inactive)
REMARK    1  A    between atoms: N_1  and  C_2
REMARK    2  A    between atoms: C_2  and  C_3
REMARK    3  A    between atoms: C_2  and  C_11
REMARK    4  A    between atoms: C_11  and  C_12
REMARK    5  A    between atoms: C_11  and  C_18
REMARK    6  A    between atoms: C_12  and  N_13
REMARK    7  A    between atoms: C_21  and  C_22
REMARK                            x       y       z     vdW  Elec       q    Type
REMARK                         _______ _______ _______ _____ _____    ______ ____
ROOT
ATOM      1  C   UNL     1       2.958   5.460  17.899  0.00  0.00    +0.000 C 
ENDROOT
BRANCH   1   2
ATOM      2  C   UNL     1       2.416   6.589  18.807  0.00  0.00    +0.000 A 
ATOM      3  C   UNL     1       2.040   6.336  20.133  0.00  0.00    +0.000 A 
ATOM      4  C   UNL     1       1.426   7.335  20.911  0.00  0.00    +0.000 A 
ATOM      5  C   UNL     1       1.160   8.613  20.388  0.00  0.00    +0.000 A 
ATOM      6  C   UNL     1       1.599   8.870  19.079  0.00  0.00    +0.000 A 
ATOM      7  C   UNL     1       2.236   7.894  18.321  0.00  0.00    +0.000 A 
BRANCH   5   8
ATOM      8  C   UNL     1       0.460   9.672  21.146  0.00  0.00    +0.000 A 
ATOM      9  C   UNL     1      -0.276   9.384  22.307  0.00  0.00    +0.000 A 
ATOM     10  C   UNL     1      -0.875  10.405  23.053  0.00  0.00    +0.000 A 
ATOM     11  C   UNL     1      -0.746  11.726  22.647  0.00  0.00    +0.000 A 
ATOM     12  F   UNL     1      -1.308  12.699  23.386  0.00  0.00    +0.000 F 
ATOM     13  C   UNL     1      -0.051  12.046  21.499  0.00  0.00    +0.000 A 
ATOM     14  C   UNL     1       0.537  11.027  20.751  0.00  0.00    +0.000 A 
ENDBRANCH   5   8
ENDBRANCH   1   2
BRANCH   1  15
ATOM     15  C   UNL     1       4.525   5.274  18.042  0.00  0.00    +0.000 C 
BRANCH  15  16
ATOM     16  C   UNL     1       5.452   5.979  17.000  0.00  0.00    +0.000 C 
ATOM     17  O   UNL     1       5.834   7.140  17.156  0.00  0.00    +0.000 OA
ATOM     18  N   UNL     1       5.940   5.177  15.963  0.00  0.00    +0.000 N 
ATOM     19  C   UNL     1       6.986   5.629  15.056  0.00  0.00    +0.000 C 
ATOM     20  C   UNL     1       7.244   4.466  14.096  0.00  0.00    +0.000 C 
ATOM     21  C   UNL     1       5.936   3.695  14.129  0.00  0.00    +0.000 C 
ATOM     22  F   UNL     1       5.041   4.318  13.313  0.00  0.00    +0.000 F 
ATOM     23  C   UNL     1       5.485   3.839  15.579  0.00  0.00    +0.000 C 
ENDBRANCH  15  16
BRANCH  15  24
ATOM     24  N   UNL     1       4.985   5.845  19.364  0.00  0.00    +0.000 NA
ATOM     25  H   UNL     1       5.920   6.237  19.268  0.00  0.00    +0.000 HD
ATOM     26  H   UNL     1       5.117   5.052  19.999  0.00  0.00    +0.000 HD
ENDBRANCH  15  24
ENDBRANCH   1  15
BRANCH   1  27
ATOM     27  C   UNL     1       2.019   4.197  17.932  0.00  0.00    +0.000 C 
BRANCH  27  28
ATOM     28  N   UNL     1       2.351   2.933  18.635  0.00  0.00    +0.000 NA
ATOM     29  C   UNL     1       1.121   2.368  19.257  0.00  0.00    +0.000 C 
ATOM     30  C   UNL     1       1.106   2.868  20.692  0.00  0.00    +0.000 C 
ATOM     31  C   UNL     1       2.566   2.800  21.067  0.00  0.00    +0.000 C 
ATOM     32  C   UNL     1       3.304   3.053  19.754  0.00  0.00    +0.000 C 
ENDBRANCH  27  28
ENDBRANCH   1  27
TORSDOF 7
ENDMDL
MODEL 9
REMARK VINA RESULT:      -8.2      4.212      6.975
REMARK  Name = 
REMARK  7 active torsions:
REMARK  status: ('A' for Active; 'I' for Inactive)
REMARK    1  A    between atoms: N_1  and  C_2
REMARK    2  A    between atoms: C_2  and  C_3
REMARK    3  A    between atoms: C_2  and  C_11
REMARK    4  A    between atoms: C_11  and  C_12
REMARK    5  A    between atoms: C_11  and  C_18
REMARK    6  A    between atoms: C_12  and  N_13
REMARK    7  A    between atoms: C_21  and  C_22
REMARK                            x       y       z     vdW  Elec       q    Type
REMARK                         _______ _______ _______ _____ _____    ______ ____
ROOT
ATOM      1  C   UNL     1       6.251   4.496  17.208  0.00  0.00    +0.000 C 
ENDROOT
BRANCH   1   2
ATOM      2  C   UNL     1       7.012   5.802  17.539  0.00  0.00    +0.000 A 
ATOM      3  C   UNL     1       7.839   5.893  18.666  0.00  0.00    +0.000 A 
ATOM      4  C   UNL     1       8.422   7.119  19.034  0.00  0.00    +0.000 A 
ATOM      5  C   UNL     1       8.192   8.293  18.297  0.00  0.00    +0.000 A 
ATOM      6  C   UNL     1       7.412   8.172  17.135  0.00  0.00    +0.000 A 
ATOM      7  C   UNL     1       6.862   6.954  16.752  0.00  0.00    +0.000 A 
BRANCH   5   8
ATOM      8  C   UNL     1       8.730   9.615  18.682  0.00  0.00    +0.000 A 
ATOM      9  C   UNL     1       9.110   9.900  20.003  0.00  0.00    +0.000 A 
ATOM     10  C   UNL     1       9.684  11.132  20.339  0.00  0.00    +0.000 A 
ATOM     11  C   UNL     1       9.883  12.093  19.358  0.00  0.00    +0.000 A 
ATOM     12  F   UNL     1      10.457  13.263  19.692  0.00  0.00    +0.000 F 
ATOM     13  C   UNL     1       9.501  11.859  18.054  0.00  0.00    +0.000 A 
ATOM     14  C   UNL     1       8.921  10.635  17.722  0.00  0.00    +0.000 A 
ENDBRANCH   5   8
ENDBRANCH   1   2
BRANCH   1  15
ATOM     15  C   UNL     1       4.757   4.521  17.737  0.00  0.00    +0.000 C 
BRANCH  15  16
ATOM     16  C   UNL     1       4.413   3.700  19.021  0.00  0.00    +0.000 C 
ATOM     17  O   UNL     1       5.292   3.290  19.781  0.00  0.00    +0.000 OA
ATOM     18  N   UNL     1       3.055   3.584  19.337  0.00  0.00    +0.000 N 
ATOM     19  C   UNL     1       2.595   3.051  20.611  0.00  0.00    +0.000 C 
ATOM     20  C   UNL     1       1.067   3.113  20.568  0.00  0.00    +0.000 C 
ATOM     21  C   UNL     1       0.764   3.094  19.081  0.00  0.00    +0.000 C 
ATOM     22  F   UNL     1       0.836   1.809  18.637  0.00  0.00    +0.000 F 
ATOM     23  C   UNL     1       1.909   3.903  18.482  0.00  0.00    +0.000 C 
ENDBRANCH  15  16
BRANCH  15  24
ATOM     24  N   UNL     1       4.375   5.935  18.112  0.00  0.00    +0.000 NA
ATOM     25  H   UNL     1       3.396   5.969  18.392  0.00  0.00    +0.000 HD
ATOM     26  H   UNL     1       4.401   6.487  17.250  0.00  0.00    +0.000 HD
ENDBRANCH  15  24
ENDBRANCH   1  15
BRANCH   1  27
ATOM     27  C   UNL     1       6.546   4.017  15.739  0.00  0.00    +0.000 C 
BRANCH  27  28
ATOM     28  N   UNL     1       6.255   4.822  14.526  0.00  0.00    +0.000 NA
ATOM     29  C   UNL     1       5.281   4.097  13.665  0.00  0.00    +0.000 C 
ATOM     30  C   UNL     1       6.108   3.327  12.649  0.00  0.00    +0.000 C 
ATOM     31  C   UNL     1       7.219   4.300  12.341  0.00  0.00    +0.000 C 
ATOM     32  C   UNL     1       7.405   5.083  13.639  0.00  0.00    +0.000 C 
ENDBRANCH  27  28
ENDBRANCH   1  27
TORSDOF 7
ENDMDL
