MODEL 1
REMARK VINA RESULT:      -7.9      0.000      0.000
REMARK  Name = 
REMARK  10 active torsions:
REMARK  status: ('A' for Active; 'I' for Inactive)
REMARK    1  A    between atoms: C_1  and  C_2
REMARK    2  A    between atoms: C_2  and  S_3
REMARK    3  A    between atoms: S_3  and  C_6
REMARK    4  A    between atoms: C_9  and  C_10
REMARK    5  A    between atoms: C_10  and  C_11
REMARK    6  A    between atoms: N_13  and  C_14
REMARK    7  A    between atoms: C_16  and  C_17
REMARK    8  A    between atoms: C_22  and  O_23
REMARK    9  A    between atoms: O_23  and  C_24
REMARK   10  A    between atoms: C_24  and  C_25
REMARK                            x       y       z     vdW  Elec       q    Type
REMARK                         _______ _______ _______ _____ _____    ______ ____
ROOT
ATOM      1  C   UNL     1       0.504  11.036  18.590  0.00  0.00    +0.000 A 
ATOM      2  C   UNL     1      -0.661  10.894  19.307  0.00  0.00    +0.000 A 
ATOM      3  C   UNL     1      -1.089  12.152  19.900  0.00  0.00    +0.000 A 
ATOM      4  C   UNL     1      -0.115  13.115  19.723  0.00  0.00    +0.000 A 
ATOM      5  S   UNL     1       1.217  12.564  18.799  0.00  0.00    +0.000 S 
ENDROOT
BRANCH   3   6
ATOM      6  C   UNL     1      -2.335  12.391  20.646  0.00  0.00    +0.000 A 
ATOM      7  C   UNL     1      -3.489  12.715  19.925  0.00  0.00    +0.000 A 
ATOM      8  C   UNL     1      -4.701  12.951  20.569  0.00  0.00    +0.000 A 
ATOM      9  C   UNL     1      -4.733  12.852  21.945  0.00  0.00    +0.000 A 
ATOM     10  N   UNL     1      -3.655  12.540  22.690  0.00  0.00    +0.000 NA
ATOM     11  C   UNL     1      -2.483  12.314  22.039  0.00  0.00    +0.000 A 
BRANCH  11  12
ATOM     12  O   UNL     1      -1.398  12.019  22.840  0.00  0.00    +0.000 OA
BRANCH  12  13
ATOM     13  C   UNL     1      -1.453  10.687  23.391  0.00  0.00    +0.000 C 
BRANCH  13  14
ATOM     14  C   UNL     1      -0.302   9.785  22.945  0.00  0.00    +0.000 C 
ATOM     15  F   UNL     1       0.596  10.421  22.158  0.00  0.00    +0.000 F 
ATOM     16  F   UNL     1       0.386   9.332  24.024  0.00  0.00    +0.000 F 
ATOM     17  F   UNL     1      -0.740   8.694  22.276  0.00  0.00    +0.000 F 
ENDBRANCH  13  14
ENDBRANCH  12  13
ENDBRANCH  11  12
ENDBRANCH   3   6
BRANCH   1  20
ATOM     18  C   UNL     1       1.749   9.020  18.445  0.00  0.00    +0.000 C 
ATOM     19  O   UNL     1       1.605   8.729  19.629  0.00  0.00    +0.000 OA
ATOM     20  N   UNL     1       1.213  10.131  17.822  0.00  0.00    +0.000 N 
ATOM     21  H   UNL     1       1.511  10.415  16.894  0.00  0.00    +0.000 HD
BRANCH  18  22
ATOM     22  C   UNL     1       2.577   8.114  17.538  0.00  0.00    +0.000 C 
BRANCH  22  26
ATOM     23  C   UNL     1       3.279   4.184  19.188  0.00  0.00    +0.000 A 
ATOM     24  C   UNL     1       4.214   5.193  19.401  0.00  0.00    +0.000 A 
ATOM     25  C   UNL     1       3.985   6.464  18.869  0.00  0.00    +0.000 A 
ATOM     26  C   UNL     1       2.829   6.735  18.114  0.00  0.00    +0.000 A 
ATOM     27  C   UNL     1       1.888   5.713  17.931  0.00  0.00    +0.000 A 
ATOM     28  C   UNL     1       2.119   4.433  18.450  0.00  0.00    +0.000 A 
BRANCH  23  29
ATOM     29  S   UNL     1       3.570   2.545  19.834  0.00  0.00    +0.000 S 
ATOM     30  O   UNL     1       4.979   2.388  20.030  0.00  0.00    +0.000 OA
ATOM     31  O   UNL     1       2.814   1.632  18.965  0.00  0.00    +0.000 OA
BRANCH  29  33
ATOM     32  C   UNL     1       1.276   2.778  21.309  0.00  0.00    +0.000 C 
ATOM     33  C   UNL     1       2.772   2.579  21.432  0.00  0.00    +0.000 C 
ENDBRANCH  29  33
ENDBRANCH  23  29
ENDBRANCH  22  26
ENDBRANCH  18  22
ENDBRANCH   1  20
TORSDOF 9
ENDMDL
MODEL 2
REMARK VINA RESULT:      -7.8      3.450      9.478
REMARK  Name = 
REMARK  10 active torsions:
REMARK  status: ('A' for Active; 'I' for Inactive)
REMARK    1  A    between atoms: C_1  and  C_2
REMARK    2  A    between atoms: C_2  and  S_3
REMARK    3  A    between atoms: S_3  and  C_6
REMARK    4  A    between atoms: C_9  and  C_10
REMARK    5  A    between atoms: C_10  and  C_11
REMARK    6  A    between atoms: N_13  and  C_14
REMARK    7  A    between atoms: C_16  and  C_17
REMARK    8  A    between atoms: C_22  and  O_23
REMARK    9  A    between atoms: O_23  and  C_24
REMARK   10  A    between atoms: C_24  and  C_25
REMARK                            x       y       z     vdW  Elec       q    Type
REMARK                         _______ _______ _______ _____ _____    ______ ____
ROOT
ATOM      1  C   UNL     1       1.202   9.468  18.814  0.00  0.00    +0.000 A 
ATOM      2  C   UNL     1       2.066   8.818  17.963  0.00  0.00    +0.000 A 
ATOM      3  C   UNL     1       2.524   7.553  18.518  0.00  0.00    +0.000 A 
ATOM      4  C   UNL     1       2.100   7.429  19.828  0.00  0.00    +0.000 A 
ATOM      5  S   UNL     1       1.111   8.728  20.342  0.00  0.00    +0.000 S 
ENDROOT
BRANCH   3   6
ATOM      6  C   UNL     1       3.372   6.555  17.846  0.00  0.00    +0.000 A 
ATOM      7  C   UNL     1       4.554   6.991  17.238  0.00  0.00    +0.000 A 
ATOM      8  C   UNL     1       5.403   6.099  16.587  0.00  0.00    +0.000 A 
ATOM      9  C   UNL     1       5.046   4.767  16.562  0.00  0.00    +0.000 A 
ATOM     10  N   UNL     1       3.923   4.290  17.134  0.00  0.00    +0.000 NA
ATOM     11  C   UNL     1       3.110   5.180  17.763  0.00  0.00    +0.000 A 
BRANCH  11  12
ATOM     12  O   UNL     1       1.959   4.656  18.316  0.00  0.00    +0.000 OA
BRANCH  12  13
ATOM     13  C   UNL     1       2.220   3.575  19.235  0.00  0.00    +0.000 C 
BRANCH  13  14
ATOM     14  C   UNL     1       1.659   3.808  20.639  0.00  0.00    +0.000 C 
ATOM     15  F   UNL     1       2.599   4.207  21.525  0.00  0.00    +0.000 F 
ATOM     16  F   UNL     1       0.716   4.784  20.612  0.00  0.00    +0.000 F 
ATOM     17  F   UNL     1       1.062   2.702  21.138  0.00  0.00    +0.000 F 
ENDBRANCH  13  14
ENDBRANCH  12  13
ENDBRANCH  11  12
ENDBRANCH   3   6
BRANCH   1  20
ATOM     18  C   UNL     1      -0.732  10.588  18.016  0.00  0.00    +0.000 C 
ATOM     19  O   UNL     1      -1.276   9.567  17.605  0.00  0.00    +0.000 OA
ATOM     20  N   UNL     1       0.489  10.642  18.661  0.00  0.00    +0.000 N 
ATOM     21  H   UNL     1       0.970  11.522  18.816  0.00  0.00    +0.000 HD
BRANCH  18  22
ATOM     22  C   UNL     1      -1.417  11.939  17.826  0.00  0.00    +0.000 C 
BRANCH  22  26
ATOM     23  C   UNL     1      -5.016  12.428  20.165  0.00  0.00    +0.000 A 
ATOM     24  C   UNL     1      -3.801  12.875  20.676  0.00  0.00    +0.000 A 
ATOM     25  C   UNL     1      -2.638  12.719  19.918  0.00  0.00    +0.000 A 
ATOM     26  C   UNL     1      -2.676  12.108  18.651  0.00  0.00    +0.000 A 
ATOM     27  C   UNL     1      -3.912  11.685  18.143  0.00  0.00    +0.000 A 
ATOM     28  C   UNL     1      -5.079  11.827  18.904  0.00  0.00    +0.000 A 
BRANCH  23  29
ATOM     29  S   UNL     1      -6.507  12.590  21.131  0.00  0.00    +0.000 S 
ATOM     30  O   UNL     1      -6.966  13.942  21.017  0.00  0.00    +0.000 OA
ATOM     31  O   UNL     1      -6.205  11.995  22.440  0.00  0.00    +0.000 OA
BRANCH  29  33
ATOM     32  C   UNL     1      -7.899  10.235  21.053  0.00  0.00    +0.000 C 
ATOM     33  C   UNL     1      -7.667  11.522  20.291  0.00  0.00    +0.000 C 
ENDBRANCH  29  33
ENDBRANCH  23  29
ENDBRANCH  22  26
ENDBRANCH  18  22
ENDBRANCH   1  20
TORSDOF 9
ENDMDL
MODEL 3
REMARK VINA RESULT:      -7.8      3.769      9.712
REMARK  Name = 
REMARK  10 active torsions:
REMARK  status: ('A' for Active; 'I' for Inactive)
REMARK    1  A    between atoms: C_1  and  C_2
REMARK    2  A    between atoms: C_2  and  S_3
REMARK    3  A    between atoms: S_3  and  C_6
REMARK    4  A    between atoms: C_9  and  C_10
REMARK    5  A    between atoms: C_10  and  C_11
REMARK    6  A    between atoms: N_13  and  C_14
REMARK    7  A    between atoms: C_16  and  C_17
REMARK    8  A    between atoms: C_22  and  O_23
REMARK    9  A    between atoms: O_23  and  C_24
REMARK   10  A    between atoms: C_24  and  C_25
REMARK                            x       y       z     vdW  Elec       q    Type
REMARK                         _______ _______ _______ _____ _____    ______ ____
ROOT
ATOM      1  C   UNL     1       0.990   9.554  18.749  0.00  0.00    +0.000 A 
ATOM      2  C   UNL     1       1.775   8.823  17.889  0.00  0.00    +0.000 A 
ATOM      3  C   UNL     1       2.343   7.650  18.537  0.00  0.00    +0.000 A 
ATOM      4  C   UNL     1       2.077   7.683  19.893  0.00  0.00    +0.000 A 
ATOM      5  S   UNL     1       1.104   9.013  20.356  0.00  0.00    +0.000 S 
ENDROOT
BRANCH   3   6
ATOM      6  C   UNL     1       3.147   6.596  17.897  0.00  0.00    +0.000 A 
ATOM      7  C   UNL     1       4.307   6.971  17.212  0.00  0.00    +0.000 A 
ATOM      8  C   UNL     1       5.114   6.023  16.587  0.00  0.00    +0.000 A 
ATOM      9  C   UNL     1       4.738   4.699  16.665  0.00  0.00    +0.000 A 
ATOM     10  N   UNL     1       3.633   4.280  17.313  0.00  0.00    +0.000 NA
ATOM     11  C   UNL     1       2.861   5.223  17.916  0.00  0.00    +0.000 A 
BRANCH  11  12
ATOM     12  O   UNL     1       1.728   4.756  18.550  0.00  0.00    +0.000 OA
BRANCH  12  13
ATOM     13  C   UNL     1       2.014   4.104  19.804  0.00  0.00    +0.000 C 
BRANCH  13  14
ATOM     14  C   UNL     1       1.408   2.705  19.926  0.00  0.00    +0.000 C 
ATOM     15  F   UNL     1       0.191   2.602  19.345  0.00  0.00    +0.000 F 
ATOM     16  F   UNL     1       2.205   1.792  19.313  0.00  0.00    +0.000 F 
ATOM     17  F   UNL     1       1.286   2.313  21.215  0.00  0.00    +0.000 F 
ENDBRANCH  13  14
ENDBRANCH  12  13
ENDBRANCH  11  12
ENDBRANCH   3   6
BRANCH   1  20
ATOM     18  C   UNL     1      -1.103  10.513  18.174  0.00  0.00    +0.000 C 
ATOM     19  O   UNL     1      -1.681   9.434  18.069  0.00  0.00    +0.000 OA
ATOM     20  N   UNL     1       0.219  10.681  18.539  0.00  0.00    +0.000 N 
ATOM     21  H   UNL     1       0.689  11.575  18.435  0.00  0.00    +0.000 HD
BRANCH  18  22
ATOM     22  C   UNL     1      -1.860  11.808  17.890  0.00  0.00    +0.000 C 
BRANCH  22  26
ATOM     23  C   UNL     1      -5.346  12.386  20.376  0.00  0.00    +0.000 A 
ATOM     24  C   UNL     1      -4.091  12.735  20.865  0.00  0.00    +0.000 A 
ATOM     25  C   UNL     1      -2.964  12.550  20.060  0.00  0.00    +0.000 A 
ATOM     26  C   UNL     1      -3.080  12.008  18.766  0.00  0.00    +0.000 A 
ATOM     27  C   UNL     1      -4.355  11.685  18.282  0.00  0.00    +0.000 A 
ATOM     28  C   UNL     1      -5.486  11.855  19.090  0.00  0.00    +0.000 A 
BRANCH  23  29
ATOM     29  S   UNL     1      -6.793  12.586  21.401  0.00  0.00    +0.000 S 
ATOM     30  O   UNL     1      -7.407  11.302  21.558  0.00  0.00    +0.000 OA
ATOM     31  O   UNL     1      -7.533  13.721  20.834  0.00  0.00    +0.000 OA
BRANCH  29  33
ATOM     32  C   UNL     1      -7.178  13.105  24.061  0.00  0.00    +0.000 C 
ATOM     33  C   UNL     1      -6.121  13.092  22.977  0.00  0.00    +0.000 C 
ENDBRANCH  29  33
ENDBRANCH  23  29
ENDBRANCH  22  26
ENDBRANCH  18  22
ENDBRANCH   1  20
TORSDOF 9
ENDMDL
MODEL 4
REMARK VINA RESULT:      -7.7      3.370      9.607
REMARK  Name = 
REMARK  10 active torsions:
REMARK  status: ('A' for Active; 'I' for Inactive)
REMARK    1  A    between atoms: C_1  and  C_2
REMARK    2  A    between atoms: C_2  and  S_3
REMARK    3  A    between atoms: S_3  and  C_6
REMARK    4  A    between atoms: C_9  and  C_10
REMARK    5  A    between atoms: C_10  and  C_11
REMARK    6  A    between atoms: N_13  and  C_14
REMARK    7  A    between atoms: C_16  and  C_17
REMARK    8  A    between atoms: C_22  and  O_23
REMARK    9  A    between atoms: O_23  and  C_24
REMARK   10  A    between atoms: C_24  and  C_25
REMARK                            x       y       z     vdW  Elec       q    Type
REMARK                         _______ _______ _______ _____ _____    ______ ____
ROOT
ATOM      1  C   UNL     1       1.122   9.525  18.627  0.00  0.00    +0.000 A 
ATOM      2  C   UNL     1       1.925   8.802  17.775  0.00  0.00    +0.000 A 
ATOM      3  C   UNL     1       2.466   7.614  18.418  0.00  0.00    +0.000 A 
ATOM      4  C   UNL     1       2.163   7.626  19.766  0.00  0.00    +0.000 A 
ATOM      5  S   UNL     1       1.188   8.955  20.226  0.00  0.00    +0.000 S 
ENDROOT
BRANCH   3   6
ATOM      6  C   UNL     1       3.279   6.565  17.781  0.00  0.00    +0.000 A 
ATOM      7  C   UNL     1       4.456   6.943  17.128  0.00  0.00    +0.000 A 
ATOM      8  C   UNL     1       5.272   6.000  16.508  0.00  0.00    +0.000 A 
ATOM      9  C   UNL     1       4.887   4.676  16.559  0.00  0.00    +0.000 A 
ATOM     10  N   UNL     1       3.766   4.254  17.176  0.00  0.00    +0.000 NA
ATOM     11  C   UNL     1       2.986   5.193  17.774  0.00  0.00    +0.000 A 
BRANCH  11  12
ATOM     12  O   UNL     1       1.836   4.723  18.377  0.00  0.00    +0.000 OA
BRANCH  12  13
ATOM     13  C   UNL     1       2.098   3.729  19.388  0.00  0.00    +0.000 C 
BRANCH  13  14
ATOM     14  C   UNL     1       1.489   4.058  20.752  0.00  0.00    +0.000 C 
ATOM     15  F   UNL     1       2.370   4.639  21.598  0.00  0.00    +0.000 F 
ATOM     16  F   UNL     1       0.459   4.931  20.608  0.00  0.00    +0.000 F 
ATOM     17  F   UNL     1       0.989   2.961  21.364  0.00  0.00    +0.000 F 
ENDBRANCH  13  14
ENDBRANCH  12  13
ENDBRANCH  11  12
ENDBRANCH   3   6
BRANCH   1  20
ATOM     18  C   UNL     1      -1.005  10.527  18.305  0.00  0.00    +0.000 C 
ATOM     19  O   UNL     1      -1.630   9.477  18.434  0.00  0.00    +0.000 OA
ATOM     20  N   UNL     1       0.366  10.662  18.415  0.00  0.00    +0.000 N 
ATOM     21  H   UNL     1       0.841  11.510  18.123  0.00  0.00    +0.000 HD
BRANCH  18  22
ATOM     22  C   UNL     1      -1.755  11.821  17.999  0.00  0.00    +0.000 C 
BRANCH  22  26
ATOM     23  C   UNL     1      -5.128  12.555  20.597  0.00  0.00    +0.000 A 
ATOM     24  C   UNL     1      -3.846  12.881  21.030  0.00  0.00    +0.000 A 
ATOM     25  C   UNL     1      -2.756  12.646  20.189  0.00  0.00    +0.000 A 
ATOM     26  C   UNL     1      -2.935  12.076  18.915  0.00  0.00    +0.000 A 
ATOM     27  C   UNL     1      -4.235  11.776  18.487  0.00  0.00    +0.000 A 
ATOM     28  C   UNL     1      -5.330  11.996  19.331  0.00  0.00    +0.000 A 
BRANCH  23  29
ATOM     29  S   UNL     1      -6.529  12.819  21.670  0.00  0.00    +0.000 S 
ATOM     30  O   UNL     1      -7.153  11.552  21.907  0.00  0.00    +0.000 OA
ATOM     31  O   UNL     1      -7.277  13.939  21.085  0.00  0.00    +0.000 OA
BRANCH  29  33
ATOM     32  C   UNL     1      -6.049  14.854  23.436  0.00  0.00    +0.000 C 
ATOM     33  C   UNL     1      -5.787  13.382  23.194  0.00  0.00    +0.000 C 
ENDBRANCH  29  33
ENDBRANCH  23  29
ENDBRANCH  22  26
ENDBRANCH  18  22
ENDBRANCH   1  20
TORSDOF 9
ENDMDL
MODEL 5
REMARK VINA RESULT:      -7.7      3.502      9.672
REMARK  Name = 
REMARK  10 active torsions:
REMARK  status: ('A' for Active; 'I' for Inactive)
REMARK    1  A    between atoms: C_1  and  C_2
REMARK    2  A    between atoms: C_2  and  S_3
REMARK    3  A    between atoms: S_3  and  C_6
REMARK    4  A    between atoms: C_9  and  C_10
REMARK    5  A    between atoms: C_10  and  C_11
REMARK    6  A    between atoms: N_13  and  C_14
REMARK    7  A    between atoms: C_16  and  C_17
REMARK    8  A    between atoms: C_22  and  O_23
REMARK    9  A    between atoms: O_23  and  C_24
REMARK   10  A    between atoms: C_24  and  C_25
REMARK                            x       y       z     vdW  Elec       q    Type
REMARK                         _______ _______ _______ _____ _____    ______ ____
ROOT
ATOM      1  C   UNL     1       1.184   9.484  18.948  0.00  0.00    +0.000 A 
ATOM      2  C   UNL     1       1.980   8.808  18.053  0.00  0.00    +0.000 A 
ATOM      3  C   UNL     1       2.454   7.544  18.596  0.00  0.00    +0.000 A 
ATOM      4  C   UNL     1       2.114   7.445  19.931  0.00  0.00    +0.000 A 
ATOM      5  S   UNL     1       1.181   8.768  20.489  0.00  0.00    +0.000 S 
ENDROOT
BRANCH   3   6
ATOM      6  C   UNL     1       3.242   6.523  17.885  0.00  0.00    +0.000 A 
ATOM      7  C   UNL     1       4.398   6.928  17.211  0.00  0.00    +0.000 A 
ATOM      8  C   UNL     1       5.190   6.013  16.522  0.00  0.00    +0.000 A 
ATOM      9  C   UNL     1       4.802   4.690  16.525  0.00  0.00    +0.000 A 
ATOM     10  N   UNL     1       3.700   4.242  17.158  0.00  0.00    +0.000 NA
ATOM     11  C   UNL     1       2.944   5.154  17.825  0.00  0.00    +0.000 A 
BRANCH  11  12
ATOM     12  O   UNL     1       1.813   4.660  18.443  0.00  0.00    +0.000 OA
BRANCH  12  13
ATOM     13  C   UNL     1       2.105   3.625  19.404  0.00  0.00    +0.000 C 
BRANCH  13  14
ATOM     14  C   UNL     1       1.453   3.847  20.770  0.00  0.00    +0.000 C 
ATOM     15  F   UNL     1       2.317   4.313  21.700  0.00  0.00    +0.000 F 
ATOM     16  F   UNL     1       0.460   4.769  20.672  0.00  0.00    +0.000 F 
ATOM     17  F   UNL     1       0.890   2.717  21.255  0.00  0.00    +0.000 F 
ENDBRANCH  13  14
ENDBRANCH  12  13
ENDBRANCH  11  12
ENDBRANCH   3   6
BRANCH   1  20
ATOM     18  C   UNL     1      -0.800  10.617  18.306  0.00  0.00    +0.000 C 
ATOM     19  O   UNL     1      -1.401   9.594  17.990  0.00  0.00    +0.000 OA
ATOM     20  N   UNL     1       0.480  10.667  18.823  0.00  0.00    +0.000 N 
ATOM     21  H   UNL     1       0.991  11.541  18.897  0.00  0.00    +0.000 HD
BRANCH  18  22
ATOM     22  C   UNL     1      -1.476  11.976  18.136  0.00  0.00    +0.000 C 
BRANCH  22  26
ATOM     23  C   UNL     1      -5.404  12.196  19.920  0.00  0.00    +0.000 A 
ATOM     24  C   UNL     1      -5.260  11.656  18.645  0.00  0.00    +0.000 A 
ATOM     25  C   UNL     1      -3.989  11.583  18.070  0.00  0.00    +0.000 A 
ATOM     26  C   UNL     1      -2.856  12.055  18.757  0.00  0.00    +0.000 A 
ATOM     27  C   UNL     1      -3.017  12.574  20.048  0.00  0.00    +0.000 A 
ATOM     28  C   UNL     1      -4.290  12.663  20.624  0.00  0.00    +0.000 A 
BRANCH  23  29
ATOM     29  S   UNL     1      -7.024  12.327  20.658  0.00  0.00    +0.000 S 
ATOM     30  O   UNL     1      -6.864  12.806  21.998  0.00  0.00    +0.000 OA
ATOM     31  O   UNL     1      -7.696  11.051  20.380  0.00  0.00    +0.000 OA
BRANCH  29  33
ATOM     32  C   UNL     1      -7.415  14.986  20.141  0.00  0.00    +0.000 C 
ATOM     33  C   UNL     1      -7.822  13.598  19.691  0.00  0.00    +0.000 C 
ENDBRANCH  29  33
ENDBRANCH  23  29
ENDBRANCH  22  26
ENDBRANCH  18  22
ENDBRANCH   1  20
TORSDOF 9
ENDMDL
MODEL 6
REMARK VINA RESULT:      -7.6      3.974      9.782
REMARK  Name = 
REMARK  10 active torsions:
REMARK  status: ('A' for Active; 'I' for Inactive)
REMARK    1  A    between atoms: C_1  and  C_2
REMARK    2  A    between atoms: C_2  and  S_3
REMARK    3  A    between atoms: S_3  and  C_6
REMARK    4  A    between atoms: C_9  and  C_10
REMARK    5  A    between atoms: C_10  and  C_11
REMARK    6  A    between atoms: N_13  and  C_14
REMARK    7  A    between atoms: C_16  and  C_17
REMARK    8  A    between atoms: C_22  and  O_23
REMARK    9  A    between atoms: O_23  and  C_24
REMARK   10  A    between atoms: C_24  and  C_25
REMARK                            x       y       z     vdW  Elec       q    Type
REMARK                         _______ _______ _______ _____ _____    ______ ____
ROOT
ATOM      1  C   UNL     1       1.633   8.906  19.581  0.00  0.00    +0.000 A 
ATOM      2  C   UNL     1       1.562   7.710  20.257  0.00  0.00    +0.000 A 
ATOM      3  C   UNL     1       2.130   6.616  19.483  0.00  0.00    +0.000 A 
ATOM      4  C   UNL     1       2.432   7.046  18.205  0.00  0.00    +0.000 A 
ATOM      5  S   UNL     1       2.139   8.716  17.970  0.00  0.00    +0.000 S 
ENDROOT
BRANCH   3   6
ATOM      6  C   UNL     1       2.311   5.226  19.932  0.00  0.00    +0.000 A 
ATOM      7  C   UNL     1       1.228   4.577  20.534  0.00  0.00    +0.000 A 
ATOM      8  C   UNL     1       1.331   3.261  20.978  0.00  0.00    +0.000 A 
ATOM      9  C   UNL     1       2.535   2.611  20.803  0.00  0.00    +0.000 A 
ATOM     10  N   UNL     1       3.610   3.184  20.227  0.00  0.00    +0.000 NA
ATOM     11  C   UNL     1       3.485   4.470  19.802  0.00  0.00    +0.000 A 
BRANCH  11  12
ATOM     12  O   UNL     1       4.614   5.028  19.237  0.00  0.00    +0.000 OA
BRANCH  12  13
ATOM     13  C   UNL     1       5.274   4.143  18.309  0.00  0.00    +0.000 C 
BRANCH  13  14
ATOM     14  C   UNL     1       4.852   4.346  16.853  0.00  0.00    +0.000 C 
ATOM     15  F   UNL     1       5.505   3.532  15.993  0.00  0.00    +0.000 F 
ATOM     16  F   UNL     1       3.529   4.080  16.706  0.00  0.00    +0.000 F 
ATOM     17  F   UNL     1       5.041   5.621  16.441  0.00  0.00    +0.000 F 
ENDBRANCH  13  14
ENDBRANCH  12  13
ENDBRANCH  11  12
ENDBRANCH   3   6
BRANCH   1  20
ATOM     18  C   UNL     1       0.014  10.641  19.648  0.00  0.00    +0.000 C 
ATOM     19  O   UNL     1      -0.862   9.980  19.097  0.00  0.00    +0.000 OA
ATOM     20  N   UNL     1       1.281  10.187  19.963  0.00  0.00    +0.000 N 
ATOM     21  H   UNL     1       2.017  10.823  20.251  0.00  0.00    +0.000 HD
BRANCH  18  22
ATOM     22  C   UNL     1      -0.264  12.089  20.042  0.00  0.00    +0.000 C 
BRANCH  22  26
ATOM     23  C   UNL     1      -3.786  12.570  22.497  0.00  0.00    +0.000 A 
ATOM     24  C   UNL     1      -3.839  12.914  21.150  0.00  0.00    +0.000 A 
ATOM     25  C   UNL     1      -2.700  12.756  20.356  0.00  0.00    +0.000 A 
ATOM     26  C   UNL     1      -1.500  12.263  20.901  0.00  0.00    +0.000 A 
ATOM     27  C   UNL     1      -1.473  11.901  22.254  0.00  0.00    +0.000 A 
ATOM     28  C   UNL     1      -2.607  12.070  23.058  0.00  0.00    +0.000 A 
BRANCH  23  29
ATOM     29  S   UNL     1      -5.221  12.795  23.535  0.00  0.00    +0.000 S 
ATOM     30  O   UNL     1      -4.951  12.188  24.804  0.00  0.00    +0.000 OA
ATOM     31  O   UNL     1      -6.372  12.383  22.722  0.00  0.00    +0.000 OA
BRANCH  29  33
ATOM     32  C   UNL     1      -3.984  15.132  24.240  0.00  0.00    +0.000 C 
ATOM     33  C   UNL     1      -5.302  14.565  23.757  0.00  0.00    +0.000 C 
ENDBRANCH  29  33
ENDBRANCH  23  29
ENDBRANCH  22  26
ENDBRANCH  18  22
ENDBRANCH   1  20
TORSDOF 9
ENDMDL
MODEL 7
REMARK VINA RESULT:      -7.6      3.198      9.647
REMARK  Name = 
REMARK  10 active torsions:
REMARK  status: ('A' for Active; 'I' for Inactive)
REMARK    1  A    between atoms: C_1  and  C_2
REMARK    2  A    between atoms: C_2  and  S_3
REMARK    3  A    between atoms: S_3  and  C_6
REMARK    4  A    between atoms: C_9  and  C_10
REMARK    5  A    between atoms: C_10  and  C_11
REMARK    6  A    between atoms: N_13  and  C_14
REMARK    7  A    between atoms: C_16  and  C_17
REMARK    8  A    between atoms: C_22  and  O_23
REMARK    9  A    between atoms: O_23  and  C_24
REMARK   10  A    between atoms: C_24  and  C_25
REMARK                            x       y       z     vdW  Elec       q    Type
REMARK                         _______ _______ _______ _____ _____    ______ ____
ROOT
ATOM      1  C   UNL     1       1.525   8.785  20.190  0.00  0.00    +0.000 A 
ATOM      2  C   UNL     1       2.154   7.586  19.947  0.00  0.00    +0.000 A 
ATOM      3  C   UNL     1       2.459   7.410  18.535  0.00  0.00    +0.000 A 
ATOM      4  C   UNL     1       1.878   8.422  17.795  0.00  0.00    +0.000 A 
ATOM      5  S   UNL     1       1.082   9.591  18.760  0.00  0.00    +0.000 S 
ENDROOT
BRANCH   3   6
ATOM      6  C   UNL     1       3.211   6.298  17.932  0.00  0.00    +0.000 A 
ATOM      7  C   UNL     1       4.503   6.550  17.459  0.00  0.00    +0.000 A 
ATOM      8  C   UNL     1       5.269   5.542  16.880  0.00  0.00    +0.000 A 
ATOM      9  C   UNL     1       4.719   4.281  16.788  0.00  0.00    +0.000 A 
ATOM     10  N   UNL     1       3.482   3.979  17.229  0.00  0.00    +0.000 NA
ATOM     11  C   UNL     1       2.752   4.980  17.791  0.00  0.00    +0.000 A 
BRANCH  11  12
ATOM     12  O   UNL     1       1.483   4.636  18.211  0.00  0.00    +0.000 OA
BRANCH  12  13
ATOM     13  C   UNL     1       1.476   3.513  19.116  0.00  0.00    +0.000 C 
BRANCH  13  14
ATOM     14  C   UNL     1       1.384   3.908  20.591  0.00  0.00    +0.000 C 
ATOM     15  F   UNL     1       0.916   2.913  21.378  0.00  0.00    +0.000 F 
ATOM     16  F   UNL     1       2.614   4.230  21.069  0.00  0.00    +0.000 F 
ATOM     17  F   UNL     1       0.597   4.991  20.779  0.00  0.00    +0.000 F 
ENDBRANCH  13  14
ENDBRANCH  12  13
ENDBRANCH  11  12
ENDBRANCH   3   6
BRANCH   1  20
ATOM     18  C   UNL     1      -0.082   8.994  21.924  0.00  0.00    +0.000 C 
ATOM     19  O   UNL     1      -0.822   8.121  21.479  0.00  0.00    +0.000 OA
ATOM     20  N   UNL     1       1.126   9.378  21.373  0.00  0.00    +0.000 N 
ATOM     21  H   UNL     1       1.605  10.220  21.676  0.00  0.00    +0.000 HD
BRANCH  18  22
ATOM     22  C   UNL     1      -0.478   9.751  23.189  0.00  0.00    +0.000 C 
BRANCH  22  26
ATOM     23  C   UNL     1      -2.245  13.619  22.432  0.00  0.00    +0.000 A 
ATOM     24  C   UNL     1      -2.935  12.691  23.206  0.00  0.00    +0.000 A 
ATOM     25  C   UNL     1      -2.362  11.441  23.452  0.00  0.00    +0.000 A 
ATOM     26  C   UNL     1      -1.103  11.105  22.922  0.00  0.00    +0.000 A 
ATOM     27  C   UNL     1      -0.413  12.061  22.165  0.00  0.00    +0.000 A 
ATOM     28  C   UNL     1      -0.988  13.310  21.903  0.00  0.00    +0.000 A 
BRANCH  23  29
ATOM     29  S   UNL     1      -2.974  15.210  22.080  0.00  0.00    +0.000 S 
ATOM     30  O   UNL     1      -2.862  15.449  20.673  0.00  0.00    +0.000 OA
ATOM     31  O   UNL     1      -2.399  16.141  23.060  0.00  0.00    +0.000 OA
BRANCH  29  33
ATOM     32  C   UNL     1      -5.080  15.694  23.760  0.00  0.00    +0.000 C 
ATOM     33  C   UNL     1      -4.699  14.976  22.482  0.00  0.00    +0.000 C 
ENDBRANCH  29  33
ENDBRANCH  23  29
ENDBRANCH  22  26
ENDBRANCH  18  22
ENDBRANCH   1  20
TORSDOF 9
ENDMDL
MODEL 8
REMARK VINA RESULT:      -7.6      3.328      9.625
REMARK  Name = 
REMARK  10 active torsions:
REMARK  status: ('A' for Active; 'I' for Inactive)
REMARK    1  A    between atoms: C_1  and  C_2
REMARK    2  A    between atoms: C_2  and  S_3
REMARK    3  A    between atoms: S_3  and  C_6
REMARK    4  A    between atoms: C_9  and  C_10
REMARK    5  A    between atoms: C_10  and  C_11
REMARK    6  A    between atoms: N_13  and  C_14
REMARK    7  A    between atoms: C_16  and  C_17
REMARK    8  A    between atoms: C_22  and  O_23
REMARK    9  A    between atoms: O_23  and  C_24
REMARK   10  A    between atoms: C_24  and  C_25
REMARK                            x       y       z     vdW  Elec       q    Type
REMARK                         _______ _______ _______ _____ _____    ______ ____
ROOT
ATOM      1  C   UNL     1       1.295   9.221  19.327  0.00  0.00    +0.000 A 
ATOM      2  C   UNL     1       2.066   8.600  18.372  0.00  0.00    +0.000 A 
ATOM      3  C   UNL     1       2.476   7.267  18.789  0.00  0.00    +0.000 A 
ATOM      4  C   UNL     1       2.121   7.053  20.107  0.00  0.00    +0.000 A 
ATOM      5  S   UNL     1       1.245   8.356  20.789  0.00  0.00    +0.000 S 
ENDROOT
BRANCH   3   6
ATOM      6  C   UNL     1       3.221   6.286  17.983  0.00  0.00    +0.000 A 
ATOM      7  C   UNL     1       4.446   6.673  17.432  0.00  0.00    +0.000 A 
ATOM      8  C   UNL     1       5.202   5.793  16.662  0.00  0.00    +0.000 A 
ATOM      9  C   UNL     1       4.708   4.521  16.460  0.00  0.00    +0.000 A 
ATOM     10  N   UNL     1       3.536   4.093  16.968  0.00  0.00    +0.000 NA
ATOM     11  C   UNL     1       2.816   4.970  17.716  0.00  0.00    +0.000 A 
BRANCH  11  12
ATOM     12  O   UNL     1       1.612   4.500  18.200  0.00  0.00    +0.000 OA
BRANCH  12  13
ATOM     13  C   UNL     1       1.739   3.244  18.899  0.00  0.00    +0.000 C 
BRANCH  13  14
ATOM     14  C   UNL     1       1.651   3.371  20.420  0.00  0.00    +0.000 C 
ATOM     15  F   UNL     1       0.619   4.145  20.828  0.00  0.00    +0.000 F 
ATOM     16  F   UNL     1       1.463   2.150  20.984  0.00  0.00    +0.000 F 
ATOM     17  F   UNL     1       2.785   3.878  20.956  0.00  0.00    +0.000 F 
ENDBRANCH  13  14
ENDBRANCH  12  13
ENDBRANCH  11  12
ENDBRANCH   3   6
BRANCH   1  20
ATOM     18  C   UNL     1      -0.652  10.494  18.854  0.00  0.00    +0.000 C 
ATOM     19  O   UNL     1      -1.316   9.527  18.490  0.00  0.00    +0.000 OA
ATOM     20  N   UNL     1       0.649  10.443  19.319  0.00  0.00    +0.000 N 
ATOM     21  H   UNL     1       1.206  11.284  19.433  0.00  0.00    +0.000 HD
BRANCH  18  22
ATOM     22  C   UNL     1      -1.263  11.892  18.811  0.00  0.00    +0.000 C 
BRANCH  22  26
ATOM     23  C   UNL     1      -3.931  12.748  22.098  0.00  0.00    +0.000 A 
ATOM     24  C   UNL     1      -2.597  12.452  22.359  0.00  0.00    +0.000 A 
ATOM     25  C   UNL     1      -1.734  12.178  21.295  0.00  0.00    +0.000 A 
ATOM     26  C   UNL     1      -2.197  12.188  19.967  0.00  0.00    +0.000 A 
ATOM     27  C   UNL     1      -3.538  12.510  19.722  0.00  0.00    +0.000 A 
ATOM     28  C   UNL     1      -4.411  12.773  20.785  0.00  0.00    +0.000 A 
BRANCH  23  29
ATOM     29  S   UNL     1      -5.056  13.070  23.446  0.00  0.00    +0.000 S 
ATOM     30  O   UNL     1      -4.773  12.136  24.494  0.00  0.00    +0.000 OA
ATOM     31  O   UNL     1      -6.392  13.157  22.842  0.00  0.00    +0.000 OA
BRANCH  29  33
ATOM     32  C   UNL     1      -5.660  15.729  23.689  0.00  0.00    +0.000 C 
ATOM     33  C   UNL     1      -4.589  14.704  23.998  0.00  0.00    +0.000 C 
ENDBRANCH  29  33
ENDBRANCH  23  29
ENDBRANCH  22  26
ENDBRANCH  18  22
ENDBRANCH   1  20
TORSDOF 9
ENDMDL
MODEL 9
REMARK VINA RESULT:      -7.5      3.544      9.743
REMARK  Name = 
REMARK  10 active torsions:
REMARK  status: ('A' for Active; 'I' for Inactive)
REMARK    1  A    between atoms: C_1  and  C_2
REMARK    2  A    between atoms: C_2  and  S_3
REMARK    3  A    between atoms: S_3  and  C_6
REMARK    4  A    between atoms: C_9  and  C_10
REMARK    5  A    between atoms: C_10  and  C_11
REMARK    6  A    between atoms: N_13  and  C_14
REMARK    7  A    between atoms: C_16  and  C_17
REMARK    8  A    between atoms: C_22  and  O_23
REMARK    9  A    between atoms: O_23  and  C_24
REMARK   10  A    between atoms: C_24  and  C_25
REMARK                            x       y       z     vdW  Elec       q    Type
REMARK                         _______ _______ _______ _____ _____    ______ ____
ROOT
ATOM      1  C   UNL     1       1.237   9.443  19.254  0.00  0.00    +0.000 A 
ATOM      2  C   UNL     1       2.079   8.891  18.318  0.00  0.00    +0.000 A 
ATOM      3  C   UNL     1       2.532   7.565  18.710  0.00  0.00    +0.000 A 
ATOM      4  C   UNL     1       2.128   7.289  20.002  0.00  0.00    +0.000 A 
ATOM      5  S   UNL     1       1.161   8.527  20.684  0.00  0.00    +0.000 S 
ENDROOT
BRANCH   3   6
ATOM      6  C   UNL     1       3.358   6.647  17.909  0.00  0.00    +0.000 A 
ATOM      7  C   UNL     1       4.210   7.192  16.944  0.00  0.00    +0.000 A 
ATOM      8  C   UNL     1       5.021   6.380  16.154  0.00  0.00    +0.000 A 
ATOM      9  C   UNL     1       4.962   5.017  16.354  0.00  0.00    +0.000 A 
ATOM     10  N   UNL     1       4.163   4.436  17.271  0.00  0.00    +0.000 NA
ATOM     11  C   UNL     1       3.382   5.250  18.030  0.00  0.00    +0.000 A 
BRANCH  11  12
ATOM     12  O   UNL     1       2.563   4.615  18.942  0.00  0.00    +0.000 OA
BRANCH  12  13
ATOM     13  C   UNL     1       1.477   3.899  18.319  0.00  0.00    +0.000 C 
BRANCH  13  14
ATOM     14  C   UNL     1       1.032   2.656  19.092  0.00  0.00    +0.000 C 
ATOM     15  F   UNL     1       0.121   1.914  18.422  0.00  0.00    +0.000 F 
ATOM     16  F   UNL     1       2.094   1.843  19.325  0.00  0.00    +0.000 F 
ATOM     17  F   UNL     1       0.507   2.967  20.299  0.00  0.00    +0.000 F 
ENDBRANCH  13  14
ENDBRANCH  12  13
ENDBRANCH  11  12
ENDBRANCH   3   6
BRANCH   1  20
ATOM     18  C   UNL     1      -0.798  10.608  18.889  0.00  0.00    +0.000 C 
ATOM     19  O   UNL     1      -1.441   9.601  18.609  0.00  0.00    +0.000 OA
ATOM     20  N   UNL     1       0.535  10.633  19.255  0.00  0.00    +0.000 N 
ATOM     21  H   UNL     1       1.058  11.502  19.298  0.00  0.00    +0.000 HD
BRANCH  18  22
ATOM     22  C   UNL     1      -1.476  11.976  18.846  0.00  0.00    +0.000 C 
BRANCH  22  26
ATOM     23  C   UNL     1      -3.939  12.794  22.300  0.00  0.00    +0.000 A 
ATOM     24  C   UNL     1      -4.503  12.848  21.029  0.00  0.00    +0.000 A 
ATOM     25  C   UNL     1      -3.706  12.581  19.912  0.00  0.00    +0.000 A 
ATOM     26  C   UNL     1      -2.342  12.267  20.055  0.00  0.00    +0.000 A 
ATOM     27  C   UNL     1      -1.798  12.195  21.344  0.00  0.00    +0.000 A 
ATOM     28  C   UNL     1      -2.587  12.476  22.466  0.00  0.00    +0.000 A 
BRANCH  23  29
ATOM     29  S   UNL     1      -4.933  13.163  23.736  0.00  0.00    +0.000 S 
ATOM     30  O   UNL     1      -4.596  14.482  24.182  0.00  0.00    +0.000 OA
ATOM     31  O   UNL     1      -4.802  12.001  24.624  0.00  0.00    +0.000 OA
BRANCH  29  33
ATOM     32  C   UNL     1      -7.616  13.463  24.182  0.00  0.00    +0.000 C 
ATOM     33  C   UNL     1      -6.600  13.187  23.094  0.00  0.00    +0.000 C 
ENDBRANCH  29  33
ENDBRANCH  23  29
ENDBRANCH  22  26
ENDBRANCH  18  22
ENDBRANCH   1  20
TORSDOF 9
ENDMDL
