MODEL 1
REMARK VINA RESULT:      -8.1      0.000      0.000
REMARK  Name = 
REMARK  4 active torsions:
REMARK  status: ('A' for Active; 'I' for Inactive)
REMARK    1  A    between atoms: C_1  and  C_2
REMARK    2  A    between atoms: C_12  and  C_13
REMARK    3  A    between atoms: N_15  and  C_16
REMARK    4  A    between atoms: C_22  and  C_23
REMARK                            x       y       z     vdW  Elec       q    Type
REMARK                         _______ _______ _______ _____ _____    ______ ____
ROOT
ATOM      1  C   UNL     1       2.563   7.939  18.190  0.00  0.00    +0.000 C 
ATOM      2  O   UNL     1       2.551   8.475  17.086  0.00  0.00    +0.000 OA
ATOM      3  N   UNL     1       3.274   6.792  18.521  0.00  0.00    +0.000 N 
ATOM      4  H   UNL     1       3.068   6.444  19.460  0.00  0.00    +0.000 HD
ENDROOT
BRANCH   1  16
ATOM      5  C   UNL     1       1.759   6.340  20.822  0.00  0.00    +0.000 C 
ATOM      6  C   UNL     1       1.430   7.742  20.443  0.00  0.00    +0.000 A 
ATOM      7  S   UNL     1       0.525   8.719  21.506  0.00  0.00    +0.000 S 
ATOM      8  C   UNL     1       0.551  10.029  20.377  0.00  0.00    +0.000 A 
ATOM      9  N   UNL     1      -0.114  11.195  20.607  0.00  0.00    +0.000 N 
ATOM     10  C   UNL     1      -0.363  11.726  21.944  0.00  0.00    +0.000 C 
ATOM     11  C   UNL     1      -1.852  12.030  22.100  0.00  0.00    +0.000 C 
ATOM     12  C   UNL     1      -2.352  12.939  20.978  0.00  0.00    +0.000 C 
ATOM     13  C   UNL     1      -1.981  12.382  19.602  0.00  0.00    +0.000 C 
ATOM     14  C   UNL     1      -0.484  12.067  19.499  0.00  0.00    +0.000 C 
ATOM     15  N   UNL     1       1.220   9.759  19.272  0.00  0.00    +0.000 NA
ATOM     16  C   UNL     1       1.748   8.462  19.301  0.00  0.00    +0.000 A 
ENDBRANCH   1  16
BRANCH   3  17
ATOM     17  C   UNL     1       4.123   6.034  17.673  0.00  0.00    +0.000 A 
ATOM     18  C   UNL     1       5.345   6.556  17.209  0.00  0.00    +0.000 A 
ATOM     19  C   UNL     1       6.172   5.837  16.345  0.00  0.00    +0.000 A 
ATOM     20  C   UNL     1       5.793   4.574  15.932  0.00  0.00    +0.000 A 
ATOM     21  F   UNL     1       6.572   3.886  15.088  0.00  0.00    +0.000 F 
ATOM     22  C   UNL     1       4.609   4.016  16.388  0.00  0.00    +0.000 A 
ATOM     23  C   UNL     1       3.764   4.728  17.272  0.00  0.00    +0.000 A 
BRANCH  23  24
ATOM     24  C   UNL     1       2.502   4.026  17.700  0.00  0.00    +0.000 C 
ATOM     25  F   UNL     1       2.443   3.733  19.029  0.00  0.00    +0.000 F 
ATOM     26  F   UNL     1       1.385   4.758  17.432  0.00  0.00    +0.000 F 
ATOM     27  F   UNL     1       2.329   2.840  17.053  0.00  0.00    +0.000 F 
ENDBRANCH  23  24
ENDBRANCH   3  17
TORSDOF 3
ENDMDL
MODEL 2
REMARK VINA RESULT:      -8.1      1.645      2.007
REMARK  Name = 
REMARK  4 active torsions:
REMARK  status: ('A' for Active; 'I' for Inactive)
REMARK    1  A    between atoms: C_1  and  C_2
REMARK    2  A    between atoms: C_12  and  C_13
REMARK    3  A    between atoms: N_15  and  C_16
REMARK    4  A    between atoms: C_22  and  C_23
REMARK                            x       y       z     vdW  Elec       q    Type
REMARK                         _______ _______ _______ _____ _____    ______ ____
ROOT
ATOM      1  C   UNL     1       2.206   8.511  17.971  0.00  0.00    +0.000 C 
ATOM      2  O   UNL     1       2.852   9.105  17.114  0.00  0.00    +0.000 OA
ATOM      3  N   UNL     1       2.406   7.192  18.360  0.00  0.00    +0.000 N 
ATOM      4  H   UNL     1       1.695   6.849  19.010  0.00  0.00    +0.000 HD
ENDROOT
BRANCH   1  16
ATOM      5  C   UNL     1       1.604   8.375  21.094  0.00  0.00    +0.000 C 
ATOM      6  C   UNL     1       0.851   9.093  20.027  0.00  0.00    +0.000 A 
ATOM      7  S   UNL     1      -0.521  10.018  20.431  0.00  0.00    +0.000 S 
ATOM      8  C   UNL     1      -0.784  10.415  18.768  0.00  0.00    +0.000 A 
ATOM      9  N   UNL     1      -1.862  11.141  18.360  0.00  0.00    +0.000 N 
ATOM     10  C   UNL     1      -2.518  12.142  19.196  0.00  0.00    +0.000 C 
ATOM     11  C   UNL     1      -4.016  11.851  19.254  0.00  0.00    +0.000 C 
ATOM     12  C   UNL     1      -4.613  11.739  17.851  0.00  0.00    +0.000 C 
ATOM     13  C   UNL     1      -3.829  10.747  16.989  0.00  0.00    +0.000 C 
ATOM     14  C   UNL     1      -2.328  11.061  16.982  0.00  0.00    +0.000 C 
ATOM     15  N   UNL     1       0.119   9.901  17.955  0.00  0.00    +0.000 NA
ATOM     16  C   UNL     1       1.075   9.158  18.660  0.00  0.00    +0.000 A 
ENDBRANCH   1  16
BRANCH   3  17
ATOM     17  C   UNL     1       3.387   6.291  17.868  0.00  0.00    +0.000 A 
ATOM     18  C   UNL     1       4.690   6.727  17.564  0.00  0.00    +0.000 A 
ATOM     19  C   UNL     1       5.653   5.861  17.044  0.00  0.00    +0.000 A 
ATOM     20  C   UNL     1       5.330   4.536  16.823  0.00  0.00    +0.000 A 
ATOM     21  F   UNL     1       6.243   3.704  16.307  0.00  0.00    +0.000 F 
ATOM     22  C   UNL     1       4.065   4.064  17.135  0.00  0.00    +0.000 A 
ATOM     23  C   UNL     1       3.080   4.927  17.671  0.00  0.00    +0.000 A 
BRANCH  23  24
ATOM     24  C   UNL     1       1.740   4.307  17.969  0.00  0.00    +0.000 C 
ATOM     25  F   UNL     1       1.302   4.495  19.245  0.00  0.00    +0.000 F 
ATOM     26  F   UNL     1       0.754   4.791  17.163  0.00  0.00    +0.000 F 
ATOM     27  F   UNL     1       1.743   2.958  17.777  0.00  0.00    +0.000 F 
ENDBRANCH  23  24
ENDBRANCH   3  17
TORSDOF 3
ENDMDL
MODEL 3
REMARK VINA RESULT:      -7.9      3.495      8.181
REMARK  Name = 
REMARK  4 active torsions:
REMARK  status: ('A' for Active; 'I' for Inactive)
REMARK    1  A    between atoms: C_1  and  C_2
REMARK    2  A    between atoms: C_12  and  C_13
REMARK    3  A    between atoms: N_15  and  C_16
REMARK    4  A    between atoms: C_22  and  C_23
REMARK                            x       y       z     vdW  Elec       q    Type
REMARK                         _______ _______ _______ _____ _____    ______ ____
ROOT
ATOM      1  C   UNL     1       1.830   6.338  20.150  0.00  0.00    +0.000 C 
ATOM      2  O   UNL     1       1.463   5.831  21.205  0.00  0.00    +0.000 OA
ATOM      3  N   UNL     1       1.678   7.675  19.802  0.00  0.00    +0.000 N 
ATOM      4  H   UNL     1       1.950   7.876  18.838  0.00  0.00    +0.000 HD
ENDROOT
BRANCH   1  16
ATOM      5  C   UNL     1       1.089   3.325  19.438  0.00  0.00    +0.000 C 
ATOM      6  C   UNL     1       2.091   4.219  18.792  0.00  0.00    +0.000 A 
ATOM      7  S   UNL     1       2.999   3.657  17.465  0.00  0.00    +0.000 S 
ATOM      8  C   UNL     1       3.864   5.154  17.382  0.00  0.00    +0.000 A 
ATOM      9  N   UNL     1       4.880   5.353  16.498  0.00  0.00    +0.000 N 
ATOM     10  C   UNL     1       4.957   4.688  15.200  0.00  0.00    +0.000 C 
ATOM     11  C   UNL     1       6.320   4.014  15.055  0.00  0.00    +0.000 C 
ATOM     12  C   UNL     1       7.457   5.006  15.302  0.00  0.00    +0.000 C 
ATOM     13  C   UNL     1       7.275   5.742  16.632  0.00  0.00    +0.000 C 
ATOM     14  C   UNL     1       5.885   6.379  16.745  0.00  0.00    +0.000 C 
ATOM     15  N   UNL     1       3.479   6.035  18.284  0.00  0.00    +0.000 NA
ATOM     16  C   UNL     1       2.450   5.526  19.088  0.00  0.00    +0.000 A 
ENDBRANCH   1  16
BRANCH   3  17
ATOM     17  C   UNL     1       1.093   8.704  20.586  0.00  0.00    +0.000 A 
ATOM     18  C   UNL     1       0.928   8.558  21.975  0.00  0.00    +0.000 A 
ATOM     19  C   UNL     1       0.321   9.545  22.754  0.00  0.00    +0.000 A 
ATOM     20  C   UNL     1      -0.129  10.705  22.152  0.00  0.00    +0.000 A 
ATOM     21  F   UNL     1      -0.729  11.648  22.889  0.00  0.00    +0.000 F 
ATOM     22  C   UNL     1       0.038  10.897  20.790  0.00  0.00    +0.000 A 
ATOM     23  C   UNL     1       0.660   9.909  19.989  0.00  0.00    +0.000 A 
BRANCH  23  24
ATOM     24  C   UNL     1       0.786  10.222  18.521  0.00  0.00    +0.000 C 
ATOM     25  F   UNL     1       2.062  10.200  18.047  0.00  0.00    +0.000 F 
ATOM     26  F   UNL     1       0.086   9.349  17.743  0.00  0.00    +0.000 F 
ATOM     27  F   UNL     1       0.301  11.458  18.215  0.00  0.00    +0.000 F 
ENDBRANCH  23  24
ENDBRANCH   3  17
TORSDOF 3
ENDMDL
MODEL 4
REMARK VINA RESULT:      -7.7      3.965      8.675
REMARK  Name = 
REMARK  4 active torsions:
REMARK  status: ('A' for Active; 'I' for Inactive)
REMARK    1  A    between atoms: C_1  and  C_2
REMARK    2  A    between atoms: C_12  and  C_13
REMARK    3  A    between atoms: N_15  and  C_16
REMARK    4  A    between atoms: C_22  and  C_23
REMARK                            x       y       z     vdW  Elec       q    Type
REMARK                         _______ _______ _______ _____ _____    ______ ____
ROOT
ATOM      1  C   UNL     1       1.269   8.775  20.912  0.00  0.00    +0.000 C 
ATOM      2  O   UNL     1       1.664   8.860  22.070  0.00  0.00    +0.000 OA
ATOM      3  N   UNL     1       0.220   9.502  20.363  0.00  0.00    +0.000 N 
ATOM      4  H   UNL     1      -0.025   9.209  19.415  0.00  0.00    +0.000 HD
ENDROOT
BRANCH   1  16
ATOM      5  C   UNL     1       2.104   9.392  17.903  0.00  0.00    +0.000 C 
ATOM      6  C   UNL     1       2.237   8.120  18.668  0.00  0.00    +0.000 A 
ATOM      7  S   UNL     1       2.944   6.756  17.931  0.00  0.00    +0.000 S 
ATOM      8  C   UNL     1       2.677   5.809  19.354  0.00  0.00    +0.000 A 
ATOM      9  N   UNL     1       2.979   4.482  19.406  0.00  0.00    +0.000 N 
ATOM     10  C   UNL     1       4.050   3.872  18.625  0.00  0.00    +0.000 C 
ATOM     11  C   UNL     1       3.497   2.676  17.853  0.00  0.00    +0.000 C 
ATOM     12  C   UNL     1       2.786   1.696  18.786  0.00  0.00    +0.000 C 
ATOM     13  C   UNL     1       1.740   2.406  19.648  0.00  0.00    +0.000 C 
ATOM     14  C   UNL     1       2.332   3.615  20.382  0.00  0.00    +0.000 C 
ATOM     15  N   UNL     1       2.109   6.483  20.336  0.00  0.00    +0.000 NA
ATOM     16  C   UNL     1       1.868   7.814  19.969  0.00  0.00    +0.000 A 
ENDBRANCH   1  16
BRANCH   3  17
ATOM     17  C   UNL     1      -0.580  10.479  21.013  0.00  0.00    +0.000 A 
ATOM     18  C   UNL     1      -0.699  10.507  22.415  0.00  0.00    +0.000 A 
ATOM     19  C   UNL     1      -1.511  11.438  23.067  0.00  0.00    +0.000 A 
ATOM     20  C   UNL     1      -2.217  12.364  22.324  0.00  0.00    +0.000 A 
ATOM     21  F   UNL     1      -3.011  13.247  22.940  0.00  0.00    +0.000 F 
ATOM     22  C   UNL     1      -2.105  12.384  20.943  0.00  0.00    +0.000 A 
ATOM     23  C   UNL     1      -1.279  11.453  20.268  0.00  0.00    +0.000 A 
BRANCH  23  24
ATOM     24  C   UNL     1      -1.236  11.564  18.767  0.00  0.00    +0.000 C 
ATOM     25  F   UNL     1      -1.424  10.388  18.107  0.00  0.00    +0.000 F 
ATOM     26  F   UNL     1      -2.182  12.416  18.282  0.00  0.00    +0.000 F 
ATOM     27  F   UNL     1      -0.042  12.049  18.321  0.00  0.00    +0.000 F 
ENDBRANCH  23  24
ENDBRANCH   3  17
TORSDOF 3
ENDMDL
MODEL 5
REMARK VINA RESULT:      -7.7      2.934      4.013
REMARK  Name = 
REMARK  4 active torsions:
REMARK  status: ('A' for Active; 'I' for Inactive)
REMARK    1  A    between atoms: C_1  and  C_2
REMARK    2  A    between atoms: C_12  and  C_13
REMARK    3  A    between atoms: N_15  and  C_16
REMARK    4  A    between atoms: C_22  and  C_23
REMARK                            x       y       z     vdW  Elec       q    Type
REMARK                         _______ _______ _______ _____ _____    ______ ____
ROOT
ATOM      1  C   UNL     1       4.343   4.627  18.170  0.00  0.00    +0.000 C 
ATOM      2  O   UNL     1       5.092   3.710  18.492  0.00  0.00    +0.000 OA
ATOM      3  N   UNL     1       4.375   5.306  16.958  0.00  0.00    +0.000 N 
ATOM      4  H   UNL     1       3.742   6.107  16.925  0.00  0.00    +0.000 HD
ENDROOT
BRANCH   1  16
ATOM      5  C   UNL     1       2.573   2.880  20.157  0.00  0.00    +0.000 C 
ATOM      6  C   UNL     1       2.585   4.358  19.969  0.00  0.00    +0.000 A 
ATOM      7  S   UNL     1       1.568   5.343  20.917  0.00  0.00    +0.000 S 
ATOM      8  C   UNL     1       2.121   6.762  20.096  0.00  0.00    +0.000 A 
ATOM      9  N   UNL     1       1.602   7.994  20.353  0.00  0.00    +0.000 N 
ATOM     10  C   UNL     1       1.057   8.380  21.651  0.00  0.00    +0.000 C 
ATOM     11  C   UNL     1      -0.348   8.948  21.462  0.00  0.00    +0.000 C 
ATOM     12  C   UNL     1      -0.355  10.080  20.435  0.00  0.00    +0.000 C 
ATOM     13  C   UNL     1       0.313   9.649  19.127  0.00  0.00    +0.000 C 
ATOM     14  C   UNL     1       1.709   9.061  19.366  0.00  0.00    +0.000 C 
ATOM     15  N   UNL     1       3.034   6.515  19.176  0.00  0.00    +0.000 NA
ATOM     16  C   UNL     1       3.328   5.147  19.103  0.00  0.00    +0.000 A 
ENDBRANCH   1  16
BRANCH   3  17
ATOM     17  C   UNL     1       5.251   5.071  15.866  0.00  0.00    +0.000 A 
ATOM     18  C   UNL     1       4.855   4.282  14.770  0.00  0.00    +0.000 A 
ATOM     19  C   UNL     1       5.718   4.012  13.707  0.00  0.00    +0.000 A 
ATOM     20  C   UNL     1       6.998   4.532  13.719  0.00  0.00    +0.000 A 
ATOM     21  F   UNL     1       7.837   4.262  12.712  0.00  0.00    +0.000 F 
ATOM     22  C   UNL     1       7.416   5.335  14.768  0.00  0.00    +0.000 A 
ATOM     23  C   UNL     1       6.550   5.626  15.849  0.00  0.00    +0.000 A 
BRANCH  23  24
ATOM     24  C   UNL     1       7.110   6.506  16.935  0.00  0.00    +0.000 C 
ATOM     25  F   UNL     1       8.139   7.305  16.540  0.00  0.00    +0.000 F 
ATOM     26  F   UNL     1       6.172   7.342  17.461  0.00  0.00    +0.000 F 
ATOM     27  F   UNL     1       7.589   5.783  17.987  0.00  0.00    +0.000 F 
ENDBRANCH  23  24
ENDBRANCH   3  17
TORSDOF 3
ENDMDL
MODEL 6
REMARK VINA RESULT:      -7.7      1.813      2.376
REMARK  Name = 
REMARK  4 active torsions:
REMARK  status: ('A' for Active; 'I' for Inactive)
REMARK    1  A    between atoms: C_1  and  C_2
REMARK    2  A    between atoms: C_12  and  C_13
REMARK    3  A    between atoms: N_15  and  C_16
REMARK    4  A    between atoms: C_22  and  C_23
REMARK                            x       y       z     vdW  Elec       q    Type
REMARK                         _______ _______ _______ _____ _____    ______ ____
ROOT
ATOM      1  C   UNL     1       1.740   8.915  18.482  0.00  0.00    +0.000 C 
ATOM      2  O   UNL     1       2.223   9.392  17.460  0.00  0.00    +0.000 OA
ATOM      3  N   UNL     1       2.037   7.662  19.005  0.00  0.00    +0.000 N 
ATOM      4  H   UNL     1       1.450   7.406  19.801  0.00  0.00    +0.000 HD
ENDROOT
BRANCH   1  16
ATOM      5  C   UNL     1       1.545   9.044  21.656  0.00  0.00    +0.000 C 
ATOM      6  C   UNL     1       0.670   9.692  20.639  0.00  0.00    +0.000 A 
ATOM      7  S   UNL     1      -0.625  10.680  21.138  0.00  0.00    +0.000 S 
ATOM      8  C   UNL     1      -1.096  10.948  19.495  0.00  0.00    +0.000 A 
ATOM      9  N   UNL     1      -2.207  11.665  19.170  0.00  0.00    +0.000 N 
ATOM     10  C   UNL     1      -2.736  12.745  19.998  0.00  0.00    +0.000 C 
ATOM     11  C   UNL     1      -4.218  12.496  20.270  0.00  0.00    +0.000 C 
ATOM     12  C   UNL     1      -4.993  12.287  18.969  0.00  0.00    +0.000 C 
ATOM     13  C   UNL     1      -4.340  11.211  18.099  0.00  0.00    +0.000 C 
ATOM     14  C   UNL     1      -2.849  11.486  17.874  0.00  0.00    +0.000 C 
ATOM     15  N   UNL     1      -0.313  10.349  18.618  0.00  0.00    +0.000 NA
ATOM     16  C   UNL     1       0.716   9.642  19.254  0.00  0.00    +0.000 A 
ENDBRANCH   1  16
BRANCH   3  17
ATOM     17  C   UNL     1       2.950   6.709  18.483  0.00  0.00    +0.000 A 
ATOM     18  C   UNL     1       3.857   7.051  17.462  0.00  0.00    +0.000 A 
ATOM     19  C   UNL     1       4.735   6.115  16.913  0.00  0.00    +0.000 A 
ATOM     20  C   UNL     1       4.726   4.815  17.381  0.00  0.00    +0.000 A 
ATOM     21  F   UNL     1       5.552   3.908  16.847  0.00  0.00    +0.000 F 
ATOM     22  C   UNL     1       3.866   4.447  18.403  0.00  0.00    +0.000 A 
ATOM     23  C   UNL     1       2.975   5.386  18.977  0.00  0.00    +0.000 A 
BRANCH  23  24
ATOM     24  C   UNL     1       2.085   4.875  20.078  0.00  0.00    +0.000 C 
ATOM     25  F   UNL     1       1.837   5.777  21.068  0.00  0.00    +0.000 F 
ATOM     26  F   UNL     1       0.863   4.485  19.618  0.00  0.00    +0.000 F 
ATOM     27  F   UNL     1       2.610   3.782  20.700  0.00  0.00    +0.000 F 
ENDBRANCH  23  24
ENDBRANCH   3  17
TORSDOF 3
ENDMDL
MODEL 7
REMARK VINA RESULT:      -7.7      4.315      8.838
REMARK  Name = 
REMARK  4 active torsions:
REMARK  status: ('A' for Active; 'I' for Inactive)
REMARK    1  A    between atoms: C_1  and  C_2
REMARK    2  A    between atoms: C_12  and  C_13
REMARK    3  A    between atoms: N_15  and  C_16
REMARK    4  A    between atoms: C_22  and  C_23
REMARK                            x       y       z     vdW  Elec       q    Type
REMARK                         _______ _______ _______ _____ _____    ______ ____
ROOT
ATOM      1  C   UNL     1       1.101   9.437  21.143  0.00  0.00    +0.000 C 
ATOM      2  O   UNL     1       1.630   9.650  22.229  0.00  0.00    +0.000 OA
ATOM      3  N   UNL     1      -0.010  10.105  20.642  0.00  0.00    +0.000 N 
ATOM      4  H   UNL     1      -0.362   9.708  19.769  0.00  0.00    +0.000 HD
ENDROOT
BRANCH   1  16
ATOM      5  C   UNL     1       1.886   9.787  18.077  0.00  0.00    +0.000 C 
ATOM      6  C   UNL     1       1.942   8.561  18.923  0.00  0.00    +0.000 A 
ATOM      7  S   UNL     1       2.514   7.099  18.262  0.00  0.00    +0.000 S 
ATOM      8  C   UNL     1       2.219   6.272  19.752  0.00  0.00    +0.000 A 
ATOM      9  N   UNL     1       2.416   4.931  19.886  0.00  0.00    +0.000 N 
ATOM     10  C   UNL     1       3.411   4.186  19.119  0.00  0.00    +0.000 C 
ATOM     11  C   UNL     1       2.740   2.991  18.445  0.00  0.00    +0.000 C 
ATOM     12  C   UNL     1       1.984   2.135  19.461  0.00  0.00    +0.000 C 
ATOM     13  C   UNL     1       1.025   2.982  20.301  0.00  0.00    +0.000 C 
ATOM     14  C   UNL     1       1.735   4.184  20.935  0.00  0.00    +0.000 C 
ATOM     15  N   UNL     1       1.738   7.052  20.701  0.00  0.00    +0.000 NA
ATOM     16  C   UNL     1       1.592   8.371  20.251  0.00  0.00    +0.000 A 
ENDBRANCH   1  16
BRANCH   3  17
ATOM     17  C   UNL     1      -0.733  11.154  21.267  0.00  0.00    +0.000 A 
ATOM     18  C   UNL     1      -1.246  11.012  22.569  0.00  0.00    +0.000 A 
ATOM     19  C   UNL     1      -1.992  12.020  23.182  0.00  0.00    +0.000 A 
ATOM     20  C   UNL     1      -2.234  13.198  22.502  0.00  0.00    +0.000 A 
ATOM     21  F   UNL     1      -2.963  14.162  23.075  0.00  0.00    +0.000 F 
ATOM     22  C   UNL     1      -1.723  13.386  21.227  0.00  0.00    +0.000 A 
ATOM     23  C   UNL     1      -0.958  12.376  20.595  0.00  0.00    +0.000 A 
BRANCH  23  24
ATOM     24  C   UNL     1      -0.456  12.687  19.210  0.00  0.00    +0.000 C 
ATOM     25  F   UNL     1      -0.861  11.808  18.252  0.00  0.00    +0.000 F 
ATOM     26  F   UNL     1      -0.855  13.916  18.778  0.00  0.00    +0.000 F 
ATOM     27  F   UNL     1       0.905  12.699  19.146  0.00  0.00    +0.000 F 
ENDBRANCH  23  24
ENDBRANCH   3  17
TORSDOF 3
ENDMDL
MODEL 8
REMARK VINA RESULT:      -7.7      1.875      2.266
REMARK  Name = 
REMARK  4 active torsions:
REMARK  status: ('A' for Active; 'I' for Inactive)
REMARK    1  A    between atoms: C_1  and  C_2
REMARK    2  A    between atoms: C_12  and  C_13
REMARK    3  A    between atoms: N_15  and  C_16
REMARK    4  A    between atoms: C_22  and  C_23
REMARK                            x       y       z     vdW  Elec       q    Type
REMARK                         _______ _______ _______ _____ _____    ______ ____
ROOT
ATOM      1  C   UNL     1       2.225   7.565  19.501  0.00  0.00    +0.000 C 
ATOM      2  O   UNL     1       2.765   7.038  20.469  0.00  0.00    +0.000 OA
ATOM      3  N   UNL     1       2.524   7.302  18.170  0.00  0.00    +0.000 N 
ATOM      4  H   UNL     1       2.042   7.922  17.516  0.00  0.00    +0.000 HD
ENDROOT
BRANCH   1  16
ATOM      5  C   UNL     1       1.489   9.019  22.236  0.00  0.00    +0.000 C 
ATOM      6  C   UNL     1       0.914   9.234  20.878  0.00  0.00    +0.000 A 
ATOM      7  S   UNL     1      -0.291  10.416  20.644  0.00  0.00    +0.000 S 
ATOM      8  C   UNL     1      -0.417  10.002  18.969  0.00  0.00    +0.000 A 
ATOM      9  N   UNL     1      -1.336  10.582  18.148  0.00  0.00    +0.000 N 
ATOM     10  C   UNL     1      -1.840  11.939  18.341  0.00  0.00    +0.000 C 
ATOM     11  C   UNL     1      -3.367  11.915  18.352  0.00  0.00    +0.000 C 
ATOM     12  C   UNL     1      -3.920  11.229  17.103  0.00  0.00    +0.000 C 
ATOM     13  C   UNL     1      -3.287   9.851  16.899  0.00  0.00    +0.000 C 
ATOM     14  C   UNL     1      -1.755   9.918  16.921  0.00  0.00    +0.000 C 
ATOM     15  N   UNL     1       0.413   9.046  18.599  0.00  0.00    +0.000 NA
ATOM     16  C   UNL     1       1.198   8.608  19.674  0.00  0.00    +0.000 A 
ENDBRANCH   1  16
BRANCH   3  17
ATOM     17  C   UNL     1       3.483   6.381  17.672  0.00  0.00    +0.000 A 
ATOM     18  C   UNL     1       4.775   6.801  17.305  0.00  0.00    +0.000 A 
ATOM     19  C   UNL     1       5.716   5.915  16.778  0.00  0.00    +0.000 A 
ATOM     20  C   UNL     1       5.381   4.585  16.613  0.00  0.00    +0.000 A 
ATOM     21  F   UNL     1       6.272   3.733  16.092  0.00  0.00    +0.000 F 
ATOM     22  C   UNL     1       4.127   4.128  16.987  0.00  0.00    +0.000 A 
ATOM     23  C   UNL     1       3.165   5.013  17.531  0.00  0.00    +0.000 A 
BRANCH  23  24
ATOM     24  C   UNL     1       1.835   4.409  17.899  0.00  0.00    +0.000 C 
ATOM     25  F   UNL     1       1.478   4.581  19.202  0.00  0.00    +0.000 F 
ATOM     26  F   UNL     1       0.811   4.923  17.162  0.00  0.00    +0.000 F 
ATOM     27  F   UNL     1       1.804   3.063  17.684  0.00  0.00    +0.000 F 
ENDBRANCH  23  24
ENDBRANCH   3  17
TORSDOF 3
ENDMDL
MODEL 9
REMARK VINA RESULT:      -7.6      2.223      3.003
REMARK  Name = 
REMARK  4 active torsions:
REMARK  status: ('A' for Active; 'I' for Inactive)
REMARK    1  A    between atoms: C_1  and  C_2
REMARK    2  A    between atoms: C_12  and  C_13
REMARK    3  A    between atoms: N_15  and  C_16
REMARK    4  A    between atoms: C_22  and  C_23
REMARK                            x       y       z     vdW  Elec       q    Type
REMARK                         _______ _______ _______ _____ _____    ______ ____
ROOT
ATOM      1  C   UNL     1       3.173   5.838  18.068  0.00  0.00    +0.000 C 
ATOM      2  O   UNL     1       2.767   4.724  17.753  0.00  0.00    +0.000 OA
ATOM      3  N   UNL     1       4.331   6.439  17.591  0.00  0.00    +0.000 N 
ATOM      4  H   UNL     1       4.551   7.322  18.056  0.00  0.00    +0.000 HD
ENDROOT
BRANCH   1  16
ATOM      5  C   UNL     1       2.244   4.868  20.954  0.00  0.00    +0.000 C 
ATOM      6  C   UNL     1       2.084   6.207  20.322  0.00  0.00    +0.000 A 
ATOM      7  S   UNL     1       1.337   7.471  21.187  0.00  0.00    +0.000 S 
ATOM      8  C   UNL     1       1.498   8.537  19.834  0.00  0.00    +0.000 A 
ATOM      9  N   UNL     1       0.991   9.800  19.845  0.00  0.00    +0.000 N 
ATOM     10  C   UNL     1       0.846  10.596  21.061  0.00  0.00    +0.000 C 
ATOM     11  C   UNL     1      -0.588  11.112  21.161  0.00  0.00    +0.000 C 
ATOM     12  C   UNL     1      -0.999  11.856  19.891  0.00  0.00    +0.000 C 
ATOM     13  C   UNL     1      -0.738  11.011  18.642  0.00  0.00    +0.000 C 
ATOM     14  C   UNL     1       0.704  10.493  18.595  0.00  0.00    +0.000 C 
ATOM     15  N   UNL     1       2.098   7.984  18.796  0.00  0.00    +0.000 NA
ATOM     16  C   UNL     1       2.459   6.657  19.064  0.00  0.00    +0.000 A 
ENDBRANCH   1  16
BRANCH   3  17
ATOM     17  C   UNL     1       5.252   5.903  16.652  0.00  0.00    +0.000 A 
ATOM     18  C   UNL     1       4.897   5.727  15.302  0.00  0.00    +0.000 A 
ATOM     19  C   UNL     1       5.777   5.166  14.375  0.00  0.00    +0.000 A 
ATOM     20  C   UNL     1       7.038   4.775  14.784  0.00  0.00    +0.000 A 
ATOM     21  F   UNL     1       7.882   4.220  13.906  0.00  0.00    +0.000 F 
ATOM     22  C   UNL     1       7.434   4.957  16.100  0.00  0.00    +0.000 A 
ATOM     23  C   UNL     1       6.555   5.531  17.050  0.00  0.00    +0.000 A 
BRANCH  23  24
ATOM     24  C   UNL     1       7.089   5.678  18.450  0.00  0.00    +0.000 C 
ATOM     25  F   UNL     1       6.175   5.436  19.431  0.00  0.00    +0.000 F 
ATOM     26  F   UNL     1       8.131   4.836  18.699  0.00  0.00    +0.000 F 
ATOM     27  F   UNL     1       7.564   6.932  18.691  0.00  0.00    +0.000 F 
ENDBRANCH  23  24
ENDBRANCH   3  17
TORSDOF 3
ENDMDL
