MODEL 1
REMARK VINA RESULT:      -8.7      0.000      0.000
REMARK  Name = 
REMARK  7 active torsions:
REMARK  status: ('A' for Active; 'I' for Inactive)
REMARK    1  A    between atoms: C_1  and  C_2
REMARK    2  A    between atoms: C_6  and  C_8
REMARK    3  A    between atoms: C_8  and  C_9
REMARK    4  A    between atoms: C_8  and  C_10
REMARK    5  A    between atoms: C_12  and  C_13
REMARK    6  A    between atoms: C_17  and  C_18
REMARK    7  A    between atoms: C_19  and  C_20
REMARK                            x       y       z     vdW  Elec       q    Type
REMARK                         _______ _______ _______ _____ _____    ______ ____
ROOT
ATOM      1  C   UNL     1       1.773   8.608  19.304  0.00  0.00    +0.000 A 
ATOM      2  C   UNL     1       2.161   8.717  17.957  0.00  0.00    +0.000 A 
ATOM      3  C   UNL     1       2.913   7.724  17.311  0.00  0.00    +0.000 A 
ATOM      4  C   UNL     1       3.334   6.600  18.043  0.00  0.00    +0.000 A 
ATOM      5  C   UNL     1       4.069   5.401  17.789  0.00  0.00    +0.000 A 
ATOM      6  N   UNL     1       4.142   4.634  18.887  0.00  0.00    +0.000 NA
ATOM      7  N   UNL     1       3.486   5.332  19.821  0.00  0.00    +0.000 N 
ATOM      8  C   UNL     1       2.960   6.512  19.377  0.00  0.00    +0.000 A 
ATOM      9  C   UNL     1       2.181   7.479  20.030  0.00  0.00    +0.000 A 
ATOM     10  H   UNL     1       3.420   4.938  20.752  0.00  0.00    +0.000 HD
ENDROOT
BRANCH   1  19
ATOM     11  C   UNL     1      -0.425   8.403  21.764  0.00  0.00    +0.000 C 
ATOM     12  C   UNL     1      -0.015   9.588  20.962  0.00  0.00    +0.000 A 
ATOM     13  N   UNL     1      -0.621  10.809  21.270  0.00  0.00    +0.000 NA
ATOM     14  C   UNL     1      -0.204  11.736  20.442  0.00  0.00    +0.000 A 
ATOM     15  N   UNL     1      -0.660  13.031  20.503  0.00  0.00    +0.000 N 
ATOM     16  C   UNL     1      -0.448  14.002  19.545  0.00  0.00    +0.000 C 
ATOM     17  O   UNL     1       0.151  13.852  18.483  0.00  0.00    +0.000 OA
ATOM     18  S   UNL     1       0.964  11.244  19.321  0.00  0.00    +0.000 S 
ATOM     19  C   UNL     1       0.920   9.636  19.930  0.00  0.00    +0.000 A 
ATOM     20  H   UNL     1      -1.294  13.201  21.270  0.00  0.00    +0.000 HD
BRANCH  16  21
ATOM     21  C   UNL     1      -1.092  15.348  19.887  0.00  0.00    +0.000 C 
ATOM     22  C   UNL     1      -0.855  15.726  21.347  0.00  0.00    +0.000 C 
ATOM     23  C   UNL     1      -0.535  16.441  18.970  0.00  0.00    +0.000 C 
ENDBRANCH  16  21
ENDBRANCH   1  19
BRANCH   5  24
ATOM     24  C   UNL     1       4.634   4.968  16.548  0.00  0.00    +0.000 C 
ATOM     25  C   UNL     1       5.732   5.455  15.944  0.00  0.00    +0.000 C 
BRANCH  25  26
ATOM     26  C   UNL     1       6.225   4.960  14.653  0.00  0.00    +0.000 A 
ATOM     27  C   UNL     1       5.516   3.986  13.957  0.00  0.00    +0.000 A 
ATOM     28  C   UNL     1       6.019   3.533  12.739  0.00  0.00    +0.000 A 
ATOM     29  C   UNL     1       7.206   4.062  12.254  0.00  0.00    +0.000 A 
ATOM     30  C   UNL     1       7.848   5.028  13.008  0.00  0.00    +0.000 A 
ATOM     31  N   UNL     1       7.385   5.482  14.190  0.00  0.00    +0.000 NA
ENDBRANCH  25  26
ENDBRANCH   5  24
TORSDOF 4
ENDMDL
MODEL 2
REMARK VINA RESULT:      -8.7      3.409     10.856
REMARK  Name = 
REMARK  7 active torsions:
REMARK  status: ('A' for Active; 'I' for Inactive)
REMARK    1  A    between atoms: C_1  and  C_2
REMARK    2  A    between atoms: C_6  and  C_8
REMARK    3  A    between atoms: C_8  and  C_9
REMARK    4  A    between atoms: C_8  and  C_10
REMARK    5  A    between atoms: C_12  and  C_13
REMARK    6  A    between atoms: C_17  and  C_18
REMARK    7  A    between atoms: C_19  and  C_20
REMARK                            x       y       z     vdW  Elec       q    Type
REMARK                         _______ _______ _______ _____ _____    ______ ____
ROOT
ATOM      1  C   UNL     1       4.358   5.775  17.438  0.00  0.00    +0.000 A 
ATOM      2  C   UNL     1       3.941   7.102  17.229  0.00  0.00    +0.000 A 
ATOM      3  C   UNL     1       3.075   7.763  18.113  0.00  0.00    +0.000 A 
ATOM      4  C   UNL     1       2.569   7.067  19.224  0.00  0.00    +0.000 A 
ATOM      5  C   UNL     1       1.712   7.347  20.334  0.00  0.00    +0.000 A 
ATOM      6  N   UNL     1       1.598   6.282  21.140  0.00  0.00    +0.000 NA
ATOM      7  N   UNL     1       2.349   5.342  20.554  0.00  0.00    +0.000 N 
ATOM      8  C   UNL     1       2.973   5.752  19.411  0.00  0.00    +0.000 A 
ATOM      9  C   UNL     1       3.864   5.086  18.556  0.00  0.00    +0.000 A 
ATOM     10  H   UNL     1       2.405   4.433  20.997  0.00  0.00    +0.000 HD
ENDROOT
BRANCH   1  19
ATOM     11  C   UNL     1       7.642   5.460  17.636  0.00  0.00    +0.000 C 
ATOM     12  C   UNL     1       6.711   4.985  16.576  0.00  0.00    +0.000 A 
ATOM     13  N   UNL     1       7.270   4.296  15.497  0.00  0.00    +0.000 NA
ATOM     14  C   UNL     1       6.337   4.000  14.625  0.00  0.00    +0.000 A 
ATOM     15  N   UNL     1       6.614   3.341  13.451  0.00  0.00    +0.000 N 
ATOM     16  C   UNL     1       5.744   3.191  12.389  0.00  0.00    +0.000 C 
ATOM     17  O   UNL     1       4.605   3.646  12.319  0.00  0.00    +0.000 OA
ATOM     18  S   UNL     1       4.762   4.443  15.058  0.00  0.00    +0.000 S 
ATOM     19  C   UNL     1       5.326   5.135  16.528  0.00  0.00    +0.000 A 
ATOM     20  H   UNL     1       7.582   3.068  13.359  0.00  0.00    +0.000 HD
BRANCH  16  21
ATOM     21  C   UNL     1       6.344   2.419  11.212  0.00  0.00    +0.000 C 
ATOM     22  C   UNL     1       7.868   2.503  11.205  0.00  0.00    +0.000 C 
ATOM     23  C   UNL     1       5.904   0.953  11.271  0.00  0.00    +0.000 C 
ENDBRANCH  16  21
ENDBRANCH   1  19
BRANCH   5  24
ATOM     24  C   UNL     1       1.068   8.585  20.650  0.00  0.00    +0.000 C 
ATOM     25  C   UNL     1       0.876   9.109  21.873  0.00  0.00    +0.000 C 
BRANCH  25  26
ATOM     26  C   UNL     1       0.180  10.381  22.103  0.00  0.00    +0.000 A 
ATOM     27  C   UNL     1      -0.915  10.439  22.959  0.00  0.00    +0.000 A 
ATOM     28  C   UNL     1      -1.556  11.662  23.146  0.00  0.00    +0.000 A 
ATOM     29  C   UNL     1      -1.088  12.784  22.477  0.00  0.00    +0.000 A 
ATOM     30  C   UNL     1       0.007  12.641  21.645  0.00  0.00    +0.000 A 
ATOM     31  N   UNL     1       0.645  11.469  21.444  0.00  0.00    +0.000 NA
ENDBRANCH  25  26
ENDBRANCH   5  24
TORSDOF 4
ENDMDL
MODEL 3
REMARK VINA RESULT:      -8.6      2.926     10.970
REMARK  Name = 
REMARK  7 active torsions:
REMARK  status: ('A' for Active; 'I' for Inactive)
REMARK    1  A    between atoms: C_1  and  C_2
REMARK    2  A    between atoms: C_6  and  C_8
REMARK    3  A    between atoms: C_8  and  C_9
REMARK    4  A    between atoms: C_8  and  C_10
REMARK    5  A    between atoms: C_12  and  C_13
REMARK    6  A    between atoms: C_17  and  C_18
REMARK    7  A    between atoms: C_19  and  C_20
REMARK                            x       y       z     vdW  Elec       q    Type
REMARK                         _______ _______ _______ _____ _____    ______ ____
ROOT
ATOM      1  C   UNL     1       1.831   8.164  19.399  0.00  0.00    +0.000 A 
ATOM      2  C   UNL     1       1.400   8.279  20.733  0.00  0.00    +0.000 A 
ATOM      3  C   UNL     1       0.682   9.392  21.195  0.00  0.00    +0.000 A 
ATOM      4  C   UNL     1       0.419  10.452  20.310  0.00  0.00    +0.000 A 
ATOM      5  C   UNL     1      -0.259  11.710  20.355  0.00  0.00    +0.000 A 
ATOM      6  N   UNL     1      -0.230  12.321  19.162  0.00  0.00    +0.000 NA
ATOM      7  N   UNL     1       0.462  11.484  18.380  0.00  0.00    +0.000 N 
ATOM      8  C   UNL     1       0.865  10.336  19.001  0.00  0.00    +0.000 A 
ATOM      9  C   UNL     1       1.555   9.216  18.513  0.00  0.00    +0.000 A 
ATOM     10  H   UNL     1       0.616  11.751  17.415  0.00  0.00    +0.000 HD
ENDROOT
BRANCH   1  19
ATOM     11  C   UNL     1       2.041   5.142  20.722  0.00  0.00    +0.000 C 
ATOM     12  C   UNL     1       2.632   5.662  19.458  0.00  0.00    +0.000 A 
ATOM     13  N   UNL     1       3.385   4.770  18.691  0.00  0.00    +0.000 NA
ATOM     14  C   UNL     1       3.886   5.390  17.649  0.00  0.00    +0.000 A 
ATOM     15  N   UNL     1       4.692   4.752  16.736  0.00  0.00    +0.000 N 
ATOM     16  C   UNL     1       5.433   5.373  15.750  0.00  0.00    +0.000 C 
ATOM     17  O   UNL     1       5.510   6.583  15.556  0.00  0.00    +0.000 OA
ATOM     18  S   UNL     1       3.441   7.013  17.479  0.00  0.00    +0.000 S 
ATOM     19  C   UNL     1       2.520   6.947  18.930  0.00  0.00    +0.000 A 
ATOM     20  H   UNL     1       4.810   3.767  16.918  0.00  0.00    +0.000 HD
BRANCH  16  21
ATOM     21  C   UNL     1       6.244   4.398  14.892  0.00  0.00    +0.000 C 
ATOM     22  C   UNL     1       5.423   3.868  13.719  0.00  0.00    +0.000 C 
ATOM     23  C   UNL     1       7.509   5.088  14.372  0.00  0.00    +0.000 C 
ENDBRANCH  16  21
ENDBRANCH   1  19
BRANCH   5  24
ATOM     24  C   UNL     1      -0.954  12.289  21.464  0.00  0.00    +0.000 C 
ATOM     25  C   UNL     1      -0.610  13.394  22.148  0.00  0.00    +0.000 C 
BRANCH  25  26
ATOM     26  C   UNL     1      -1.376  13.903  23.292  0.00  0.00    +0.000 A 
ATOM     27  C   UNL     1      -2.689  13.490  23.496  0.00  0.00    +0.000 A 
ATOM     28  C   UNL     1      -3.389  14.000  24.588  0.00  0.00    +0.000 A 
ATOM     29  C   UNL     1      -2.763  14.900  25.438  0.00  0.00    +0.000 A 
ATOM     30  C   UNL     1      -1.455  15.257  25.164  0.00  0.00    +0.000 A 
ATOM     31  N   UNL     1      -0.755  14.780  24.114  0.00  0.00    +0.000 NA
ENDBRANCH  25  26
ENDBRANCH   5  24
TORSDOF 4
ENDMDL
MODEL 4
REMARK VINA RESULT:      -8.5      2.404      3.071
REMARK  Name = 
REMARK  7 active torsions:
REMARK  status: ('A' for Active; 'I' for Inactive)
REMARK    1  A    between atoms: C_1  and  C_2
REMARK    2  A    between atoms: C_6  and  C_8
REMARK    3  A    between atoms: C_8  and  C_9
REMARK    4  A    between atoms: C_8  and  C_10
REMARK    5  A    between atoms: C_12  and  C_13
REMARK    6  A    between atoms: C_17  and  C_18
REMARK    7  A    between atoms: C_19  and  C_20
REMARK                            x       y       z     vdW  Elec       q    Type
REMARK                         _______ _______ _______ _____ _____    ______ ____
ROOT
ATOM      1  C   UNL     1       1.067   9.865  19.469  0.00  0.00    +0.000 A 
ATOM      2  C   UNL     1       1.616   9.810  18.175  0.00  0.00    +0.000 A 
ATOM      3  C   UNL     1       2.339   8.699  17.716  0.00  0.00    +0.000 A 
ATOM      4  C   UNL     1       2.563   7.619  18.588  0.00  0.00    +0.000 A 
ATOM      5  C   UNL     1       3.203   6.342  18.530  0.00  0.00    +0.000 A 
ATOM      6  N   UNL     1       3.075   5.682  19.691  0.00  0.00    +0.000 NA
ATOM      7  N   UNL     1       2.386   6.521  20.473  0.00  0.00    +0.000 N 
ATOM      8  C   UNL     1       2.031   7.693  19.868  0.00  0.00    +0.000 A 
ATOM      9  C   UNL     1       1.278   8.780  20.334  0.00  0.00    +0.000 A 
ATOM     10  H   UNL     1       2.175   6.225  21.419  0.00  0.00    +0.000 HD
ENDROOT
BRANCH   1  19
ATOM     11  C   UNL     1       0.991  12.987  18.387  0.00  0.00    +0.000 C 
ATOM     12  C   UNL     1       0.192  12.343  19.466  0.00  0.00    +0.000 A 
ATOM     13  N   UNL     1      -0.740  13.140  20.135  0.00  0.00    +0.000 NA
ATOM     14  C   UNL     1      -1.314  12.450  21.090  0.00  0.00    +0.000 A 
ATOM     15  N   UNL     1      -2.259  13.000  21.924  0.00  0.00    +0.000 N 
ATOM     16  C   UNL     1      -2.742  12.421  23.081  0.00  0.00    +0.000 C 
ATOM     17  O   UNL     1      -2.385  11.345  23.555  0.00  0.00    +0.000 OA
ATOM     18  S   UNL     1      -0.851  10.827  21.201  0.00  0.00    +0.000 S 
ATOM     19  C   UNL     1       0.251  11.018  19.894  0.00  0.00    +0.000 A 
ATOM     20  H   UNL     1      -2.496  13.954  21.694  0.00  0.00    +0.000 HD
BRANCH  16  21
ATOM     21  C   UNL     1      -3.780  13.281  23.807  0.00  0.00    +0.000 C 
ATOM     22  C   UNL     1      -4.677  14.026  22.822  0.00  0.00    +0.000 C 
ATOM     23  C   UNL     1      -4.633  12.404  24.727  0.00  0.00    +0.000 C 
ENDBRANCH  16  21
ENDBRANCH   1  19
BRANCH   5  24
ATOM     24  C   UNL     1       3.863   5.745  17.410  0.00  0.00    +0.000 C 
ATOM     25  C   UNL     1       5.084   6.047  16.933  0.00  0.00    +0.000 C 
BRANCH  25  26
ATOM     26  C   UNL     1       5.672   5.392  15.758  0.00  0.00    +0.000 A 
ATOM     27  C   UNL     1       4.922   4.491  15.008  0.00  0.00    +0.000 A 
ATOM     28  C   UNL     1       5.516   3.882  13.904  0.00  0.00    +0.000 A 
ATOM     29  C   UNL     1       6.831   4.187  13.584  0.00  0.00    +0.000 A 
ATOM     30  C   UNL     1       7.505   5.095  14.381  0.00  0.00    +0.000 A 
ATOM     31  N   UNL     1       6.955   5.697  15.456  0.00  0.00    +0.000 NA
ENDBRANCH  25  26
ENDBRANCH   5  24
TORSDOF 4
ENDMDL
MODEL 5
REMARK VINA RESULT:      -8.5      3.076     10.983
REMARK  Name = 
REMARK  7 active torsions:
REMARK  status: ('A' for Active; 'I' for Inactive)
REMARK    1  A    between atoms: C_1  and  C_2
REMARK    2  A    between atoms: C_6  and  C_8
REMARK    3  A    between atoms: C_8  and  C_9
REMARK    4  A    between atoms: C_8  and  C_10
REMARK    5  A    between atoms: C_12  and  C_13
REMARK    6  A    between atoms: C_17  and  C_18
REMARK    7  A    between atoms: C_19  and  C_20
REMARK                            x       y       z     vdW  Elec       q    Type
REMARK                         _______ _______ _______ _____ _____    ______ ____
ROOT
ATOM      1  C   UNL     1       2.126   7.720  19.240  0.00  0.00    +0.000 A 
ATOM      2  C   UNL     1       1.704   7.753  20.581  0.00  0.00    +0.000 A 
ATOM      3  C   UNL     1       0.932   8.805  21.097  0.00  0.00    +0.000 A 
ATOM      4  C   UNL     1       0.602   9.886  20.262  0.00  0.00    +0.000 A 
ATOM      5  C   UNL     1      -0.144  11.101  20.368  0.00  0.00    +0.000 A 
ATOM      6  N   UNL     1      -0.161  11.763  19.202  0.00  0.00    +0.000 NA
ATOM      7  N   UNL     1       0.567  11.000  18.378  0.00  0.00    +0.000 N 
ATOM      8  C   UNL     1       1.039   9.850  18.944  0.00  0.00    +0.000 A 
ATOM      9  C   UNL     1       1.783   8.792  18.402  0.00  0.00    +0.000 A 
ATOM     10  H   UNL     1       0.695  11.316  17.424  0.00  0.00    +0.000 HD
ENDROOT
BRANCH   1  19
ATOM     11  C   UNL     1       2.613   4.697  20.485  0.00  0.00    +0.000 C 
ATOM     12  C   UNL     1       3.103   5.281  19.206  0.00  0.00    +0.000 A 
ATOM     13  N   UNL     1       3.879   4.459  18.384  0.00  0.00    +0.000 NA
ATOM     14  C   UNL     1       4.283   5.132  17.334  0.00  0.00    +0.000 A 
ATOM     15  N   UNL     1       5.086   4.570  16.370  0.00  0.00    +0.000 N 
ATOM     16  C   UNL     1       5.733   5.259  15.363  0.00  0.00    +0.000 C 
ATOM     17  O   UNL     1       5.715   6.476  15.192  0.00  0.00    +0.000 OA
ATOM     18  S   UNL     1       3.717   6.722  17.220  0.00  0.00    +0.000 S 
ATOM     19  C   UNL     1       2.875   6.564  18.712  0.00  0.00    +0.000 A 
ATOM     20  H   UNL     1       5.281   3.592  16.525  0.00  0.00    +0.000 HD
BRANCH  16  21
ATOM     21  C   UNL     1       6.567   4.361  14.446  0.00  0.00    +0.000 C 
ATOM     22  C   UNL     1       5.695   3.653  13.413  0.00  0.00    +0.000 C 
ATOM     23  C   UNL     1       7.642   5.191  13.739  0.00  0.00    +0.000 C 
ENDBRANCH  16  21
ENDBRANCH   1  19
BRANCH   5  24
ATOM     24  C   UNL     1      -0.856  11.593  21.506  0.00  0.00    +0.000 C 
ATOM     25  C   UNL     1      -1.869  12.477  21.509  0.00  0.00    +0.000 C 
BRANCH  25  26
ATOM     26  C   UNL     1      -2.526  12.943  22.736  0.00  0.00    +0.000 A 
ATOM     27  C   UNL     1      -2.158  14.154  23.314  0.00  0.00    +0.000 A 
ATOM     28  C   UNL     1      -2.797  14.560  24.483  0.00  0.00    +0.000 A 
ATOM     29  C   UNL     1      -3.778  13.751  25.039  0.00  0.00    +0.000 A 
ATOM     30  C   UNL     1      -4.085  12.563  24.401  0.00  0.00    +0.000 A 
ATOM     31  N   UNL     1      -3.481  12.145  23.269  0.00  0.00    +0.000 NA
ENDBRANCH  25  26
ENDBRANCH   5  24
TORSDOF 4
ENDMDL
MODEL 6
REMARK VINA RESULT:      -8.5      1.576      1.949
REMARK  Name = 
REMARK  7 active torsions:
REMARK  status: ('A' for Active; 'I' for Inactive)
REMARK    1  A    between atoms: C_1  and  C_2
REMARK    2  A    between atoms: C_6  and  C_8
REMARK    3  A    between atoms: C_8  and  C_9
REMARK    4  A    between atoms: C_8  and  C_10
REMARK    5  A    between atoms: C_12  and  C_13
REMARK    6  A    between atoms: C_17  and  C_18
REMARK    7  A    between atoms: C_19  and  C_20
REMARK                            x       y       z     vdW  Elec       q    Type
REMARK                         _______ _______ _______ _____ _____    ______ ____
ROOT
ATOM      1  C   UNL     1       1.088   9.556  19.324  0.00  0.00    +0.000 A 
ATOM      2  C   UNL     1       1.625   9.488  18.026  0.00  0.00    +0.000 A 
ATOM      3  C   UNL     1       2.393   8.398  17.590  0.00  0.00    +0.000 A 
ATOM      4  C   UNL     1       2.675   7.356  18.490  0.00  0.00    +0.000 A 
ATOM      5  C   UNL     1       3.373   6.109  18.462  0.00  0.00    +0.000 A 
ATOM      6  N   UNL     1       3.289   5.478  19.642  0.00  0.00    +0.000 NA
ATOM      7  N   UNL     1       2.570   6.307  20.408  0.00  0.00    +0.000 N 
ATOM      8  C   UNL     1       2.155   7.443  19.774  0.00  0.00    +0.000 A 
ATOM      9  C   UNL     1       1.357   8.508  20.217  0.00  0.00    +0.000 A 
ATOM     10  H   UNL     1       2.383   6.029  21.365  0.00  0.00    +0.000 HD
ENDROOT
BRANCH   1  19
ATOM     11  C   UNL     1      -1.944  10.427  18.335  0.00  0.00    +0.000 C 
ATOM     12  C   UNL     1      -1.052  11.081  19.332  0.00  0.00    +0.000 A 
ATOM     13  N   UNL     1      -1.536  12.228  19.967  0.00  0.00    +0.000 NA
ATOM     14  C   UNL     1      -0.618  12.719  20.763  0.00  0.00    +0.000 A 
ATOM     15  N   UNL     1      -0.821  13.864  21.496  0.00  0.00    +0.000 N 
ATOM     16  C   UNL     1       0.156  14.565  22.176  0.00  0.00    +0.000 C 
ATOM     17  O   UNL     1       1.353  14.291  22.207  0.00  0.00    +0.000 OA
ATOM     18  S   UNL     1       0.816  11.827  20.865  0.00  0.00    +0.000 S 
ATOM     19  C   UNL     1       0.223  10.682  19.726  0.00  0.00    +0.000 A 
ATOM     20  H   UNL     1      -1.749  14.248  21.399  0.00  0.00    +0.000 HD
BRANCH  16  21
ATOM     21  C   UNL     1      -0.373  15.811  22.891  0.00  0.00    +0.000 C 
ATOM     22  C   UNL     1       0.650  16.944  22.871  0.00  0.00    +0.000 C 
ATOM     23  C   UNL     1      -1.677  16.275  22.236  0.00  0.00    +0.000 C 
ENDBRANCH  16  21
ENDBRANCH   1  19
BRANCH   5  24
ATOM     24  C   UNL     1       4.049   5.510  17.352  0.00  0.00    +0.000 C 
ATOM     25  C   UNL     1       5.019   6.059  16.601  0.00  0.00    +0.000 C 
BRANCH  25  26
ATOM     26  C   UNL     1       5.639   5.372  15.461  0.00  0.00    +0.000 A 
ATOM     27  C   UNL     1       4.936   4.396  14.762  0.00  0.00    +0.000 A 
ATOM     28  C   UNL     1       5.559   3.759  13.691  0.00  0.00    +0.000 A 
ATOM     29  C   UNL     1       6.858   4.112  13.352  0.00  0.00    +0.000 A 
ATOM     30  C   UNL     1       7.485   5.093  14.098  0.00  0.00    +0.000 A 
ATOM     31  N   UNL     1       6.906   5.724  15.140  0.00  0.00    +0.000 NA
ENDBRANCH  25  26
ENDBRANCH   5  24
TORSDOF 4
ENDMDL
MODEL 7
REMARK VINA RESULT:      -8.4      1.748      1.964
REMARK  Name = 
REMARK  7 active torsions:
REMARK  status: ('A' for Active; 'I' for Inactive)
REMARK    1  A    between atoms: C_1  and  C_2
REMARK    2  A    between atoms: C_6  and  C_8
REMARK    3  A    between atoms: C_8  and  C_9
REMARK    4  A    between atoms: C_8  and  C_10
REMARK    5  A    between atoms: C_12  and  C_13
REMARK    6  A    between atoms: C_17  and  C_18
REMARK    7  A    between atoms: C_19  and  C_20
REMARK                            x       y       z     vdW  Elec       q    Type
REMARK                         _______ _______ _______ _____ _____    ______ ____
ROOT
ATOM      1  C   UNL     1       1.782   8.316  19.559  0.00  0.00    +0.000 A 
ATOM      2  C   UNL     1       2.216   8.535  18.239  0.00  0.00    +0.000 A 
ATOM      3  C   UNL     1       2.957   7.581  17.526  0.00  0.00    +0.000 A 
ATOM      4  C   UNL     1       3.319   6.381  18.162  0.00  0.00    +0.000 A 
ATOM      5  C   UNL     1       4.023   5.186  17.818  0.00  0.00    +0.000 A 
ATOM      6  N   UNL     1       4.038   4.319  18.842  0.00  0.00    +0.000 NA
ATOM      7  N   UNL     1       3.375   4.950  19.818  0.00  0.00    +0.000 N 
ATOM      8  C   UNL     1       2.901   6.184  19.471  0.00  0.00    +0.000 A 
ATOM      9  C   UNL     1       2.132   7.111  20.188  0.00  0.00    +0.000 A 
ATOM     10  H   UNL     1       3.267   4.474  20.705  0.00  0.00    +0.000 HD
ENDROOT
BRANCH   1  19
ATOM     11  C   UNL     1       1.763   9.322  22.708  0.00  0.00    +0.000 C 
ATOM     12  C   UNL     1       0.904   9.758  21.572  0.00  0.00    +0.000 A 
ATOM     13  N   UNL     1      -0.056  10.738  21.837  0.00  0.00    +0.000 NA
ATOM     14  C   UNL     1      -0.768  10.968  20.761  0.00  0.00    +0.000 A 
ATOM     15  N   UNL     1      -1.803  11.873  20.747  0.00  0.00    +0.000 N 
ATOM     16  C   UNL     1      -2.734  12.012  19.737  0.00  0.00    +0.000 C 
ATOM     17  O   UNL     1      -2.800  11.333  18.715  0.00  0.00    +0.000 OA
ATOM     18  S   UNL     1      -0.303  10.112  19.378  0.00  0.00    +0.000 S 
ATOM     19  C   UNL     1       0.943   9.311  20.253  0.00  0.00    +0.000 A 
ATOM     20  H   UNL     1      -1.919  12.370  21.619  0.00  0.00    +0.000 HD
BRANCH  16  21
ATOM     21  C   UNL     1      -3.776  13.099  20.012  0.00  0.00    +0.000 C 
ATOM     22  C   UNL     1      -5.129  12.745  19.399  0.00  0.00    +0.000 C 
ATOM     23  C   UNL     1      -3.927  13.307  21.522  0.00  0.00    +0.000 C 
ENDBRANCH  16  21
ENDBRANCH   1  19
BRANCH   5  24
ATOM     24  C   UNL     1       4.614   4.850  16.559  0.00  0.00    +0.000 C 
ATOM     25  C   UNL     1       5.766   5.322  16.052  0.00  0.00    +0.000 C 
BRANCH  25  26
ATOM     26  C   UNL     1       6.283   4.934  14.734  0.00  0.00    +0.000 A 
ATOM     27  C   UNL     1       5.583   4.029  13.944  0.00  0.00    +0.000 A 
ATOM     28  C   UNL     1       6.107   3.678  12.702  0.00  0.00    +0.000 A 
ATOM     29  C   UNL     1       7.308   4.237  12.287  0.00  0.00    +0.000 A 
ATOM     30  C   UNL     1       7.940   5.130  13.133  0.00  0.00    +0.000 A 
ATOM     31  N   UNL     1       7.455   5.486  14.341  0.00  0.00    +0.000 NA
ENDBRANCH  25  26
ENDBRANCH   5  24
TORSDOF 4
ENDMDL
MODEL 8
REMARK VINA RESULT:      -8.1      2.869     11.013
REMARK  Name = 
REMARK  7 active torsions:
REMARK  status: ('A' for Active; 'I' for Inactive)
REMARK    1  A    between atoms: C_1  and  C_2
REMARK    2  A    between atoms: C_6  and  C_8
REMARK    3  A    between atoms: C_8  and  C_9
REMARK    4  A    between atoms: C_8  and  C_10
REMARK    5  A    between atoms: C_12  and  C_13
REMARK    6  A    between atoms: C_17  and  C_18
REMARK    7  A    between atoms: C_19  and  C_20
REMARK                            x       y       z     vdW  Elec       q    Type
REMARK                         _______ _______ _______ _____ _____    ______ ____
ROOT
ATOM      1  C   UNL     1       1.520   8.584  19.339  0.00  0.00    +0.000 A 
ATOM      2  C   UNL     1       1.249   8.820  20.699  0.00  0.00    +0.000 A 
ATOM      3  C   UNL     1       0.456   9.894  21.129  0.00  0.00    +0.000 A 
ATOM      4  C   UNL     1      -0.053  10.794  20.176  0.00  0.00    +0.000 A 
ATOM      5  C   UNL     1      -0.879  11.961  20.175  0.00  0.00    +0.000 A 
ATOM      6  N   UNL     1      -1.080  12.412  18.928  0.00  0.00    +0.000 NA
ATOM      7  N   UNL     1      -0.389  11.565  18.155  0.00  0.00    +0.000 N 
ATOM      8  C   UNL     1       0.236  10.561  18.838  0.00  0.00    +0.000 A 
ATOM      9  C   UNL     1       0.999   9.474  18.387  0.00  0.00    +0.000 A 
ATOM     10  H   UNL     1      -0.394  11.722  17.154  0.00  0.00    +0.000 HD
ENDROOT
BRANCH   1  19
ATOM     11  C   UNL     1       1.788   5.572  20.674  0.00  0.00    +0.000 C 
ATOM     12  C   UNL     1       2.436   6.124  19.452  0.00  0.00    +0.000 A 
ATOM     13  N   UNL     1       3.282   5.272  18.737  0.00  0.00    +0.000 NA
ATOM     14  C   UNL     1       3.820   5.918  17.732  0.00  0.00    +0.000 A 
ATOM     15  N   UNL     1       4.715   5.323  16.874  0.00  0.00    +0.000 N 
ATOM     16  C   UNL     1       5.489   5.981  15.939  0.00  0.00    +0.000 C 
ATOM     17  O   UNL     1       5.520   7.195  15.751  0.00  0.00    +0.000 OA
ATOM     18  S   UNL     1       3.308   7.518  17.531  0.00  0.00    +0.000 S 
ATOM     19  C   UNL     1       2.297   7.403  18.918  0.00  0.00    +0.000 A 
ATOM     20  H   UNL     1       4.868   4.344  17.064  0.00  0.00    +0.000 HD
BRANCH  16  21
ATOM     21  C   UNL     1       6.402   5.050  15.138  0.00  0.00    +0.000 C 
ATOM     22  C   UNL     1       7.289   4.211  16.054  0.00  0.00    +0.000 C 
ATOM     23  C   UNL     1       5.560   4.133  14.247  0.00  0.00    +0.000 C 
ENDBRANCH  16  21
ENDBRANCH   1  19
BRANCH   5  24
ATOM     24  C   UNL     1      -1.497  12.596  21.298  0.00  0.00    +0.000 C 
ATOM     25  C   UNL     1      -0.891  13.317  22.257  0.00  0.00    +0.000 C 
BRANCH  25  26
ATOM     26  C   UNL     1      -1.609  13.913  23.390  0.00  0.00    +0.000 A 
ATOM     27  C   UNL     1      -1.015  14.918  24.147  0.00  0.00    +0.000 A 
ATOM     28  C   UNL     1      -1.723  15.455  25.220  0.00  0.00    +0.000 A 
ATOM     29  C   UNL     1      -2.995  14.978  25.504  0.00  0.00    +0.000 A 
ATOM     30  C   UNL     1      -3.513  13.978  24.700  0.00  0.00    +0.000 A 
ATOM     31  N   UNL     1      -2.848  13.439  23.657  0.00  0.00    +0.000 NA
ENDBRANCH  25  26
ENDBRANCH   5  24
TORSDOF 4
ENDMDL
MODEL 9
REMARK VINA RESULT:      -8.1      2.435     10.230
REMARK  Name = 
REMARK  7 active torsions:
REMARK  status: ('A' for Active; 'I' for Inactive)
REMARK    1  A    between atoms: C_1  and  C_2
REMARK    2  A    between atoms: C_6  and  C_8
REMARK    3  A    between atoms: C_8  and  C_9
REMARK    4  A    between atoms: C_8  and  C_10
REMARK    5  A    between atoms: C_12  and  C_13
REMARK    6  A    between atoms: C_17  and  C_18
REMARK    7  A    between atoms: C_19  and  C_20
REMARK                            x       y       z     vdW  Elec       q    Type
REMARK                         _______ _______ _______ _____ _____    ______ ____
ROOT
ATOM      1  C   UNL     1       1.873   7.874  19.672  0.00  0.00    +0.000 A 
ATOM      2  C   UNL     1       1.604   8.983  18.851  0.00  0.00    +0.000 A 
ATOM      3  C   UNL     1       1.017  10.157  19.348  0.00  0.00    +0.000 A 
ATOM      4  C   UNL     1       0.644  10.217  20.701  0.00  0.00    +0.000 A 
ATOM      5  C   UNL     1       0.059  11.176  21.585  0.00  0.00    +0.000 A 
ATOM      6  N   UNL     1      -0.040  10.691  22.831  0.00  0.00    +0.000 NA
ATOM      7  N   UNL     1       0.454   9.451  22.743  0.00  0.00    +0.000 N 
ATOM      8  C   UNL     1       0.898   9.108  21.498  0.00  0.00    +0.000 A 
ATOM      9  C   UNL     1       1.514   7.939  21.027  0.00  0.00    +0.000 A 
ATOM     10  H   UNL     1       0.472   8.884  23.583  0.00  0.00    +0.000 HD
ENDROOT
BRANCH   1  19
ATOM     11  C   UNL     1       2.176   4.811  20.877  0.00  0.00    +0.000 C 
ATOM     12  C   UNL     1       2.708   5.383  19.610  0.00  0.00    +0.000 A 
ATOM     13  N   UNL     1       3.440   4.529  18.781  0.00  0.00    +0.000 NA
ATOM     14  C   UNL     1       3.889   5.191  17.743  0.00  0.00    +0.000 A 
ATOM     15  N   UNL     1       4.664   4.597  16.775  0.00  0.00    +0.000 N 
ATOM     16  C   UNL     1       5.356   5.262  15.782  0.00  0.00    +0.000 C 
ATOM     17  O   UNL     1       5.410   6.480  15.628  0.00  0.00    +0.000 OA
ATOM     18  S   UNL     1       3.416   6.813  17.648  0.00  0.00    +0.000 S 
ATOM     19  C   UNL     1       2.557   6.683  19.133  0.00  0.00    +0.000 A 
ATOM     20  H   UNL     1       4.802   3.608  16.917  0.00  0.00    +0.000 HD
BRANCH  16  21
ATOM     21  C   UNL     1       6.143   4.330  14.857  0.00  0.00    +0.000 C 
ATOM     22  C   UNL     1       5.353   3.997  13.594  0.00  0.00    +0.000 C 
ATOM     23  C   UNL     1       7.480   4.974  14.480  0.00  0.00    +0.000 C 
ENDBRANCH  16  21
ENDBRANCH   1  19
BRANCH   5  24
ATOM     24  C   UNL     1      -0.342  12.515  21.280  0.00  0.00    +0.000 C 
ATOM     25  C   UNL     1      -0.305  13.119  20.079  0.00  0.00    +0.000 C 
BRANCH  25  26
ATOM     26  C   UNL     1      -0.718  14.511  19.866  0.00  0.00    +0.000 A 
ATOM     27  C   UNL     1      -0.140  15.268  18.853  0.00  0.00    +0.000 A 
ATOM     28  C   UNL     1      -0.550  16.589  18.685  0.00  0.00    +0.000 A 
ATOM     29  C   UNL     1      -1.520  17.112  19.529  0.00  0.00    +0.000 A 
ATOM     30  C   UNL     1      -2.045  16.292  20.511  0.00  0.00    +0.000 A 
ATOM     31  N   UNL     1      -1.664  15.011  20.696  0.00  0.00    +0.000 NA
ENDBRANCH  25  26
ENDBRANCH   5  24
TORSDOF 4
ENDMDL
