MODEL 1
REMARK VINA RESULT:      -5.8      0.000      0.000
REMARK  Name = 
REMARK  18 active torsions:
REMARK  status: ('A' for Active; 'I' for Inactive)
REMARK    1  A    between atoms: C_1  and  C_2
REMARK    2  A    between atoms: C_2  and  C_3
REMARK    3  A    between atoms: C_3  and  C_4
REMARK    4  A    between atoms: C_4  and  C_5
REMARK    5  A    between atoms: C_5  and  C_6
REMARK    6  A    between atoms: C_6  and  C_7
REMARK    7  A    between atoms: C_7  and  C_8
REMARK    8  A    between atoms: C_8  and  C_9
REMARK    9  A    between atoms: C_10  and  C_11
REMARK   10  A    between atoms: C_11  and  C_12
REMARK   11  A    between atoms: C_12  and  C_13
REMARK   12  A    between atoms: C_13  and  C_14
REMARK   13  A    between atoms: C_14  and  C_15
REMARK   14  A    between atoms: C_15  and  C_16
REMARK   15  A    between atoms: C_16  and  C_17
REMARK   16  A    between atoms: C_17  and  C_18
REMARK   17  A    between atoms: N_20  and  C_21
REMARK   18  A    between atoms: C_21  and  C_22
REMARK                            x       y       z     vdW  Elec       q    Type
REMARK                         _______ _______ _______ _____ _____    ______ ____
ROOT
ATOM      1  C   UNL     1       1.763   2.844  18.248  0.00  0.00    +0.000 C 
ENDROOT
BRANCH   1   2
ATOM      2  C   UNL     1       3.248   2.636  18.530  0.00  0.00    +0.000 C 
BRANCH   2   3
ATOM      3  C   UNL     1       4.084   2.950  17.303  0.00  0.00    +0.000 C 
BRANCH   3   4
ATOM      4  C   UNL     1       4.654   4.363  17.389  0.00  0.00    +0.000 C 
BRANCH   4   5
ATOM      5  C   UNL     1       5.693   4.428  18.499  0.00  0.00    +0.000 C 
BRANCH   5   6
ATOM      6  C   UNL     1       6.942   5.206  18.092  0.00  0.00    +0.000 C 
BRANCH   6   7
ATOM      7  C   UNL     1       6.857   5.618  16.638  0.00  0.00    +0.000 C 
ATOM      8  O   UNL     1       6.519   6.744  16.269  0.00  0.00    +0.000 OA
ATOM      9  N   UNL     1       7.195   4.615  15.755  0.00  0.00    +0.000 N 
ATOM     10  H   UNL     1       7.552   3.720  16.087  0.00  0.00    +0.000 HD
BRANCH   9  11
ATOM     11  C   UNL     1       7.172   4.873  14.328  0.00  0.00    +0.000 C 
BRANCH  11  12
ATOM     12  C   UNL     1       6.254   3.923  13.569  0.00  0.00    +0.000 C 
ATOM     13 CL   UNL     1       6.857   3.698  11.908  0.00  0.00    +0.000 Cl
ENDBRANCH  11  12
ENDBRANCH   9  11
ENDBRANCH   6   7
ENDBRANCH   5   6
ENDBRANCH   4   5
ENDBRANCH   3   4
ENDBRANCH   2   3
ENDBRANCH   1   2
BRANCH   1  14
ATOM     14  C   UNL     1       0.959   2.896  19.541  0.00  0.00    +0.000 C 
BRANCH  14  16
ATOM     15  C   UNL     1       2.194   4.239  21.272  0.00  0.00    +0.000 C 
ATOM     16  C   UNL     1       1.832   3.056  20.760  0.00  0.00    +0.000 C 
BRANCH  15  17
ATOM     17  C   UNL     1       1.734   5.531  20.682  0.00  0.00    +0.000 C 
BRANCH  17  18
ATOM     18  C   UNL     1       2.806   6.194  19.842  0.00  0.00    +0.000 C 
BRANCH  18  19
ATOM     19  C   UNL     1       2.222   6.570  18.489  0.00  0.00    +0.000 C 
BRANCH  19  20
ATOM     20  C   UNL     1       3.000   7.733  17.888  0.00  0.00    +0.000 C 
BRANCH  20  21
ATOM     21  C   UNL     1       2.095   8.940  17.694  0.00  0.00    +0.000 C 
BRANCH  21  22
ATOM     22  C   UNL     1       1.251   9.169  18.943  0.00  0.00    +0.000 C 
BRANCH  22  24
ATOM     23  C   UNL     1       0.559  11.560  19.210  0.00  0.00    +0.000 C 
ATOM     24  C   UNL     1       0.155  10.194  18.683  0.00  0.00    +0.000 C 
ENDBRANCH  22  24
ENDBRANCH  21  22
ENDBRANCH  20  21
ENDBRANCH  19  20
ENDBRANCH  18  19
ENDBRANCH  17  18
ENDBRANCH  15  17
ENDBRANCH  14  16
ENDBRANCH   1  14
TORSDOF 17
ENDMDL
MODEL 2
REMARK VINA RESULT:      -5.7      2.380      4.716
REMARK  Name = 
REMARK  18 active torsions:
REMARK  status: ('A' for Active; 'I' for Inactive)
REMARK    1  A    between atoms: C_1  and  C_2
REMARK    2  A    between atoms: C_2  and  C_3
REMARK    3  A    between atoms: C_3  and  C_4
REMARK    4  A    between atoms: C_4  and  C_5
REMARK    5  A    between atoms: C_5  and  C_6
REMARK    6  A    between atoms: C_6  and  C_7
REMARK    7  A    between atoms: C_7  and  C_8
REMARK    8  A    between atoms: C_8  and  C_9
REMARK    9  A    between atoms: C_10  and  C_11
REMARK   10  A    between atoms: C_11  and  C_12
REMARK   11  A    between atoms: C_12  and  C_13
REMARK   12  A    between atoms: C_13  and  C_14
REMARK   13  A    between atoms: C_14  and  C_15
REMARK   14  A    between atoms: C_15  and  C_16
REMARK   15  A    between atoms: C_16  and  C_17
REMARK   16  A    between atoms: C_17  and  C_18
REMARK   17  A    between atoms: N_20  and  C_21
REMARK   18  A    between atoms: C_21  and  C_22
REMARK                            x       y       z     vdW  Elec       q    Type
REMARK                         _______ _______ _______ _____ _____    ______ ____
ROOT
ATOM      1  C   UNL     1       1.987   5.891  19.091  0.00  0.00    +0.000 C 
ENDROOT
BRANCH   1   2
ATOM      2  C   UNL     1       1.794   5.226  20.450  0.00  0.00    +0.000 C 
BRANCH   2   3
ATOM      3  C   UNL     1       0.973   3.957  20.323  0.00  0.00    +0.000 C 
BRANCH   3   4
ATOM      4  C   UNL     1       1.876   2.727  20.360  0.00  0.00    +0.000 C 
BRANCH   4   5
ATOM      5  C   UNL     1       2.093   2.211  18.944  0.00  0.00    +0.000 C 
BRANCH   5   6
ATOM      6  C   UNL     1       3.566   1.962  18.627  0.00  0.00    +0.000 C 
BRANCH   6   7
ATOM      7  C   UNL     1       4.179   3.184  17.977  0.00  0.00    +0.000 C 
ATOM      8  O   UNL     1       3.779   3.663  16.915  0.00  0.00    +0.000 OA
ATOM      9  N   UNL     1       5.233   3.721  18.686  0.00  0.00    +0.000 N 
ATOM     10  H   UNL     1       5.490   3.358  19.602  0.00  0.00    +0.000 HD
BRANCH   9  11
ATOM     11  C   UNL     1       5.909   4.904  18.187  0.00  0.00    +0.000 C 
BRANCH  11  12
ATOM     12  C   UNL     1       7.272   4.597  17.583  0.00  0.00    +0.000 C 
ATOM     13 CL   UNL     1       7.170   4.646  15.805  0.00  0.00    +0.000 Cl
ENDBRANCH  11  12
ENDBRANCH   9  11
ENDBRANCH   6   7
ENDBRANCH   5   6
ENDBRANCH   4   5
ENDBRANCH   3   4
ENDBRANCH   2   3
ENDBRANCH   1   2
BRANCH   1  14
ATOM     14  C   UNL     1       2.411   7.346  19.245  0.00  0.00    +0.000 C 
BRANCH  14  16
ATOM     15  C   UNL     1       1.741   9.358  17.892  0.00  0.00    +0.000 C 
ATOM     16  C   UNL     1       2.269   8.130  17.964  0.00  0.00    +0.000 C 
BRANCH  15  17
ATOM     17  C   UNL     1       1.261  10.085  19.104  0.00  0.00    +0.000 C 
BRANCH  17  18
ATOM     18  C   UNL     1      -0.199   9.809  19.400  0.00  0.00    +0.000 C 
BRANCH  18  19
ATOM     19  C   UNL     1      -0.842  11.065  19.969  0.00  0.00    +0.000 C 
BRANCH  19  20
ATOM     20  C   UNL     1      -1.565  11.827  18.867  0.00  0.00    +0.000 C 
BRANCH  20  21
ATOM     21  C   UNL     1      -2.579  10.930  18.173  0.00  0.00    +0.000 C 
BRANCH  21  22
ATOM     22  C   UNL     1      -2.425  11.038  16.660  0.00  0.00    +0.000 C 
BRANCH  22  24
ATOM     23  C   UNL     1      -3.042  10.034  14.451  0.00  0.00    +0.000 C 
ATOM     24  C   UNL     1      -3.063   9.846  15.959  0.00  0.00    +0.000 C 
ENDBRANCH  22  24
ENDBRANCH  21  22
ENDBRANCH  20  21
ENDBRANCH  19  20
ENDBRANCH  18  19
ENDBRANCH  17  18
ENDBRANCH  15  17
ENDBRANCH  14  16
ENDBRANCH   1  14
TORSDOF 17
ENDMDL
MODEL 3
REMARK VINA RESULT:      -5.5      1.956      3.271
REMARK  Name = 
REMARK  18 active torsions:
REMARK  status: ('A' for Active; 'I' for Inactive)
REMARK    1  A    between atoms: C_1  and  C_2
REMARK    2  A    between atoms: C_2  and  C_3
REMARK    3  A    between atoms: C_3  and  C_4
REMARK    4  A    between atoms: C_4  and  C_5
REMARK    5  A    between atoms: C_5  and  C_6
REMARK    6  A    between atoms: C_6  and  C_7
REMARK    7  A    between atoms: C_7  and  C_8
REMARK    8  A    between atoms: C_8  and  C_9
REMARK    9  A    between atoms: C_10  and  C_11
REMARK   10  A    between atoms: C_11  and  C_12
REMARK   11  A    between atoms: C_12  and  C_13
REMARK   12  A    between atoms: C_13  and  C_14
REMARK   13  A    between atoms: C_14  and  C_15
REMARK   14  A    between atoms: C_15  and  C_16
REMARK   15  A    between atoms: C_16  and  C_17
REMARK   16  A    between atoms: C_17  and  C_18
REMARK   17  A    between atoms: N_20  and  C_21
REMARK   18  A    between atoms: C_21  and  C_22
REMARK                            x       y       z     vdW  Elec       q    Type
REMARK                         _______ _______ _______ _____ _____    ______ ____
ROOT
ATOM      1  C   UNL     1       1.954   4.717  17.963  0.00  0.00    +0.000 C 
ENDROOT
BRANCH   1   2
ATOM      2  C   UNL     1       2.852   3.531  18.300  0.00  0.00    +0.000 C 
BRANCH   2   3
ATOM      3  C   UNL     1       3.952   3.370  17.267  0.00  0.00    +0.000 C 
BRANCH   3   4
ATOM      4  C   UNL     1       5.201   4.139  17.688  0.00  0.00    +0.000 C 
BRANCH   4   5
ATOM      5  C   UNL     1       5.725   4.946  16.509  0.00  0.00    +0.000 C 
BRANCH   5   6
ATOM      6  C   UNL     1       7.022   4.380  15.936  0.00  0.00    +0.000 C 
BRANCH   6   7
ATOM      7  C   UNL     1       7.050   4.544  14.432  0.00  0.00    +0.000 C 
ATOM      8  O   UNL     1       7.630   5.468  13.859  0.00  0.00    +0.000 OA
ATOM      9  N   UNL     1       6.364   3.559  13.752  0.00  0.00    +0.000 N 
ATOM     10  H   UNL     1       5.965   2.762  14.243  0.00  0.00    +0.000 HD
BRANCH   9  11
ATOM     11  C   UNL     1       6.319   3.583  12.302  0.00  0.00    +0.000 C 
BRANCH  11  12
ATOM     12  C   UNL     1       5.467   2.465  11.718  0.00  0.00    +0.000 C 
ATOM     13 CL   UNL     1       6.517   1.209  11.015  0.00  0.00    +0.000 Cl
ENDBRANCH  11  12
ENDBRANCH   9  11
ENDBRANCH   6   7
ENDBRANCH   5   6
ENDBRANCH   4   5
ENDBRANCH   3   4
ENDBRANCH   2   3
ENDBRANCH   1   2
BRANCH   1  14
ATOM     14  C   UNL     1       2.173   5.868  18.936  0.00  0.00    +0.000 C 
BRANCH  14  16
ATOM     15  C   UNL     1       3.081   8.000  17.956  0.00  0.00    +0.000 C 
ATOM     16  C   UNL     1       3.282   6.793  18.499  0.00  0.00    +0.000 C 
BRANCH  15  17
ATOM     17  C   UNL     1       1.712   8.560  17.758  0.00  0.00    +0.000 C 
BRANCH  17  18
ATOM     18  C   UNL     1       1.672  10.062  17.956  0.00  0.00    +0.000 C 
BRANCH  18  19
ATOM     19  C   UNL     1       0.598  10.404  18.978  0.00  0.00    +0.000 C 
BRANCH  19  20
ATOM     20  C   UNL     1       0.622   9.396  20.118  0.00  0.00    +0.000 C 
BRANCH  20  21
ATOM     21  C   UNL     1       0.921  10.088  21.439  0.00  0.00    +0.000 C 
BRANCH  21  22
ATOM     22  C   UNL     1       0.338  11.497  21.437  0.00  0.00    +0.000 C 
BRANCH  22  24
ATOM     23  C   UNL     1      -1.065  10.389  23.189  0.00  0.00    +0.000 C 
ATOM     24  C   UNL     1      -0.971  11.549  22.213  0.00  0.00    +0.000 C 
ENDBRANCH  22  24
ENDBRANCH  21  22
ENDBRANCH  20  21
ENDBRANCH  19  20
ENDBRANCH  18  19
ENDBRANCH  17  18
ENDBRANCH  15  17
ENDBRANCH  14  16
ENDBRANCH   1  14
TORSDOF 17
ENDMDL
MODEL 4
REMARK VINA RESULT:      -5.5      4.549      7.992
REMARK  Name = 
REMARK  18 active torsions:
REMARK  status: ('A' for Active; 'I' for Inactive)
REMARK    1  A    between atoms: C_1  and  C_2
REMARK    2  A    between atoms: C_2  and  C_3
REMARK    3  A    between atoms: C_3  and  C_4
REMARK    4  A    between atoms: C_4  and  C_5
REMARK    5  A    between atoms: C_5  and  C_6
REMARK    6  A    between atoms: C_6  and  C_7
REMARK    7  A    between atoms: C_7  and  C_8
REMARK    8  A    between atoms: C_8  and  C_9
REMARK    9  A    between atoms: C_10  and  C_11
REMARK   10  A    between atoms: C_11  and  C_12
REMARK   11  A    between atoms: C_12  and  C_13
REMARK   12  A    between atoms: C_13  and  C_14
REMARK   13  A    between atoms: C_14  and  C_15
REMARK   14  A    between atoms: C_15  and  C_16
REMARK   15  A    between atoms: C_16  and  C_17
REMARK   16  A    between atoms: C_17  and  C_18
REMARK   17  A    between atoms: N_20  and  C_21
REMARK   18  A    between atoms: C_21  and  C_22
REMARK                            x       y       z     vdW  Elec       q    Type
REMARK                         _______ _______ _______ _____ _____    ______ ____
ROOT
ATOM      1  C   UNL     1       2.047   7.748  20.394  0.00  0.00    +0.000 C 
ENDROOT
BRANCH   1   2
ATOM      2  C   UNL     1       0.683   8.214  20.892  0.00  0.00    +0.000 C 
BRANCH   2   3
ATOM      3  C   UNL     1       0.528   9.715  20.732  0.00  0.00    +0.000 C 
BRANCH   3   4
ATOM      4  C   UNL     1       1.073  10.171  19.380  0.00  0.00    +0.000 C 
BRANCH   4   5
ATOM      5  C   UNL     1       0.067  11.095  18.711  0.00  0.00    +0.000 C 
BRANCH   5   6
ATOM      6  C   UNL     1      -1.336  10.967  19.300  0.00  0.00    +0.000 C 
BRANCH   6   7
ATOM      7  C   UNL     1      -2.380  11.129  18.217  0.00  0.00    +0.000 C 
ATOM      8  O   UNL     1      -3.568  11.361  18.446  0.00  0.00    +0.000 OA
ATOM      9  N   UNL     1      -1.881  10.994  16.939  0.00  0.00    +0.000 N 
ATOM     10  H   UNL     1      -0.882  10.886  16.773  0.00  0.00    +0.000 HD
BRANCH   9  11
ATOM     11  C   UNL     1      -2.768  11.138  15.800  0.00  0.00    +0.000 C 
BRANCH  11  12
ATOM     12  C   UNL     1      -3.214   9.801  15.223  0.00  0.00    +0.000 C 
ATOM     13 CL   UNL     1      -3.134   9.853  13.444  0.00  0.00    +0.000 Cl
ENDBRANCH  11  12
ENDBRANCH   9  11
ENDBRANCH   6   7
ENDBRANCH   5   6
ENDBRANCH   4   5
ENDBRANCH   3   4
ENDBRANCH   2   3
ENDBRANCH   1   2
BRANCH   1  14
ATOM     14  C   UNL     1       1.905   6.705  19.293  0.00  0.00    +0.000 C 
BRANCH  14  16
ATOM     15  C   UNL     1       4.113   6.169  18.215  0.00  0.00    +0.000 C 
ATOM     16  C   UNL     1       2.958   6.845  18.222  0.00  0.00    +0.000 C 
BRANCH  15  17
ATOM     17  C   UNL     1       4.455   5.175  19.275  0.00  0.00    +0.000 C 
BRANCH  17  18
ATOM     18  C   UNL     1       4.596   3.771  18.723  0.00  0.00    +0.000 C 
BRANCH  18  19
ATOM     19  C   UNL     1       3.810   3.662  17.425  0.00  0.00    +0.000 C 
BRANCH  19  20
ATOM     20  C   UNL     1       2.655   2.683  17.595  0.00  0.00    +0.000 C 
BRANCH  20  21
ATOM     21  C   UNL     1       1.416   3.400  18.110  0.00  0.00    +0.000 C 
BRANCH  21  22
ATOM     22  C   UNL     1       0.853   2.669  19.323  0.00  0.00    +0.000 C 
BRANCH  22  24
ATOM     23  C   UNL     1       2.115   2.822  21.479  0.00  0.00    +0.000 C 
ATOM     24  C   UNL     1       1.066   3.476  20.597  0.00  0.00    +0.000 C 
ENDBRANCH  22  24
ENDBRANCH  21  22
ENDBRANCH  20  21
ENDBRANCH  19  20
ENDBRANCH  18  19
ENDBRANCH  17  18
ENDBRANCH  15  17
ENDBRANCH  14  16
ENDBRANCH   1  14
TORSDOF 17
ENDMDL
MODEL 5
REMARK VINA RESULT:      -5.5      2.318      3.960
REMARK  Name = 
REMARK  18 active torsions:
REMARK  status: ('A' for Active; 'I' for Inactive)
REMARK    1  A    between atoms: C_1  and  C_2
REMARK    2  A    between atoms: C_2  and  C_3
REMARK    3  A    between atoms: C_3  and  C_4
REMARK    4  A    between atoms: C_4  and  C_5
REMARK    5  A    between atoms: C_5  and  C_6
REMARK    6  A    between atoms: C_6  and  C_7
REMARK    7  A    between atoms: C_7  and  C_8
REMARK    8  A    between atoms: C_8  and  C_9
REMARK    9  A    between atoms: C_10  and  C_11
REMARK   10  A    between atoms: C_11  and  C_12
REMARK   11  A    between atoms: C_12  and  C_13
REMARK   12  A    between atoms: C_13  and  C_14
REMARK   13  A    between atoms: C_14  and  C_15
REMARK   14  A    between atoms: C_15  and  C_16
REMARK   15  A    between atoms: C_16  and  C_17
REMARK   16  A    between atoms: C_17  and  C_18
REMARK   17  A    between atoms: N_20  and  C_21
REMARK   18  A    between atoms: C_21  and  C_22
REMARK                            x       y       z     vdW  Elec       q    Type
REMARK                         _______ _______ _______ _____ _____    ______ ____
ROOT
ATOM      1  C   UNL     1       1.957   4.605  21.240  0.00  0.00    +0.000 C 
ENDROOT
BRANCH   1   2
ATOM      2  C   UNL     1       2.098   3.178  20.723  0.00  0.00    +0.000 C 
BRANCH   2   3
ATOM      3  C   UNL     1       1.054   2.875  19.664  0.00  0.00    +0.000 C 
BRANCH   3   4
ATOM      4  C   UNL     1       1.719   2.416  18.369  0.00  0.00    +0.000 C 
BRANCH   4   5
ATOM      5  C   UNL     1       3.230   2.401  18.549  0.00  0.00    +0.000 C 
BRANCH   5   6
ATOM      6  C   UNL     1       3.938   3.438  17.680  0.00  0.00    +0.000 C 
BRANCH   6   7
ATOM      7  C   UNL     1       5.271   3.816  18.289  0.00  0.00    +0.000 C 
ATOM      8  O   UNL     1       5.534   3.683  19.485  0.00  0.00    +0.000 OA
ATOM      9  N   UNL     1       6.174   4.324  17.379  0.00  0.00    +0.000 N 
ATOM     10  H   UNL     1       5.962   4.345  16.383  0.00  0.00    +0.000 HD
BRANCH   9  11
ATOM     11  C   UNL     1       7.499   4.716  17.821  0.00  0.00    +0.000 C 
BRANCH  11  12
ATOM     12  C   UNL     1       7.505   6.037  18.578  0.00  0.00    +0.000 C 
ATOM     13 CL   UNL     1       7.654   7.391  17.431  0.00  0.00    +0.000 Cl
ENDBRANCH  11  12
ENDBRANCH   9  11
ENDBRANCH   6   7
ENDBRANCH   5   6
ENDBRANCH   4   5
ENDBRANCH   3   4
ENDBRANCH   2   3
ENDBRANCH   1   2
BRANCH   1  14
ATOM     14  C   UNL     1       1.369   5.522  20.175  0.00  0.00    +0.000 C 
BRANCH  14  16
ATOM     15  C   UNL     1       1.738   7.969  20.623  0.00  0.00    +0.000 C 
ATOM     16  C   UNL     1       2.123   6.822  20.050  0.00  0.00    +0.000 C 
BRANCH  15  17
ATOM     17  C   UNL     1       0.518   8.056  21.477  0.00  0.00    +0.000 C 
BRANCH  17  18
ATOM     18  C   UNL     1       0.643   9.117  22.552  0.00  0.00    +0.000 C 
BRANCH  18  19
ATOM     19  C   UNL     1      -0.494  10.117  22.404  0.00  0.00    +0.000 C 
BRANCH  19  20
ATOM     20  C   UNL     1      -0.017  11.338  21.628  0.00  0.00    +0.000 C 
BRANCH  20  21
ATOM     21  C   UNL     1      -0.708  11.416  20.275  0.00  0.00    +0.000 C 
BRANCH  21  22
ATOM     22  C   UNL     1       0.324  11.343  19.154  0.00  0.00    +0.000 C 
BRANCH  22  24
ATOM     23  C   UNL     1       1.430   9.627  17.705  0.00  0.00    +0.000 C 
ATOM     24  C   UNL     1       0.114  10.101  18.298  0.00  0.00    +0.000 C 
ENDBRANCH  22  24
ENDBRANCH  21  22
ENDBRANCH  20  21
ENDBRANCH  19  20
ENDBRANCH  18  19
ENDBRANCH  17  18
ENDBRANCH  15  17
ENDBRANCH  14  16
ENDBRANCH   1  14
TORSDOF 17
ENDMDL
MODEL 6
REMARK VINA RESULT:      -5.4      3.840      5.050
REMARK  Name = 
REMARK  18 active torsions:
REMARK  status: ('A' for Active; 'I' for Inactive)
REMARK    1  A    between atoms: C_1  and  C_2
REMARK    2  A    between atoms: C_2  and  C_3
REMARK    3  A    between atoms: C_3  and  C_4
REMARK    4  A    between atoms: C_4  and  C_5
REMARK    5  A    between atoms: C_5  and  C_6
REMARK    6  A    between atoms: C_6  and  C_7
REMARK    7  A    between atoms: C_7  and  C_8
REMARK    8  A    between atoms: C_8  and  C_9
REMARK    9  A    between atoms: C_10  and  C_11
REMARK   10  A    between atoms: C_11  and  C_12
REMARK   11  A    between atoms: C_12  and  C_13
REMARK   12  A    between atoms: C_13  and  C_14
REMARK   13  A    between atoms: C_14  and  C_15
REMARK   14  A    between atoms: C_15  and  C_16
REMARK   15  A    between atoms: C_16  and  C_17
REMARK   16  A    between atoms: C_17  and  C_18
REMARK   17  A    between atoms: N_20  and  C_21
REMARK   18  A    between atoms: C_21  and  C_22
REMARK                            x       y       z     vdW  Elec       q    Type
REMARK                         _______ _______ _______ _____ _____    ______ ____
ROOT
ATOM      1  C   UNL     1       4.837   4.039  16.273  0.00  0.00    +0.000 C 
ENDROOT
BRANCH   1   2
ATOM      2  C   UNL     1       5.951   4.965  16.751  0.00  0.00    +0.000 C 
BRANCH   2   3
ATOM      3  C   UNL     1       6.504   4.506  18.087  0.00  0.00    +0.000 C 
BRANCH   3   4
ATOM      4  C   UNL     1       6.948   5.703  18.924  0.00  0.00    +0.000 C 
BRANCH   4   5
ATOM      5  C   UNL     1       7.493   6.791  18.009  0.00  0.00    +0.000 C 
BRANCH   5   6
ATOM      6  C   UNL     1       8.489   7.709  18.714  0.00  0.00    +0.000 C 
BRANCH   6   7
ATOM      7  C   UNL     1       8.333   9.132  18.223  0.00  0.00    +0.000 C 
ATOM      8  O   UNL     1       7.435   9.495  17.462  0.00  0.00    +0.000 OA
ATOM      9  N   UNL     1       9.292   9.996  18.708  0.00  0.00    +0.000 N 
ATOM     10  H   UNL     1       9.973   9.691  19.401  0.00  0.00    +0.000 HD
BRANCH   9  11
ATOM     11  C   UNL     1       9.258  11.397  18.331  0.00  0.00    +0.000 C 
BRANCH  11  12
ATOM     12  C   UNL     1      10.131  12.271  19.221  0.00  0.00    +0.000 C 
ATOM     13 CL   UNL     1      11.746  12.452  18.492  0.00  0.00    +0.000 Cl
ENDBRANCH  11  12
ENDBRANCH   9  11
ENDBRANCH   6   7
ENDBRANCH   5   6
ENDBRANCH   4   5
ENDBRANCH   3   4
ENDBRANCH   2   3
ENDBRANCH   1   2
BRANCH   1  14
ATOM     14  C   UNL     1       4.114   3.394  17.448  0.00  0.00    +0.000 C 
BRANCH  14  16
ATOM     15  C   UNL     1       1.780   2.606  17.956  0.00  0.00    +0.000 C 
ATOM     16  C   UNL     1       2.751   2.869  17.072  0.00  0.00    +0.000 C 
BRANCH  15  17
ATOM     17  C   UNL     1       1.957   2.841  19.419  0.00  0.00    +0.000 C 
BRANCH  17  18
ATOM     18  C   UNL     1       0.925   3.801  19.976  0.00  0.00    +0.000 C 
BRANCH  18  19
ATOM     19  C   UNL     1       1.634   4.950  20.676  0.00  0.00    +0.000 C 
BRANCH  19  20
ATOM     20  C   UNL     1       3.085   5.024  20.219  0.00  0.00    +0.000 C 
BRANCH  20  21
ATOM     21  C   UNL     1       3.382   6.381  19.598  0.00  0.00    +0.000 C 
BRANCH  21  22
ATOM     22  C   UNL     1       2.532   6.584  18.349  0.00  0.00    +0.000 C 
BRANCH  22  24
ATOM     23  C   UNL     1       1.889   8.940  17.800  0.00  0.00    +0.000 C 
ATOM     24  C   UNL     1       2.936   7.855  17.614  0.00  0.00    +0.000 C 
ENDBRANCH  22  24
ENDBRANCH  21  22
ENDBRANCH  20  21
ENDBRANCH  19  20
ENDBRANCH  18  19
ENDBRANCH  17  18
ENDBRANCH  15  17
ENDBRANCH  14  16
ENDBRANCH   1  14
TORSDOF 17
ENDMDL
MODEL 7
REMARK VINA RESULT:      -5.4      2.621      5.136
REMARK  Name = 
REMARK  18 active torsions:
REMARK  status: ('A' for Active; 'I' for Inactive)
REMARK    1  A    between atoms: C_1  and  C_2
REMARK    2  A    between atoms: C_2  and  C_3
REMARK    3  A    between atoms: C_3  and  C_4
REMARK    4  A    between atoms: C_4  and  C_5
REMARK    5  A    between atoms: C_5  and  C_6
REMARK    6  A    between atoms: C_6  and  C_7
REMARK    7  A    between atoms: C_7  and  C_8
REMARK    8  A    between atoms: C_8  and  C_9
REMARK    9  A    between atoms: C_10  and  C_11
REMARK   10  A    between atoms: C_11  and  C_12
REMARK   11  A    between atoms: C_12  and  C_13
REMARK   12  A    between atoms: C_13  and  C_14
REMARK   13  A    between atoms: C_14  and  C_15
REMARK   14  A    between atoms: C_15  and  C_16
REMARK   15  A    between atoms: C_16  and  C_17
REMARK   16  A    between atoms: C_17  and  C_18
REMARK   17  A    between atoms: N_20  and  C_21
REMARK   18  A    between atoms: C_21  and  C_22
REMARK                            x       y       z     vdW  Elec       q    Type
REMARK                         _______ _______ _______ _____ _____    ______ ____
ROOT
ATOM      1  C   UNL     1       7.141   6.058  18.381  0.00  0.00    +0.000 C 
ENDROOT
BRANCH   1   2
ATOM      2  C   UNL     1       7.592   4.657  17.980  0.00  0.00    +0.000 C 
BRANCH   2   3
ATOM      3  C   UNL     1       7.466   4.452  16.483  0.00  0.00    +0.000 C 
BRANCH   3   4
ATOM      4  C   UNL     1       6.146   3.765  16.143  0.00  0.00    +0.000 C 
BRANCH   4   5
ATOM      5  C   UNL     1       5.671   4.224  14.772  0.00  0.00    +0.000 C 
BRANCH   5   6
ATOM      6  C   UNL     1       6.810   4.344  13.762  0.00  0.00    +0.000 C 
BRANCH   6   7
ATOM      7  C   UNL     1       6.420   3.702  12.448  0.00  0.00    +0.000 C 
ATOM      8  O   UNL     1       7.232   3.398  11.573  0.00  0.00    +0.000 OA
ATOM      9  N   UNL     1       5.065   3.482  12.317  0.00  0.00    +0.000 N 
ATOM     10  H   UNL     1       4.426   3.664  13.088  0.00  0.00    +0.000 HD
BRANCH   9  11
ATOM     11  C   UNL     1       4.550   2.860  11.112  0.00  0.00    +0.000 C 
BRANCH  11  12
ATOM     12  C   UNL     1       3.085   3.187  10.856  0.00  0.00    +0.000 C 
ATOM     13 CL   UNL     1       2.953   4.357   9.519  0.00  0.00    +0.000 Cl
ENDBRANCH  11  12
ENDBRANCH   9  11
ENDBRANCH   6   7
ENDBRANCH   5   6
ENDBRANCH   4   5
ENDBRANCH   3   4
ENDBRANCH   2   3
ENDBRANCH   1   2
BRANCH   1  14
ATOM     14  C   UNL     1       5.631   6.119  18.568  0.00  0.00    +0.000 C 
BRANCH  14  16
ATOM     15  C   UNL     1       3.637   7.171  17.453  0.00  0.00    +0.000 C 
ATOM     16  C   UNL     1       4.938   6.858  17.450  0.00  0.00    +0.000 C 
BRANCH  15  17
ATOM     17  C   UNL     1       2.744   6.832  18.599  0.00  0.00    +0.000 C 
BRANCH  17  18
ATOM     18  C   UNL     1       1.938   5.573  18.347  0.00  0.00    +0.000 C 
BRANCH  18  19
ATOM     19  C   UNL     1       2.780   4.590  17.548  0.00  0.00    +0.000 C 
BRANCH  19  20
ATOM     20  C   UNL     1       2.502   3.167  18.011  0.00  0.00    +0.000 C 
BRANCH  20  21
ATOM     21  C   UNL     1       1.032   2.995  18.362  0.00  0.00    +0.000 C 
BRANCH  21  22
ATOM     22  C   UNL     1       0.893   2.311  19.717  0.00  0.00    +0.000 C 
BRANCH  22  24
ATOM     23  C   UNL     1       2.211   2.595  21.827  0.00  0.00    +0.000 C 
ATOM     24  C   UNL     1       1.257   3.261  20.850  0.00  0.00    +0.000 C 
ENDBRANCH  22  24
ENDBRANCH  21  22
ENDBRANCH  20  21
ENDBRANCH  19  20
ENDBRANCH  18  19
ENDBRANCH  17  18
ENDBRANCH  15  17
ENDBRANCH  14  16
ENDBRANCH   1  14
TORSDOF 17
ENDMDL
MODEL 8
REMARK VINA RESULT:      -5.4      5.914      7.793
REMARK  Name = 
REMARK  18 active torsions:
REMARK  status: ('A' for Active; 'I' for Inactive)
REMARK    1  A    between atoms: C_1  and  C_2
REMARK    2  A    between atoms: C_2  and  C_3
REMARK    3  A    between atoms: C_3  and  C_4
REMARK    4  A    between atoms: C_4  and  C_5
REMARK    5  A    between atoms: C_5  and  C_6
REMARK    6  A    between atoms: C_6  and  C_7
REMARK    7  A    between atoms: C_7  and  C_8
REMARK    8  A    between atoms: C_8  and  C_9
REMARK    9  A    between atoms: C_10  and  C_11
REMARK   10  A    between atoms: C_11  and  C_12
REMARK   11  A    between atoms: C_12  and  C_13
REMARK   12  A    between atoms: C_13  and  C_14
REMARK   13  A    between atoms: C_14  and  C_15
REMARK   14  A    between atoms: C_15  and  C_16
REMARK   15  A    between atoms: C_16  and  C_17
REMARK   16  A    between atoms: C_17  and  C_18
REMARK   17  A    between atoms: N_20  and  C_21
REMARK   18  A    between atoms: C_21  and  C_22
REMARK                            x       y       z     vdW  Elec       q    Type
REMARK                         _______ _______ _______ _____ _____    ______ ____
ROOT
ATOM      1  C   UNL     1       7.440   6.317  17.804  0.00  0.00    +0.000 C 
ENDROOT
BRANCH   1   2
ATOM      2  C   UNL     1       7.120   7.805  17.710  0.00  0.00    +0.000 C 
BRANCH   2   3
ATOM      3  C   UNL     1       8.380   8.621  17.487  0.00  0.00    +0.000 C 
BRANCH   3   4
ATOM      4  C   UNL     1       8.600   9.596  18.641  0.00  0.00    +0.000 C 
BRANCH   4   5
ATOM      5  C   UNL     1       9.543  10.705  18.199  0.00  0.00    +0.000 C 
BRANCH   5   6
ATOM      6  C   UNL     1       9.338  12.000  18.982  0.00  0.00    +0.000 C 
BRANCH   6   7
ATOM      7  C   UNL     1      10.301  13.065  18.501  0.00  0.00    +0.000 C 
ATOM      8  O   UNL     1      11.523  12.913  18.471  0.00  0.00    +0.000 OA
ATOM      9  N   UNL     1       9.684  14.229  18.095  0.00  0.00    +0.000 N 
ATOM     10  H   UNL     1       8.669  14.299  18.050  0.00  0.00    +0.000 HD
BRANCH   9  11
ATOM     11  C   UNL     1      10.484  15.332  17.596  0.00  0.00    +0.000 C 
BRANCH  11  12
ATOM     12  C   UNL     1       9.736  16.658  17.607  0.00  0.00    +0.000 C 
ATOM     13 CL   UNL     1       8.045  16.395  18.099  0.00  0.00    +0.000 Cl
ENDBRANCH  11  12
ENDBRANCH   9  11
ENDBRANCH   6   7
ENDBRANCH   5   6
ENDBRANCH   4   5
ENDBRANCH   3   4
ENDBRANCH   2   3
ENDBRANCH   1   2
BRANCH   1  14
ATOM     14  C   UNL     1       6.491   5.609  18.762  0.00  0.00    +0.000 C 
BRANCH  14  16
ATOM     15  C   UNL     1       4.534   4.572  17.569  0.00  0.00    +0.000 C 
ATOM     16  C   UNL     1       5.755   4.466  18.109  0.00  0.00    +0.000 C 
BRANCH  15  17
ATOM     17  C   UNL     1       3.791   5.866  17.542  0.00  0.00    +0.000 C 
BRANCH  17  18
ATOM     18  C   UNL     1       2.454   5.775  18.250  0.00  0.00    +0.000 C 
BRANCH  18  19
ATOM     19  C   UNL     1       2.630   6.174  19.707  0.00  0.00    +0.000 C 
BRANCH  19  20
ATOM     20  C   UNL     1       2.416   4.965  20.609  0.00  0.00    +0.000 C 
BRANCH  20  21
ATOM     21  C   UNL     1       1.025   4.385  20.405  0.00  0.00    +0.000 C 
BRANCH  21  22
ATOM     22  C   UNL     1       1.100   2.866  20.301  0.00  0.00    +0.000 C 
BRANCH  22  24
ATOM     23  C   UNL     1       2.122   2.068  18.160  0.00  0.00    +0.000 C 
ATOM     24  C   UNL     1       0.825   2.400  18.877  0.00  0.00    +0.000 C 
ENDBRANCH  22  24
ENDBRANCH  21  22
ENDBRANCH  20  21
ENDBRANCH  19  20
ENDBRANCH  18  19
ENDBRANCH  17  18
ENDBRANCH  15  17
ENDBRANCH  14  16
ENDBRANCH   1  14
TORSDOF 17
ENDMDL
MODEL 9
REMARK VINA RESULT:      -5.4      3.538      5.826
REMARK  Name = 
REMARK  18 active torsions:
REMARK  status: ('A' for Active; 'I' for Inactive)
REMARK    1  A    between atoms: C_1  and  C_2
REMARK    2  A    between atoms: C_2  and  C_3
REMARK    3  A    between atoms: C_3  and  C_4
REMARK    4  A    between atoms: C_4  and  C_5
REMARK    5  A    between atoms: C_5  and  C_6
REMARK    6  A    between atoms: C_6  and  C_7
REMARK    7  A    between atoms: C_7  and  C_8
REMARK    8  A    between atoms: C_8  and  C_9
REMARK    9  A    between atoms: C_10  and  C_11
REMARK   10  A    between atoms: C_11  and  C_12
REMARK   11  A    between atoms: C_12  and  C_13
REMARK   12  A    between atoms: C_13  and  C_14
REMARK   13  A    between atoms: C_14  and  C_15
REMARK   14  A    between atoms: C_15  and  C_16
REMARK   15  A    between atoms: C_16  and  C_17
REMARK   16  A    between atoms: C_17  and  C_18
REMARK   17  A    between atoms: N_20  and  C_21
REMARK   18  A    between atoms: C_21  and  C_22
REMARK                            x       y       z     vdW  Elec       q    Type
REMARK                         _______ _______ _______ _____ _____    ______ ____
ROOT
ATOM      1  C   UNL     1       1.411  10.226  19.436  0.00  0.00    +0.000 C 
ENDROOT
BRANCH   1   2
ATOM      2  C   UNL     1       1.829   9.873  18.013  0.00  0.00    +0.000 C 
BRANCH   2   3
ATOM      3  C   UNL     1       1.877   8.370  17.815  0.00  0.00    +0.000 C 
BRANCH   3   4
ATOM      4  C   UNL     1       3.316   7.897  17.634  0.00  0.00    +0.000 C 
BRANCH   4   5
ATOM      5  C   UNL     1       3.464   6.487  18.188  0.00  0.00    +0.000 C 
BRANCH   5   6
ATOM      6  C   UNL     1       2.129   5.875  18.605  0.00  0.00    +0.000 C 
BRANCH   6   7
ATOM      7  C   UNL     1       1.956   4.508  17.977  0.00  0.00    +0.000 C 
ATOM      8  O   UNL     1       1.018   4.214  17.234  0.00  0.00    +0.000 OA
ATOM      9  N   UNL     1       2.950   3.613  18.312  0.00  0.00    +0.000 N 
ATOM     10  H   UNL     1       3.758   3.904  18.859  0.00  0.00    +0.000 HD
BRANCH   9  11
ATOM     11  C   UNL     1       2.920   2.267  17.771  0.00  0.00    +0.000 C 
BRANCH  11  12
ATOM     12  C   UNL     1       3.716   1.275  18.606  0.00  0.00    +0.000 C 
ATOM     13 CL   UNL     1       4.473   2.114  19.984  0.00  0.00    +0.000 Cl
ENDBRANCH  11  12
ENDBRANCH   9  11
ENDBRANCH   6   7
ENDBRANCH   5   6
ENDBRANCH   4   5
ENDBRANCH   3   4
ENDBRANCH   2   3
ENDBRANCH   1   2
BRANCH   1  14
ATOM     14  C   UNL     1       0.922   8.995  20.188  0.00  0.00    +0.000 C 
BRANCH  14  16
ATOM     15  C   UNL     1       0.590   9.390  22.650  0.00  0.00    +0.000 C 
ATOM     16  C   UNL     1       1.359   8.985  21.632  0.00  0.00    +0.000 C 
BRANCH  15  17
ATOM     17  C   UNL     1      -0.808   9.870  22.443  0.00  0.00    +0.000 C 
BRANCH  17  18
ATOM     18  C   UNL     1      -1.036  11.247  23.034  0.00  0.00    +0.000 C 
BRANCH  18  19
ATOM     19  C   UNL     1      -0.707  12.302  21.989  0.00  0.00    +0.000 C 
BRANCH  19  20
ATOM     20  C   UNL     1      -1.637  12.159  20.791  0.00  0.00    +0.000 C 
BRANCH  20  21
ATOM     21  C   UNL     1      -0.949  12.631  19.520  0.00  0.00    +0.000 C 
BRANCH  21  22
ATOM     22  C   UNL     1      -1.702  12.121  18.296  0.00  0.00    +0.000 C 
BRANCH  22  24
ATOM     23  C   UNL     1      -1.804   9.885  17.176  0.00  0.00    +0.000 C 
ATOM     24  C   UNL     1      -2.079  10.655  18.457  0.00  0.00    +0.000 C 
ENDBRANCH  22  24
ENDBRANCH  21  22
ENDBRANCH  20  21
ENDBRANCH  19  20
ENDBRANCH  18  19
ENDBRANCH  17  18
ENDBRANCH  15  17
ENDBRANCH  14  16
ENDBRANCH   1  14
TORSDOF 17
ENDMDL
