MODEL 1
REMARK VINA RESULT:      -8.5      0.000      0.000
REMARK  Name = 
REMARK  7 active torsions:
REMARK  status: ('A' for Active; 'I' for Inactive)
REMARK    1  A    between atoms: C_1  and  C_2
REMARK    2  A    between atoms: C_2  and  C_3
REMARK    3  A    between atoms: C_2  and  C_4
REMARK    4  A    between atoms: C_2  and  C_5
REMARK    5  A    between atoms: C_9  and  C_11
REMARK    6  A    between atoms: C_14  and  C_15
REMARK    7  A    between atoms: C_20  and  N_21
REMARK                            x       y       z     vdW  Elec       q    Type
REMARK                         _______ _______ _______ _____ _____    ______ ____
ROOT
ATOM      1  C   UNL     1       9.276  11.425  18.282  0.00  0.00    +0.000 A 
ATOM      2  C   UNL     1       8.307  10.759  17.548  0.00  0.00    +0.000 A 
ATOM      3  C   UNL     1       8.294   9.426  18.034  0.00  0.00    +0.000 A 
ATOM      4  N   UNL     1       7.458   8.424  17.586  0.00  0.00    +0.000 N 
ATOM      5  C   UNL     1       7.461   7.124  18.083  0.00  0.00    +0.000 C 
ATOM      6  O   UNL     1       8.235   6.675  18.923  0.00  0.00    +0.000 OA
ATOM      7  N   UNL     1       9.194   9.278  19.001  0.00  0.00    +0.000 NA
ATOM      8  N   UNL     1       9.765  10.474  19.136  0.00  0.00    +0.000 N 
ATOM      9  H   UNL     1       6.783   8.662  16.874  0.00  0.00    +0.000 HD
ATOM     10  H   UNL     1      10.486  10.570  19.843  0.00  0.00    +0.000 HD
ENDROOT
BRANCH   5  11
ATOM     11  C   UNL     1       6.417   6.297  17.509  0.00  0.00    +0.000 A 
ATOM     12  N   UNL     1       6.097   6.195  16.232  0.00  0.00    +0.000 NA
ATOM     13  N   UNL     1       5.004   5.352  16.181  0.00  0.00    +0.000 NA
ATOM     14  C   UNL     1       4.736   4.995  17.426  0.00  0.00    +0.000 A 
ATOM     15  O   UNL     1       5.612   5.542  18.325  0.00  0.00    +0.000 OA
BRANCH  14  16
ATOM     16  C   UNL     1       3.652   4.176  17.961  0.00  0.00    +0.000 A 
ATOM     17  C   UNL     1       2.326   4.385  17.528  0.00  0.00    +0.000 A 
ATOM     18  C   UNL     1       1.276   3.613  18.028  0.00  0.00    +0.000 A 
ATOM     19  C   UNL     1       1.535   2.607  18.950  0.00  0.00    +0.000 A 
ATOM     20  C   UNL     1       2.844   2.378  19.379  0.00  0.00    +0.000 A 
ATOM     21  C   UNL     1       3.906   3.181  18.932  0.00  0.00    +0.000 A 
BRANCH  21  22
ATOM     22  N   UNL     1       5.216   2.796  19.286  0.00  0.00    +0.000 N 
ATOM     23  H   UNL     1       5.799   2.537  18.498  0.00  0.00    +0.000 HD
ATOM     24  H   UNL     1       5.245   2.097  20.031  0.00  0.00    +0.000 HD
ENDBRANCH  21  22
ENDBRANCH  14  16
ENDBRANCH   5  11
BRANCH   1  26
ATOM     25  C   UNL     1       8.571  13.808  18.042  0.00  0.00    +0.000 C 
ATOM     26  C   UNL     1       9.766  12.861  18.257  0.00  0.00    +0.000 C 
ATOM     27  C   UNL     1      10.772  13.050  17.107  0.00  0.00    +0.000 C 
ATOM     28  C   UNL     1      10.465  13.259  19.574  0.00  0.00    +0.000 C 
ENDBRANCH   1  26
TORSDOF 4
ENDMDL
MODEL 2
REMARK VINA RESULT:      -8.5      1.007      1.619
REMARK  Name = 
REMARK  7 active torsions:
REMARK  status: ('A' for Active; 'I' for Inactive)
REMARK    1  A    between atoms: C_1  and  C_2
REMARK    2  A    between atoms: C_2  and  C_3
REMARK    3  A    between atoms: C_2  and  C_4
REMARK    4  A    between atoms: C_2  and  C_5
REMARK    5  A    between atoms: C_9  and  C_11
REMARK    6  A    between atoms: C_14  and  C_15
REMARK    7  A    between atoms: C_20  and  N_21
REMARK                            x       y       z     vdW  Elec       q    Type
REMARK                         _______ _______ _______ _____ _____    ______ ____
ROOT
ATOM      1  C   UNL     1       9.187  11.474  18.367  0.00  0.00    +0.000 A 
ATOM      2  C   UNL     1       8.310  10.773  17.554  0.00  0.00    +0.000 A 
ATOM      3  C   UNL     1       8.313   9.437  18.032  0.00  0.00    +0.000 A 
ATOM      4  N   UNL     1       7.559   8.405  17.513  0.00  0.00    +0.000 N 
ATOM      5  C   UNL     1       7.575   7.103  18.003  0.00  0.00    +0.000 C 
ATOM      6  O   UNL     1       8.297   6.680  18.902  0.00  0.00    +0.000 OA
ATOM      7  N   UNL     1       9.136   9.319  19.069  0.00  0.00    +0.000 NA
ATOM      8  N   UNL     1       9.644  10.537  19.255  0.00  0.00    +0.000 N 
ATOM      9  H   UNL     1       6.935   8.620  16.748  0.00  0.00    +0.000 HD
ATOM     10  H   UNL     1      10.300  10.657  20.019  0.00  0.00    +0.000 HD
ENDROOT
BRANCH   5  11
ATOM     11  C   UNL     1       6.618   6.237  17.342  0.00  0.00    +0.000 A 
ATOM     12  N   UNL     1       6.518   6.009  16.045  0.00  0.00    +0.000 NA
ATOM     13  N   UNL     1       5.421   5.182  15.890  0.00  0.00    +0.000 NA
ATOM     14  C   UNL     1       4.932   4.962  17.098  0.00  0.00    +0.000 A 
ATOM     15  O   UNL     1       5.660   5.585  18.076  0.00  0.00    +0.000 OA
BRANCH  14  16
ATOM     16  C   UNL     1       3.746   4.220  17.516  0.00  0.00    +0.000 A 
ATOM     17  C   UNL     1       3.759   2.810  17.525  0.00  0.00    +0.000 A 
ATOM     18  C   UNL     1       2.635   2.082  17.921  0.00  0.00    +0.000 A 
ATOM     19  C   UNL     1       1.489   2.751  18.334  0.00  0.00    +0.000 A 
ATOM     20  C   UNL     1       1.465   4.146  18.344  0.00  0.00    +0.000 A 
ATOM     21  C   UNL     1       2.563   4.896  17.895  0.00  0.00    +0.000 A 
BRANCH  21  22
ATOM     22  N   UNL     1       2.525   6.294  18.077  0.00  0.00    +0.000 N 
ATOM     23  H   UNL     1       2.931   6.823  17.313  0.00  0.00    +0.000 HD
ATOM     24  H   UNL     1       2.886   6.594  18.985  0.00  0.00    +0.000 HD
ENDBRANCH  21  22
ENDBRANCH  14  16
ENDBRANCH   5  11
BRANCH   1  26
ATOM     25  C   UNL     1      10.713  13.155  17.331  0.00  0.00    +0.000 C 
ATOM     26  C   UNL     1       9.617  12.928  18.389  0.00  0.00    +0.000 C 
ATOM     27  C   UNL     1      10.175  13.287  19.779  0.00  0.00    +0.000 C 
ATOM     28  C   UNL     1       8.446  13.886  18.082  0.00  0.00    +0.000 C 
ENDBRANCH   1  26
TORSDOF 4
ENDMDL
MODEL 3
REMARK VINA RESULT:      -8.2      1.601      2.007
REMARK  Name = 
REMARK  7 active torsions:
REMARK  status: ('A' for Active; 'I' for Inactive)
REMARK    1  A    between atoms: C_1  and  C_2
REMARK    2  A    between atoms: C_2  and  C_3
REMARK    3  A    between atoms: C_2  and  C_4
REMARK    4  A    between atoms: C_2  and  C_5
REMARK    5  A    between atoms: C_9  and  C_11
REMARK    6  A    between atoms: C_14  and  C_15
REMARK    7  A    between atoms: C_20  and  N_21
REMARK                            x       y       z     vdW  Elec       q    Type
REMARK                         _______ _______ _______ _____ _____    ______ ____
ROOT
ATOM      1  C   UNL     1      10.095  11.367  19.175  0.00  0.00    +0.000 A 
ATOM      2  C   UNL     1       9.499  10.280  19.795  0.00  0.00    +0.000 A 
ATOM      3  C   UNL     1       8.922   9.504  18.756  0.00  0.00    +0.000 A 
ATOM      4  N   UNL     1       8.239   8.318  18.935  0.00  0.00    +0.000 N 
ATOM      5  C   UNL     1       7.686   7.572  17.899  0.00  0.00    +0.000 C 
ATOM      6  O   UNL     1       7.666   7.889  16.713  0.00  0.00    +0.000 OA
ATOM      7  N   UNL     1       9.144  10.073  17.576  0.00  0.00    +0.000 NA
ATOM      8  N   UNL     1       9.843  11.175  17.843  0.00  0.00    +0.000 N 
ATOM      9  H   UNL     1       8.167   7.957  19.875  0.00  0.00    +0.000 HD
ATOM     10  H   UNL     1      10.122  11.752  17.057  0.00  0.00    +0.000 HD
ENDROOT
BRANCH   5  11
ATOM     11  C   UNL     1       7.111   6.318  18.349  0.00  0.00    +0.000 A 
ATOM     12  N   UNL     1       7.749   5.314  18.922  0.00  0.00    +0.000 NA
ATOM     13  N   UNL     1       6.805   4.320  19.101  0.00  0.00    +0.000 NA
ATOM     14  C   UNL     1       5.661   4.787  18.629  0.00  0.00    +0.000 A 
ATOM     15  O   UNL     1       5.777   6.066  18.155  0.00  0.00    +0.000 OA
BRANCH  14  16
ATOM     16  C   UNL     1       4.358   4.140  18.502  0.00  0.00    +0.000 A 
ATOM     17  C   UNL     1       3.342   4.741  17.730  0.00  0.00    +0.000 A 
ATOM     18  C   UNL     1       2.089   4.140  17.596  0.00  0.00    +0.000 A 
ATOM     19  C   UNL     1       1.839   2.920  18.212  0.00  0.00    +0.000 A 
ATOM     20  C   UNL     1       2.838   2.305  18.968  0.00  0.00    +0.000 A 
ATOM     21  C   UNL     1       4.085   2.921  19.162  0.00  0.00    +0.000 A 
BRANCH  21  22
ATOM     22  N   UNL     1       5.094   2.175  19.806  0.00  0.00    +0.000 N 
ATOM     23  H   UNL     1       5.180   2.363  20.799  0.00  0.00    +0.000 HD
ATOM     24  H   UNL     1       5.996   2.218  19.329  0.00  0.00    +0.000 HD
ENDBRANCH  21  22
ENDBRANCH  14  16
ENDBRANCH   5  11
BRANCH   1  26
ATOM     25  C   UNL     1      12.333  12.115  19.990  0.00  0.00    +0.000 C 
ATOM     26  C   UNL     1      10.880  12.546  19.717  0.00  0.00    +0.000 C 
ATOM     27  C   UNL     1      10.245  13.036  21.032  0.00  0.00    +0.000 C 
ATOM     28  C   UNL     1      10.907  13.731  18.729  0.00  0.00    +0.000 C 
ENDBRANCH   1  26
TORSDOF 4
ENDMDL
MODEL 4
REMARK VINA RESULT:      -8.2      1.059      1.146
REMARK  Name = 
REMARK  7 active torsions:
REMARK  status: ('A' for Active; 'I' for Inactive)
REMARK    1  A    between atoms: C_1  and  C_2
REMARK    2  A    between atoms: C_2  and  C_3
REMARK    3  A    between atoms: C_2  and  C_4
REMARK    4  A    between atoms: C_2  and  C_5
REMARK    5  A    between atoms: C_9  and  C_11
REMARK    6  A    between atoms: C_14  and  C_15
REMARK    7  A    between atoms: C_20  and  N_21
REMARK                            x       y       z     vdW  Elec       q    Type
REMARK                         _______ _______ _______ _____ _____    ______ ____
ROOT
ATOM      1  C   UNL     1       9.505  11.636  18.391  0.00  0.00    +0.000 A 
ATOM      2  C   UNL     1       8.507  11.040  17.636  0.00  0.00    +0.000 A 
ATOM      3  C   UNL     1       8.448   9.687  18.061  0.00  0.00    +0.000 A 
ATOM      4  N   UNL     1       7.573   8.738  17.574  0.00  0.00    +0.000 N 
ATOM      5  C   UNL     1       7.530   7.418  18.011  0.00  0.00    +0.000 C 
ATOM      6  O   UNL     1       8.293   6.903  18.823  0.00  0.00    +0.000 OA
ATOM      7  N   UNL     1       9.348   9.462  19.012  0.00  0.00    +0.000 NA
ATOM      8  N   UNL     1       9.965  10.629  19.197  0.00  0.00    +0.000 N 
ATOM      9  H   UNL     1       6.902   9.033  16.879  0.00  0.00    +0.000 HD
ATOM     10  H   UNL     1      10.693  10.665  19.902  0.00  0.00    +0.000 HD
ENDROOT
BRANCH   5  11
ATOM     11  C   UNL     1       6.453   6.656  17.408  0.00  0.00    +0.000 A 
ATOM     12  N   UNL     1       6.107   6.643  16.134  0.00  0.00    +0.000 NA
ATOM     13  N   UNL     1       4.989   5.835  16.053  0.00  0.00    +0.000 NA
ATOM     14  C   UNL     1       4.734   5.410  17.279  0.00  0.00    +0.000 A 
ATOM     15  O   UNL     1       5.642   5.876  18.192  0.00  0.00    +0.000 OA
BRANCH  14  16
ATOM     16  C   UNL     1       3.637   4.589  17.785  0.00  0.00    +0.000 A 
ATOM     17  C   UNL     1       3.333   3.357  17.170  0.00  0.00    +0.000 A 
ATOM     18  C   UNL     1       2.288   2.558  17.638  0.00  0.00    +0.000 A 
ATOM     19  C   UNL     1       1.545   2.966  18.739  0.00  0.00    +0.000 A 
ATOM     20  C   UNL     1       1.842   4.176  19.367  0.00  0.00    +0.000 A 
ATOM     21  C   UNL     1       2.851   5.022  18.877  0.00  0.00    +0.000 A 
BRANCH  21  22
ATOM     22  N   UNL     1       3.197   6.150  19.649  0.00  0.00    +0.000 N 
ATOM     23  H   UNL     1       3.590   5.926  20.557  0.00  0.00    +0.000 HD
ATOM     24  H   UNL     1       2.446   6.840  19.716  0.00  0.00    +0.000 HD
ENDBRANCH  21  22
ENDBRANCH  14  16
ENDBRANCH   5  11
BRANCH   1  26
ATOM     25  C   UNL     1       8.876  14.051  18.450  0.00  0.00    +0.000 C 
ATOM     26  C   UNL     1      10.048  13.052  18.428  0.00  0.00    +0.000 C 
ATOM     27  C   UNL     1      10.910  13.314  17.180  0.00  0.00    +0.000 C 
ATOM     28  C   UNL     1      10.921  13.308  19.675  0.00  0.00    +0.000 C 
ENDBRANCH   1  26
TORSDOF 4
ENDMDL
MODEL 5
REMARK VINA RESULT:      -8.2      0.735      1.051
REMARK  Name = 
REMARK  7 active torsions:
REMARK  status: ('A' for Active; 'I' for Inactive)
REMARK    1  A    between atoms: C_1  and  C_2
REMARK    2  A    between atoms: C_2  and  C_3
REMARK    3  A    between atoms: C_2  and  C_4
REMARK    4  A    between atoms: C_2  and  C_5
REMARK    5  A    between atoms: C_9  and  C_11
REMARK    6  A    between atoms: C_14  and  C_15
REMARK    7  A    between atoms: C_20  and  N_21
REMARK                            x       y       z     vdW  Elec       q    Type
REMARK                         _______ _______ _______ _____ _____    ______ ____
ROOT
ATOM      1  C   UNL     1       9.017  10.842  18.320  0.00  0.00    +0.000 A 
ATOM      2  C   UNL     1       8.134  10.068  17.585  0.00  0.00    +0.000 A 
ATOM      3  C   UNL     1       8.182   8.769  18.154  0.00  0.00    +0.000 A 
ATOM      4  N   UNL     1       7.438   7.687  17.730  0.00  0.00    +0.000 N 
ATOM      5  C   UNL     1       7.498   6.423  18.309  0.00  0.00    +0.000 C 
ATOM      6  O   UNL     1       8.255   6.080  19.213  0.00  0.00    +0.000 OA
ATOM      7  N   UNL     1       9.037   8.742  19.171  0.00  0.00    +0.000 NA
ATOM      8  N   UNL     1       9.522   9.980  19.257  0.00  0.00    +0.000 N 
ATOM      9  H   UNL     1       6.787   7.835  16.972  0.00  0.00    +0.000 HD
ATOM     10  H   UNL     1      10.196  10.167  19.991  0.00  0.00    +0.000 HD
ENDROOT
BRANCH   5  11
ATOM     11  C   UNL     1       6.542   5.493  17.739  0.00  0.00    +0.000 A 
ATOM     12  N   UNL     1       6.502   5.063  16.492  0.00  0.00    +0.000 NA
ATOM     13  N   UNL     1       5.382   4.257  16.405  0.00  0.00    +0.000 NA
ATOM     14  C   UNL     1       4.822   4.249  17.603  0.00  0.00    +0.000 A 
ATOM     15  O   UNL     1       5.522   4.999  18.510  0.00  0.00    +0.000 OA
BRANCH  14  16
ATOM     16  C   UNL     1       3.586   3.623  18.063  0.00  0.00    +0.000 A 
ATOM     17  C   UNL     1       2.346   4.018  17.519  0.00  0.00    +0.000 A 
ATOM     18  C   UNL     1       1.153   3.433  17.945  0.00  0.00    +0.000 A 
ATOM     19  C   UNL     1       1.181   2.428  18.905  0.00  0.00    +0.000 A 
ATOM     20  C   UNL     1       2.400   2.016  19.444  0.00  0.00    +0.000 A 
ATOM     21  C   UNL     1       3.606   2.632  19.071  0.00  0.00    +0.000 A 
BRANCH  21  22
ATOM     22  N   UNL     1       4.808   2.063  19.539  0.00  0.00    +0.000 N 
ATOM     23  H   UNL     1       4.678   1.273  20.162  0.00  0.00    +0.000 HD
ATOM     24  H   UNL     1       5.459   2.751  19.922  0.00  0.00    +0.000 HD
ENDBRANCH  21  22
ENDBRANCH  14  16
ENDBRANCH   5  11
BRANCH   1  26
ATOM     25  C   UNL     1       9.590  12.878  19.646  0.00  0.00    +0.000 C 
ATOM     26  C   UNL     1       9.414  12.304  18.228  0.00  0.00    +0.000 C 
ATOM     27  C   UNL     1       8.317  13.098  17.496  0.00  0.00    +0.000 C 
ATOM     28  C   UNL     1      10.739  12.500  17.461  0.00  0.00    +0.000 C 
ENDBRANCH   1  26
TORSDOF 4
ENDMDL
MODEL 6
REMARK VINA RESULT:      -8.0      1.129      1.245
REMARK  Name = 
REMARK  7 active torsions:
REMARK  status: ('A' for Active; 'I' for Inactive)
REMARK    1  A    between atoms: C_1  and  C_2
REMARK    2  A    between atoms: C_2  and  C_3
REMARK    3  A    between atoms: C_2  and  C_4
REMARK    4  A    between atoms: C_2  and  C_5
REMARK    5  A    between atoms: C_9  and  C_11
REMARK    6  A    between atoms: C_14  and  C_15
REMARK    7  A    between atoms: C_20  and  N_21
REMARK                            x       y       z     vdW  Elec       q    Type
REMARK                         _______ _______ _______ _____ _____    ______ ____
ROOT
ATOM      1  C   UNL     1       9.479  12.130  18.574  0.00  0.00    +0.000 A 
ATOM      2  C   UNL     1       8.685  11.394  17.709  0.00  0.00    +0.000 A 
ATOM      3  C   UNL     1       8.682  10.067  18.212  0.00  0.00    +0.000 A 
ATOM      4  N   UNL     1       7.996   9.007  17.656  0.00  0.00    +0.000 N 
ATOM      5  C   UNL     1       8.004   7.715  18.172  0.00  0.00    +0.000 C 
ATOM      6  O   UNL     1       8.661   7.327  19.133  0.00  0.00    +0.000 OA
ATOM      7  N   UNL     1       9.423   9.989  19.313  0.00  0.00    +0.000 NA
ATOM      8  N   UNL     1       9.886  11.222  19.514  0.00  0.00    +0.000 N 
ATOM      9  H   UNL     1       7.430   9.193  16.841  0.00  0.00    +0.000 HD
ATOM     10  H   UNL     1      10.477  11.372  20.325  0.00  0.00    +0.000 HD
ENDROOT
BRANCH   5  11
ATOM     11  C   UNL     1       7.122   6.814  17.455  0.00  0.00    +0.000 A 
ATOM     12  N   UNL     1       7.252   6.403  16.207  0.00  0.00    +0.000 NA
ATOM     13  N   UNL     1       6.141   5.622  15.948  0.00  0.00    +0.000 NA
ATOM     14  C   UNL     1       5.416   5.608  17.054  0.00  0.00    +0.000 A 
ATOM     15  O   UNL     1       5.993   6.328  18.065  0.00  0.00    +0.000 OA
BRANCH  14  16
ATOM     16  C   UNL     1       4.116   4.999  17.323  0.00  0.00    +0.000 A 
ATOM     17  C   UNL     1       3.026   5.804  17.715  0.00  0.00    +0.000 A 
ATOM     18  C   UNL     1       1.775   5.242  17.977  0.00  0.00    +0.000 A 
ATOM     19  C   UNL     1       1.588   3.873  17.831  0.00  0.00    +0.000 A 
ATOM     20  C   UNL     1       2.653   3.065  17.430  0.00  0.00    +0.000 A 
ATOM     21  C   UNL     1       3.933   3.602  17.217  0.00  0.00    +0.000 A 
BRANCH  21  22
ATOM     22  N   UNL     1       4.918   2.756  16.668  0.00  0.00    +0.000 N 
ATOM     23  H   UNL     1       4.576   2.138  15.940  0.00  0.00    +0.000 HD
ATOM     24  H   UNL     1       5.459   2.253  17.374  0.00  0.00    +0.000 HD
ENDBRANCH  21  22
ENDBRANCH  14  16
ENDBRANCH   5  11
BRANCH   1  26
ATOM     25  C   UNL     1       8.626  14.466  18.346  0.00  0.00    +0.000 C 
ATOM     26  C   UNL     1       9.872  13.595  18.601  0.00  0.00    +0.000 C 
ATOM     27  C   UNL     1      10.916  13.876  17.504  0.00  0.00    +0.000 C 
ATOM     28  C   UNL     1      10.480  14.011  19.957  0.00  0.00    +0.000 C 
ENDBRANCH   1  26
TORSDOF 4
ENDMDL
MODEL 7
REMARK VINA RESULT:      -7.9      5.137      6.880
REMARK  Name = 
REMARK  7 active torsions:
REMARK  status: ('A' for Active; 'I' for Inactive)
REMARK    1  A    between atoms: C_1  and  C_2
REMARK    2  A    between atoms: C_2  and  C_3
REMARK    3  A    between atoms: C_2  and  C_4
REMARK    4  A    between atoms: C_2  and  C_5
REMARK    5  A    between atoms: C_9  and  C_11
REMARK    6  A    between atoms: C_14  and  C_15
REMARK    7  A    between atoms: C_20  and  N_21
REMARK                            x       y       z     vdW  Elec       q    Type
REMARK                         _______ _______ _______ _____ _____    ______ ____
ROOT
ATOM      1  C   UNL     1       0.954   9.581  19.119  0.00  0.00    +0.000 A 
ATOM      2  C   UNL     1       1.527   8.875  18.073  0.00  0.00    +0.000 A 
ATOM      3  C   UNL     1       2.215   7.785  18.667  0.00  0.00    +0.000 A 
ATOM      4  N   UNL     1       2.915   6.816  17.977  0.00  0.00    +0.000 N 
ATOM      5  C   UNL     1       3.577   5.752  18.582  0.00  0.00    +0.000 C 
ATOM      6  O   UNL     1       3.689   5.565  19.790  0.00  0.00    +0.000 OA
ATOM      7  N   UNL     1       2.077   7.815  19.988  0.00  0.00    +0.000 NA
ATOM      8  N   UNL     1       1.325   8.886  20.239  0.00  0.00    +0.000 N 
ATOM      9  H   UNL     1       2.917   6.869  16.969  0.00  0.00    +0.000 HD
ATOM     10  H   UNL     1       1.097   9.080  21.208  0.00  0.00    +0.000 HD
ENDROOT
BRANCH   5  11
ATOM     11  C   UNL     1       4.148   4.823  17.625  0.00  0.00    +0.000 A 
ATOM     12  N   UNL     1       4.252   3.514  17.756  0.00  0.00    +0.000 NA
ATOM     13  N   UNL     1       4.925   3.073  16.632  0.00  0.00    +0.000 NA
ATOM     14  C   UNL     1       5.180   4.141  15.895  0.00  0.00    +0.000 A 
ATOM     15  O   UNL     1       4.693   5.290  16.456  0.00  0.00    +0.000 OA
BRANCH  14  16
ATOM     16  C   UNL     1       5.923   4.269  14.643  0.00  0.00    +0.000 A 
ATOM     17  C   UNL     1       5.477   3.600  13.485  0.00  0.00    +0.000 A 
ATOM     18  C   UNL     1       6.172   3.709  12.279  0.00  0.00    +0.000 A 
ATOM     19  C   UNL     1       7.310   4.504  12.206  0.00  0.00    +0.000 A 
ATOM     20  C   UNL     1       7.756   5.183  13.341  0.00  0.00    +0.000 A 
ATOM     21  C   UNL     1       7.104   5.041  14.576  0.00  0.00    +0.000 A 
BRANCH  21  22
ATOM     22  N   UNL     1       7.517   5.874  15.638  0.00  0.00    +0.000 N 
ATOM     23  H   UNL     1       6.801   6.040  16.336  0.00  0.00    +0.000 HD
ATOM     24  H   UNL     1       7.955   6.741  15.324  0.00  0.00    +0.000 HD
ENDBRANCH  21  22
ENDBRANCH  14  16
ENDBRANCH   5  11
BRANCH   1  26
ATOM     25  C   UNL     1      -0.452  11.036  20.582  0.00  0.00    +0.000 C 
ATOM     26  C   UNL     1       0.091  10.828  19.155  0.00  0.00    +0.000 C 
ATOM     27  C   UNL     1      -1.093  10.673  18.183  0.00  0.00    +0.000 C 
ATOM     28  C   UNL     1       0.878  12.093  18.751  0.00  0.00    +0.000 C 
ENDBRANCH   1  26
TORSDOF 4
ENDMDL
MODEL 8
REMARK VINA RESULT:      -7.9      2.937      4.007
REMARK  Name = 
REMARK  7 active torsions:
REMARK  status: ('A' for Active; 'I' for Inactive)
REMARK    1  A    between atoms: C_1  and  C_2
REMARK    2  A    between atoms: C_2  and  C_3
REMARK    3  A    between atoms: C_2  and  C_4
REMARK    4  A    between atoms: C_2  and  C_5
REMARK    5  A    between atoms: C_9  and  C_11
REMARK    6  A    between atoms: C_14  and  C_15
REMARK    7  A    between atoms: C_20  and  N_21
REMARK                            x       y       z     vdW  Elec       q    Type
REMARK                         _______ _______ _______ _____ _____    ______ ____
ROOT
ATOM      1  C   UNL     1       9.483  11.741  18.745  0.00  0.00    +0.000 A 
ATOM      2  C   UNL     1       8.690  11.120  17.793  0.00  0.00    +0.000 A 
ATOM      3  C   UNL     1       8.585   9.763  18.195  0.00  0.00    +0.000 A 
ATOM      4  N   UNL     1       7.865   8.790  17.532  0.00  0.00    +0.000 N 
ATOM      5  C   UNL     1       7.772   7.466  17.949  0.00  0.00    +0.000 C 
ATOM      6  O   UNL     1       8.360   6.969  18.905  0.00  0.00    +0.000 OA
ATOM      7  N   UNL     1       9.268   9.559  19.317  0.00  0.00    +0.000 NA
ATOM      8  N   UNL     1       9.792  10.743  19.630  0.00  0.00    +0.000 N 
ATOM      9  H   UNL     1       7.349   9.069  16.710  0.00  0.00    +0.000 HD
ATOM     10  H   UNL     1      10.352  10.797  20.474  0.00  0.00    +0.000 HD
ENDROOT
BRANCH   5  11
ATOM     11  C   UNL     1       6.873   6.676  17.130  0.00  0.00    +0.000 A 
ATOM     12  N   UNL     1       5.658   6.272  17.450  0.00  0.00    +0.000 NA
ATOM     13  N   UNL     1       5.226   5.494  16.392  0.00  0.00    +0.000 NA
ATOM     14  C   UNL     1       6.204   5.481  15.502  0.00  0.00    +0.000 A 
ATOM     15  O   UNL     1       7.278   6.234  15.896  0.00  0.00    +0.000 OA
BRANCH  14  16
ATOM     16  C   UNL     1       6.317   4.766  14.233  0.00  0.00    +0.000 A 
ATOM     17  C   UNL     1       5.276   3.917  13.805  0.00  0.00    +0.000 A 
ATOM     18  C   UNL     1       5.365   3.224  12.596  0.00  0.00    +0.000 A 
ATOM     19  C   UNL     1       6.483   3.386  11.787  0.00  0.00    +0.000 A 
ATOM     20  C   UNL     1       7.515   4.233  12.191  0.00  0.00    +0.000 A 
ATOM     21  C   UNL     1       7.472   4.894  13.429  0.00  0.00    +0.000 A 
BRANCH  21  22
ATOM     22  N   UNL     1       8.473   5.850  13.701  0.00  0.00    +0.000 N 
ATOM     23  H   UNL     1       8.599   6.538  12.967  0.00  0.00    +0.000 HD
ATOM     24  H   UNL     1       9.359   5.435  13.993  0.00  0.00    +0.000 HD
ENDBRANCH  21  22
ENDBRANCH  14  16
ENDBRANCH   5  11
BRANCH   1  26
ATOM     25  C   UNL     1      11.038  13.241  19.996  0.00  0.00    +0.000 C 
ATOM     26  C   UNL     1       9.960  13.173  18.898  0.00  0.00    +0.000 C 
ATOM     27  C   UNL     1       8.779  14.077  19.295  0.00  0.00    +0.000 C 
ATOM     28  C   UNL     1      10.568  13.727  17.592  0.00  0.00    +0.000 C 
ENDBRANCH   1  26
TORSDOF 4
ENDMDL
MODEL 9
REMARK VINA RESULT:      -7.8      5.088      6.893
REMARK  Name = 
REMARK  7 active torsions:
REMARK  status: ('A' for Active; 'I' for Inactive)
REMARK    1  A    between atoms: C_1  and  C_2
REMARK    2  A    between atoms: C_2  and  C_3
REMARK    3  A    between atoms: C_2  and  C_4
REMARK    4  A    between atoms: C_2  and  C_5
REMARK    5  A    between atoms: C_9  and  C_11
REMARK    6  A    between atoms: C_14  and  C_15
REMARK    7  A    between atoms: C_20  and  N_21
REMARK                            x       y       z     vdW  Elec       q    Type
REMARK                         _______ _______ _______ _____ _____    ______ ____
ROOT
ATOM      1  C   UNL     1       1.275   9.173  18.827  0.00  0.00    +0.000 A 
ATOM      2  C   UNL     1       2.241   8.857  17.884  0.00  0.00    +0.000 A 
ATOM      3  C   UNL     1       2.922   7.718  18.386  0.00  0.00    +0.000 A 
ATOM      4  N   UNL     1       3.955   7.063  17.747  0.00  0.00    +0.000 N 
ATOM      5  C   UNL     1       4.604   5.943  18.257  0.00  0.00    +0.000 C 
ATOM      6  O   UNL     1       4.403   5.431  19.354  0.00  0.00    +0.000 OA
ATOM      7  N   UNL     1       2.414   7.355  19.559  0.00  0.00    +0.000 NA
ATOM      8  N   UNL     1       1.437   8.227  19.804  0.00  0.00    +0.000 N 
ATOM      9  H   UNL     1       4.232   7.403  16.837  0.00  0.00    +0.000 HD
ATOM     10  H   UNL     1       0.913   8.111  20.665  0.00  0.00    +0.000 HD
ENDROOT
BRANCH   5  11
ATOM     11  C   UNL     1       5.584   5.390  17.342  0.00  0.00    +0.000 A 
ATOM     12  N   UNL     1       6.862   5.166  17.588  0.00  0.00    +0.000 NA
ATOM     13  N   UNL     1       7.401   4.707  16.401  0.00  0.00    +0.000 NA
ATOM     14  C   UNL     1       6.418   4.680  15.518  0.00  0.00    +0.000 A 
ATOM     15  O   UNL     1       5.224   5.081  16.055  0.00  0.00    +0.000 OA
BRANCH  14  16
ATOM     16  C   UNL     1       6.435   4.346  14.096  0.00  0.00    +0.000 A 
ATOM     17  C   UNL     1       5.405   3.559  13.542  0.00  0.00    +0.000 A 
ATOM     18  C   UNL     1       5.402   3.229  12.186  0.00  0.00    +0.000 A 
ATOM     19  C   UNL     1       6.416   3.696  11.358  0.00  0.00    +0.000 A 
ATOM     20  C   UNL     1       7.436   4.487  11.889  0.00  0.00    +0.000 A 
ATOM     21  C   UNL     1       7.488   4.783  13.260  0.00  0.00    +0.000 A 
BRANCH  21  22
ATOM     22  N   UNL     1       8.456   5.711  13.698  0.00  0.00    +0.000 N 
ATOM     23  H   UNL     1       9.077   6.038  12.965  0.00  0.00    +0.000 HD
ATOM     24  H   UNL     1       8.970   5.400  14.525  0.00  0.00    +0.000 HD
ENDBRANCH  21  22
ENDBRANCH  14  16
ENDBRANCH   5  11
BRANCH   1  26
ATOM     25  C   UNL     1       0.890  11.634  18.666  0.00  0.00    +0.000 C 
ATOM     26  C   UNL     1       0.222  10.263  18.882  0.00  0.00    +0.000 C 
ATOM     27  C   UNL     1      -0.470  10.251  20.258  0.00  0.00    +0.000 C 
ATOM     28  C   UNL     1      -0.863  10.080  17.800  0.00  0.00    +0.000 C 
ENDBRANCH   1  26
TORSDOF 4
ENDMDL
