MODEL 1
REMARK VINA RESULT:      -8.8      0.000      0.000
REMARK  Name = 
REMARK  7 active torsions:
REMARK  status: ('A' for Active; 'I' for Inactive)
REMARK    1  A    between atoms: C_1  and  C_2
REMARK    2  A    between atoms: C_5  and  C_6
REMARK    3  A    between atoms: C_12  and  C_13
REMARK    4  A    between atoms: N_15  and  N_16
REMARK    5  A    between atoms: N_16  and  C_17
REMARK    6  A    between atoms: C_17  and  N_19
REMARK    7  A    between atoms: C_20  and  C_22
REMARK                            x       y       z     vdW  Elec       q    Type
REMARK                         _______ _______ _______ _____ _____    ______ ____
ROOT
ATOM      1  C   UNL     1       2.439   6.816  19.575  0.00  0.00    +0.000 C 
ATOM      2  O   UNL     1       2.400   7.513  18.564  0.00  0.00    +0.000 OA
ATOM      3  N   UNL     1       2.095   7.319  20.819  0.00  0.00    +0.000 N 
ATOM      4  H   UNL     1       2.278   6.818  21.681  0.00  0.00    +0.000 HD
ENDROOT
BRANCH   1  10
ATOM      5  C   UNL     1       0.791   4.046  20.436  0.00  0.00    +0.000 C 
ATOM      6  C   UNL     1       2.148   4.308  19.915  0.00  0.00    +0.000 A 
ATOM      7  O   UNL     1       2.890   3.198  19.681  0.00  0.00    +0.000 OA
ATOM      8  N   UNL     1       4.116   3.551  19.186  0.00  0.00    +0.000 NA
ATOM      9  C   UNL     1       4.138   4.894  19.121  0.00  0.00    +0.000 A 
ATOM     10  C   UNL     1       2.876   5.431  19.557  0.00  0.00    +0.000 A 
BRANCH   9  11
ATOM     11  C   UNL     1       5.363   5.577  18.690  0.00  0.00    +0.000 A 
ATOM     12  C   UNL     1       5.360   6.381  17.538  0.00  0.00    +0.000 A 
ATOM     13  C   UNL     1       6.529   7.014  17.104  0.00  0.00    +0.000 A 
ATOM     14  C   UNL     1       7.715   6.853  17.814  0.00  0.00    +0.000 A 
ATOM     15  C   UNL     1       7.737   6.046  18.949  0.00  0.00    +0.000 A 
ATOM     16  C   UNL     1       6.574   5.403  19.376  0.00  0.00    +0.000 A 
ENDBRANCH   9  11
ENDBRANCH   1  10
BRANCH   3  17
ATOM     17  N   UNL     1       1.779   8.682  20.944  0.00  0.00    +0.000 N 
ATOM     18  H   UNL     1       2.498   9.360  20.657  0.00  0.00    +0.000 HD
BRANCH  17  19
ATOM     19  C   UNL     1       0.553   9.105  21.391  0.00  0.00    +0.000 C 
ATOM     20  S   UNL     1       0.130   9.268  23.004  0.00  0.00    +0.000 S 
BRANCH  19  21
ATOM     21  N   UNL     1      -0.384   9.426  20.433  0.00  0.00    +0.000 N 
ATOM     22  C   UNL     1      -0.180  10.127  19.253  0.00  0.00    +0.000 C 
ATOM     23  O   UNL     1       0.918  10.551  18.903  0.00  0.00    +0.000 OA
ATOM     24  H   UNL     1      -1.325   9.156  20.684  0.00  0.00    +0.000 HD
BRANCH  22  25
ATOM     25  C   UNL     1      -1.377  10.410  18.410  0.00  0.00    +0.000 A 
ATOM     26  C   UNL     1      -2.300  11.352  18.896  0.00  0.00    +0.000 A 
ATOM     27  C   UNL     1      -3.448  11.660  18.166  0.00  0.00    +0.000 A 
ATOM     28  C   UNL     1      -3.671  11.033  16.948  0.00  0.00    +0.000 A 
ATOM     29  F   UNL     1      -4.775  11.322  16.247  0.00  0.00    +0.000 F 
ATOM     30  C   UNL     1      -2.758  10.113  16.439  0.00  0.00    +0.000 A 
ATOM     31  C   UNL     1      -1.604   9.800  17.168  0.00  0.00    +0.000 A 
ENDBRANCH  22  25
ENDBRANCH  19  21
ENDBRANCH  17  19
ENDBRANCH   3  17
TORSDOF 6
ENDMDL
MODEL 2
REMARK VINA RESULT:      -8.4      0.590      1.083
REMARK  Name = 
REMARK  7 active torsions:
REMARK  status: ('A' for Active; 'I' for Inactive)
REMARK    1  A    between atoms: C_1  and  C_2
REMARK    2  A    between atoms: C_5  and  C_6
REMARK    3  A    between atoms: C_12  and  C_13
REMARK    4  A    between atoms: N_15  and  N_16
REMARK    5  A    between atoms: N_16  and  C_17
REMARK    6  A    between atoms: C_17  and  N_19
REMARK    7  A    between atoms: C_20  and  C_22
REMARK                            x       y       z     vdW  Elec       q    Type
REMARK                         _______ _______ _______ _____ _____    ______ ____
ROOT
ATOM      1  C   UNL     1       2.505   6.358  19.165  0.00  0.00    +0.000 C 
ATOM      2  O   UNL     1       2.088   6.639  18.045  0.00  0.00    +0.000 OA
ATOM      3  N   UNL     1       2.414   7.250  20.221  0.00  0.00    +0.000 N 
ATOM      4  H   UNL     1       2.897   7.108  21.101  0.00  0.00    +0.000 HD
ENDROOT
BRANCH   1  10
ATOM      5  C   UNL     1       1.244   3.584  20.521  0.00  0.00    +0.000 C 
ATOM      6  C   UNL     1       2.582   3.961  20.023  0.00  0.00    +0.000 A 
ATOM      7  O   UNL     1       3.505   2.969  20.069  0.00  0.00    +0.000 OA
ATOM      8  N   UNL     1       4.698   3.416  19.570  0.00  0.00    +0.000 NA
ATOM      9  C   UNL     1       4.515   4.701  19.218  0.00  0.00    +0.000 A 
ATOM     10  C   UNL     1       3.153   5.093  19.467  0.00  0.00    +0.000 A 
BRANCH   9  11
ATOM     11  C   UNL     1       5.650   5.480  18.710  0.00  0.00    +0.000 A 
ATOM     12  C   UNL     1       6.872   5.488  19.405  0.00  0.00    +0.000 A 
ATOM     13  C   UNL     1       7.952   6.248  18.944  0.00  0.00    +0.000 A 
ATOM     14  C   UNL     1       7.827   7.009  17.785  0.00  0.00    +0.000 A 
ATOM     15  C   UNL     1       6.616   7.023  17.095  0.00  0.00    +0.000 A 
ATOM     16  C   UNL     1       5.534   6.275  17.561  0.00  0.00    +0.000 A 
ENDBRANCH   9  11
ENDBRANCH   1  10
BRANCH   3  17
ATOM     17  N   UNL     1       1.913   8.542  19.986  0.00  0.00    +0.000 N 
ATOM     18  H   UNL     1       2.376   9.100  19.255  0.00  0.00    +0.000 HD
BRANCH  17  19
ATOM     19  C   UNL     1       0.829   9.035  20.667  0.00  0.00    +0.000 C 
ATOM     20  S   UNL     1       0.747   9.210  22.331  0.00  0.00    +0.000 S 
BRANCH  19  21
ATOM     21  N   UNL     1      -0.259   9.419  19.913  0.00  0.00    +0.000 N 
ATOM     22  C   UNL     1      -0.256  10.173  18.748  0.00  0.00    +0.000 C 
ATOM     23  O   UNL     1       0.770  10.593  18.221  0.00  0.00    +0.000 OA
ATOM     24  H   UNL     1      -1.145   9.155  20.322  0.00  0.00    +0.000 HD
BRANCH  22  25
ATOM     25  C   UNL     1      -1.579  10.520  18.155  0.00  0.00    +0.000 A 
ATOM     26  C   UNL     1      -2.429  11.345  18.910  0.00  0.00    +0.000 A 
ATOM     27  C   UNL     1      -3.687  11.703  18.423  0.00  0.00    +0.000 A 
ATOM     28  C   UNL     1      -4.092  11.241  17.178  0.00  0.00    +0.000 A 
ATOM     29  F   UNL     1      -5.300  11.577  16.710  0.00  0.00    +0.000 F 
ATOM     30  C   UNL     1      -3.257  10.439  16.405  0.00  0.00    +0.000 A 
ATOM     31  C   UNL     1      -1.994  10.078  16.890  0.00  0.00    +0.000 A 
ENDBRANCH  22  25
ENDBRANCH  19  21
ENDBRANCH  17  19
ENDBRANCH   3  17
TORSDOF 6
ENDMDL
MODEL 3
REMARK VINA RESULT:      -8.2      1.077      1.611
REMARK  Name = 
REMARK  7 active torsions:
REMARK  status: ('A' for Active; 'I' for Inactive)
REMARK    1  A    between atoms: C_1  and  C_2
REMARK    2  A    between atoms: C_5  and  C_6
REMARK    3  A    between atoms: C_12  and  C_13
REMARK    4  A    between atoms: N_15  and  N_16
REMARK    5  A    between atoms: N_16  and  C_17
REMARK    6  A    between atoms: C_17  and  N_19
REMARK    7  A    between atoms: C_20  and  C_22
REMARK                            x       y       z     vdW  Elec       q    Type
REMARK                         _______ _______ _______ _____ _____    ______ ____
ROOT
ATOM      1  C   UNL     1       2.516   5.682  19.193  0.00  0.00    +0.000 C 
ATOM      2  O   UNL     1       1.975   5.770  18.094  0.00  0.00    +0.000 OA
ATOM      3  N   UNL     1       2.566   6.754  20.068  0.00  0.00    +0.000 N 
ATOM      4  H   UNL     1       3.147   6.756  20.899  0.00  0.00    +0.000 HD
ENDROOT
BRANCH   1  10
ATOM      5  C   UNL     1       1.399   3.285  21.226  0.00  0.00    +0.000 C 
ATOM      6  C   UNL     1       2.662   3.494  20.489  0.00  0.00    +0.000 A 
ATOM      7  O   UNL     1       3.560   2.485  20.606  0.00  0.00    +0.000 OA
ATOM      8  N   UNL     1       4.680   2.770  19.873  0.00  0.00    +0.000 NA
ATOM      9  C   UNL     1       4.478   3.970  19.302  0.00  0.00    +0.000 A 
ATOM     10  C   UNL     1       3.173   4.469  19.649  0.00  0.00    +0.000 A 
BRANCH   9  11
ATOM     11  C   UNL     1       5.546   4.580  18.504  0.00  0.00    +0.000 A 
ATOM     12  C   UNL     1       6.503   5.410  19.114  0.00  0.00    +0.000 A 
ATOM     13  C   UNL     1       7.509   6.018  18.357  0.00  0.00    +0.000 A 
ATOM     14  C   UNL     1       7.576   5.805  16.983  0.00  0.00    +0.000 A 
ATOM     15  C   UNL     1       6.625   4.998  16.362  0.00  0.00    +0.000 A 
ATOM     16  C   UNL     1       5.612   4.401  17.114  0.00  0.00    +0.000 A 
ENDBRANCH   9  11
ENDBRANCH   1  10
BRANCH   3  17
ATOM     17  N   UNL     1       2.064   8.000  19.656  0.00  0.00    +0.000 N 
ATOM     18  H   UNL     1       2.410   8.374  18.762  0.00  0.00    +0.000 HD
BRANCH  17  19
ATOM     19  C   UNL     1       1.122   8.680  20.384  0.00  0.00    +0.000 C 
ATOM     20  S   UNL     1       1.229   8.993  22.027  0.00  0.00    +0.000 S 
BRANCH  19  21
ATOM     21  N   UNL     1       0.018   9.142  19.701  0.00  0.00    +0.000 N 
ATOM     22  C   UNL     1      -0.123  10.359  19.048  0.00  0.00    +0.000 C 
ATOM     23  O   UNL     1       0.771  11.199  18.989  0.00  0.00    +0.000 OA
ATOM     24  H   UNL     1      -0.779   8.523  19.758  0.00  0.00    +0.000 HD
BRANCH  22  25
ATOM     25  C   UNL     1      -1.451  10.658  18.438  0.00  0.00    +0.000 A 
ATOM     26  C   UNL     1      -1.807   9.940  17.284  0.00  0.00    +0.000 A 
ATOM     27  C   UNL     1      -3.030  10.174  16.653  0.00  0.00    +0.000 A 
ATOM     28  C   UNL     1      -3.898  11.120  17.180  0.00  0.00    +0.000 A 
ATOM     29  F   UNL     1      -5.070  11.351  16.574  0.00  0.00    +0.000 F 
ATOM     30  C   UNL     1      -3.573  11.827  18.334  0.00  0.00    +0.000 A 
ATOM     31  C   UNL     1      -2.347  11.595  18.971  0.00  0.00    +0.000 A 
ENDBRANCH  22  25
ENDBRANCH  19  21
ENDBRANCH  17  19
ENDBRANCH   3  17
TORSDOF 6
ENDMDL
MODEL 4
REMARK VINA RESULT:      -8.1      1.825      2.299
REMARK  Name = 
REMARK  7 active torsions:
REMARK  status: ('A' for Active; 'I' for Inactive)
REMARK    1  A    between atoms: C_1  and  C_2
REMARK    2  A    between atoms: C_5  and  C_6
REMARK    3  A    between atoms: C_12  and  C_13
REMARK    4  A    between atoms: N_15  and  N_16
REMARK    5  A    between atoms: N_16  and  C_17
REMARK    6  A    between atoms: C_17  and  N_19
REMARK    7  A    between atoms: C_20  and  C_22
REMARK                            x       y       z     vdW  Elec       q    Type
REMARK                         _______ _______ _______ _____ _____    ______ ____
ROOT
ATOM      1  C   UNL     1       2.464   5.171  19.707  0.00  0.00    +0.000 C 
ATOM      2  O   UNL     1       1.467   5.125  18.991  0.00  0.00    +0.000 OA
ATOM      3  N   UNL     1       2.874   6.349  20.308  0.00  0.00    +0.000 N 
ATOM      4  H   UNL     1       3.776   6.447  20.761  0.00  0.00    +0.000 HD
ENDROOT
BRANCH   1  10
ATOM      5  C   UNL     1       1.912   2.494  21.619  0.00  0.00    +0.000 C 
ATOM      6  C   UNL     1       3.029   2.917  20.750  0.00  0.00    +0.000 A 
ATOM      7  O   UNL     1       4.041   2.020  20.651  0.00  0.00    +0.000 OA
ATOM      8  N   UNL     1       5.010   2.500  19.812  0.00  0.00    +0.000 NA
ATOM      9  C   UNL     1       4.598   3.710  19.393  0.00  0.00    +0.000 A 
ATOM     10  C   UNL     1       3.307   4.014  19.952  0.00  0.00    +0.000 A 
BRANCH   9  11
ATOM     11  C   UNL     1       5.472   4.511  18.529  0.00  0.00    +0.000 A 
ATOM     12  C   UNL     1       6.451   5.349  19.090  0.00  0.00    +0.000 A 
ATOM     13  C   UNL     1       7.270   6.137  18.275  0.00  0.00    +0.000 A 
ATOM     14  C   UNL     1       7.124   6.098  16.892  0.00  0.00    +0.000 A 
ATOM     15  C   UNL     1       6.147   5.285  16.322  0.00  0.00    +0.000 A 
ATOM     16  C   UNL     1       5.320   4.508  17.134  0.00  0.00    +0.000 A 
ENDBRANCH   9  11
ENDBRANCH   1  10
BRANCH   3  17
ATOM     17  N   UNL     1       2.185   7.540  20.025  0.00  0.00    +0.000 N 
ATOM     18  H   UNL     1       1.708   8.006  20.809  0.00  0.00    +0.000 HD
BRANCH  17  19
ATOM     19  C   UNL     1       2.176   8.092  18.769  0.00  0.00    +0.000 C 
ATOM     20  S   UNL     1       3.407   7.924  17.644  0.00  0.00    +0.000 S 
BRANCH  19  21
ATOM     21  N   UNL     1       1.064   8.825  18.417  0.00  0.00    +0.000 N 
ATOM     22  C   UNL     1       0.350   9.711  19.211  0.00  0.00    +0.000 C 
ATOM     23  O   UNL     1       0.652   9.967  20.374  0.00  0.00    +0.000 OA
ATOM     24  H   UNL     1       0.724   8.619  17.488  0.00  0.00    +0.000 HD
BRANCH  22  25
ATOM     25  C   UNL     1      -0.869  10.332  18.618  0.00  0.00    +0.000 A 
ATOM     26  C   UNL     1      -1.325   9.816  17.393  0.00  0.00    +0.000 A 
ATOM     27  C   UNL     1      -2.454  10.354  16.774  0.00  0.00    +0.000 A 
ATOM     28  C   UNL     1      -3.130  11.403  17.381  0.00  0.00    +0.000 A 
ATOM     29  F   UNL     1      -4.210  11.925  16.787  0.00  0.00    +0.000 F 
ATOM     30  C   UNL     1      -2.707  11.915  18.605  0.00  0.00    +0.000 A 
ATOM     31  C   UNL     1      -1.575  11.378  19.231  0.00  0.00    +0.000 A 
ENDBRANCH  22  25
ENDBRANCH  19  21
ENDBRANCH  17  19
ENDBRANCH   3  17
TORSDOF 6
ENDMDL
MODEL 5
REMARK VINA RESULT:      -8.1      1.250      1.546
REMARK  Name = 
REMARK  7 active torsions:
REMARK  status: ('A' for Active; 'I' for Inactive)
REMARK    1  A    between atoms: C_1  and  C_2
REMARK    2  A    between atoms: C_5  and  C_6
REMARK    3  A    between atoms: C_12  and  C_13
REMARK    4  A    between atoms: N_15  and  N_16
REMARK    5  A    between atoms: N_16  and  C_17
REMARK    6  A    between atoms: C_17  and  N_19
REMARK    7  A    between atoms: C_20  and  C_22
REMARK                            x       y       z     vdW  Elec       q    Type
REMARK                         _______ _______ _______ _____ _____    ______ ____
ROOT
ATOM      1  C   UNL     1       2.541   5.893  19.068  0.00  0.00    +0.000 C 
ATOM      2  O   UNL     1       2.310   6.369  17.959  0.00  0.00    +0.000 OA
ATOM      3  N   UNL     1       2.515   6.672  20.213  0.00  0.00    +0.000 N 
ATOM      4  H   UNL     1       2.863   6.342  21.106  0.00  0.00    +0.000 HD
ENDROOT
BRANCH   1  10
ATOM      5  C   UNL     1       1.120   3.593  21.021  0.00  0.00    +0.000 C 
ATOM      6  C   UNL     1       2.261   3.574  20.083  0.00  0.00    +0.000 A 
ATOM      7  O   UNL     1       2.845   2.361  19.925  0.00  0.00    +0.000 OA
ATOM      8  N   UNL     1       3.873   2.451  19.027  0.00  0.00    +0.000 NA
ATOM      9  C   UNL     1       3.932   3.735  18.629  0.00  0.00    +0.000 A 
ATOM     10  C   UNL     1       2.890   4.497  19.266  0.00  0.00    +0.000 A 
BRANCH   9  11
ATOM     11  C   UNL     1       4.994   4.158  17.710  0.00  0.00    +0.000 A 
ATOM     12  C   UNL     1       6.213   4.648  18.210  0.00  0.00    +0.000 A 
ATOM     13  C   UNL     1       7.220   5.080  17.342  0.00  0.00    +0.000 A 
ATOM     14  C   UNL     1       7.026   5.028  15.965  0.00  0.00    +0.000 A 
ATOM     15  C   UNL     1       5.816   4.560  15.454  0.00  0.00    +0.000 A 
ATOM     16  C   UNL     1       4.805   4.141  16.320  0.00  0.00    +0.000 A 
ENDBRANCH   9  11
ENDBRANCH   1  10
BRANCH   3  17
ATOM     17  N   UNL     1       2.307   8.056  20.097  0.00  0.00    +0.000 N 
ATOM     18  H   UNL     1       2.985   8.589  19.534  0.00  0.00    +0.000 HD
BRANCH  17  19
ATOM     19  C   UNL     1       1.227   8.678  20.669  0.00  0.00    +0.000 C 
ATOM     20  S   UNL     1       1.076   9.014  22.304  0.00  0.00    +0.000 S 
BRANCH  19  21
ATOM     21  N   UNL     1       0.205   9.059  19.826  0.00  0.00    +0.000 N 
ATOM     22  C   UNL     1      -0.061  10.332  19.343  0.00  0.00    +0.000 C 
ATOM     23  O   UNL     1       0.626  11.313  19.615  0.00  0.00    +0.000 OA
ATOM     24  H   UNL     1      -0.436   8.309  19.607  0.00  0.00    +0.000 HD
BRANCH  22  25
ATOM     25  C   UNL     1      -1.277  10.502  18.496  0.00  0.00    +0.000 A 
ATOM     26  C   UNL     1      -2.230  11.444  18.917  0.00  0.00    +0.000 A 
ATOM     27  C   UNL     1      -3.397  11.649  18.180  0.00  0.00    +0.000 A 
ATOM     28  C   UNL     1      -3.607  10.918  17.019  0.00  0.00    +0.000 A 
ATOM     29  F   UNL     1      -4.728  11.108  16.312  0.00  0.00    +0.000 F 
ATOM     30  C   UNL     1      -2.665   9.995  16.573  0.00  0.00    +0.000 A 
ATOM     31  C   UNL     1      -1.492   9.786  17.310  0.00  0.00    +0.000 A 
ENDBRANCH  22  25
ENDBRANCH  19  21
ENDBRANCH  17  19
ENDBRANCH   3  17
TORSDOF 6
ENDMDL
MODEL 6
REMARK VINA RESULT:      -8.0      2.941      3.469
REMARK  Name = 
REMARK  7 active torsions:
REMARK  status: ('A' for Active; 'I' for Inactive)
REMARK    1  A    between atoms: C_1  and  C_2
REMARK    2  A    between atoms: C_5  and  C_6
REMARK    3  A    between atoms: C_12  and  C_13
REMARK    4  A    between atoms: N_15  and  N_16
REMARK    5  A    between atoms: N_16  and  C_17
REMARK    6  A    between atoms: C_17  and  N_19
REMARK    7  A    between atoms: C_20  and  C_22
REMARK                            x       y       z     vdW  Elec       q    Type
REMARK                         _______ _______ _______ _____ _____    ______ ____
ROOT
ATOM      1  C   UNL     1       3.355   5.295  19.512  0.00  0.00    +0.000 C 
ATOM      2  O   UNL     1       4.410   5.876  19.751  0.00  0.00    +0.000 OA
ATOM      3  N   UNL     1       2.128   5.914  19.686  0.00  0.00    +0.000 N 
ATOM      4  H   UNL     1       1.251   5.407  19.657  0.00  0.00    +0.000 HD
ENDROOT
BRANCH   1  10
ATOM      5  C   UNL     1       1.584   2.730  20.701  0.00  0.00    +0.000 C 
ATOM      6  C   UNL     1       2.541   2.883  19.586  0.00  0.00    +0.000 A 
ATOM      7  O   UNL     1       2.720   1.768  18.836  0.00  0.00    +0.000 OA
ATOM      8  N   UNL     1       3.606   2.022  17.825  0.00  0.00    +0.000 NA
ATOM      9  C   UNL     1       3.987   3.305  17.954  0.00  0.00    +0.000 A 
ATOM     10  C   UNL     1       3.303   3.914  19.065  0.00  0.00    +0.000 A 
BRANCH   9  11
ATOM     11  C   UNL     1       4.999   3.853  17.045  0.00  0.00    +0.000 A 
ATOM     12  C   UNL     1       4.719   4.000  15.676  0.00  0.00    +0.000 A 
ATOM     13  C   UNL     1       5.687   4.496  14.797  0.00  0.00    +0.000 A 
ATOM     14  C   UNL     1       6.945   4.852  15.272  0.00  0.00    +0.000 A 
ATOM     15  C   UNL     1       7.243   4.698  16.624  0.00  0.00    +0.000 A 
ATOM     16  C   UNL     1       6.282   4.191  17.500  0.00  0.00    +0.000 A 
ENDBRANCH   9  11
ENDBRANCH   1  10
BRANCH   3  17
ATOM     17  N   UNL     1       2.084   7.208  20.233  0.00  0.00    +0.000 N 
ATOM     18  H   UNL     1       2.336   7.308  21.226  0.00  0.00    +0.000 HD
BRANCH  17  19
ATOM     19  C   UNL     1       1.759   8.305  19.476  0.00  0.00    +0.000 C 
ATOM     20  S   UNL     1       2.337   8.603  17.932  0.00  0.00    +0.000 S 
BRANCH  19  21
ATOM     21  N   UNL     1       0.886   9.213  20.035  0.00  0.00    +0.000 N 
ATOM     22  C   UNL     1       0.742   9.530  21.378  0.00  0.00    +0.000 C 
ATOM     23  O   UNL     1       1.421   9.023  22.266  0.00  0.00    +0.000 OA
ATOM     24  H   UNL     1       0.253   9.627  19.364  0.00  0.00    +0.000 HD
BRANCH  22  25
ATOM     25  C   UNL     1      -0.331  10.500  21.740  0.00  0.00    +0.000 A 
ATOM     26  C   UNL     1      -0.790  11.362  20.730  0.00  0.00    +0.000 A 
ATOM     27  C   UNL     1      -1.785  12.302  20.998  0.00  0.00    +0.000 A 
ATOM     28  C   UNL     1      -2.326  12.377  22.274  0.00  0.00    +0.000 A 
ATOM     29  F   UNL     1      -3.277  13.282  22.537  0.00  0.00    +0.000 F 
ATOM     30  C   UNL     1      -1.900  11.519  23.284  0.00  0.00    +0.000 A 
ATOM     31  C   UNL     1      -0.902  10.573  23.019  0.00  0.00    +0.000 A 
ENDBRANCH  22  25
ENDBRANCH  19  21
ENDBRANCH  17  19
ENDBRANCH   3  17
TORSDOF 6
ENDMDL
MODEL 7
REMARK VINA RESULT:      -8.0      4.062      5.911
REMARK  Name = 
REMARK  7 active torsions:
REMARK  status: ('A' for Active; 'I' for Inactive)
REMARK    1  A    between atoms: C_1  and  C_2
REMARK    2  A    between atoms: C_5  and  C_6
REMARK    3  A    between atoms: C_12  and  C_13
REMARK    4  A    between atoms: N_15  and  N_16
REMARK    5  A    between atoms: N_16  and  C_17
REMARK    6  A    between atoms: C_17  and  N_19
REMARK    7  A    between atoms: C_20  and  C_22
REMARK                            x       y       z     vdW  Elec       q    Type
REMARK                         _______ _______ _______ _____ _____    ______ ____
ROOT
ATOM      1  C   UNL     1       4.735   3.875  16.084  0.00  0.00    +0.000 C 
ATOM      2  O   UNL     1       3.639   4.427  16.133  0.00  0.00    +0.000 OA
ATOM      3  N   UNL     1       5.038   2.789  16.887  0.00  0.00    +0.000 N 
ATOM      4  H   UNL     1       5.980   2.426  16.985  0.00  0.00    +0.000 HD
ENDROOT
BRANCH   1  10
ATOM      5  C   UNL     1       5.251   3.283  12.842  0.00  0.00    +0.000 C 
ATOM      6  C   UNL     1       5.972   4.066  13.866  0.00  0.00    +0.000 A 
ATOM      7  O   UNL     1       7.054   4.741  13.405  0.00  0.00    +0.000 OA
ATOM      8  N   UNL     1       7.635   5.445  14.425  0.00  0.00    +0.000 NA
ATOM      9  C   UNL     1       6.910   5.198  15.531  0.00  0.00    +0.000 A 
ATOM     10  C   UNL     1       5.805   4.331  15.215  0.00  0.00    +0.000 A 
BRANCH   9  11
ATOM     11  C   UNL     1       7.336   5.764  16.815  0.00  0.00    +0.000 A 
ATOM     12  C   UNL     1       7.537   7.149  16.949  0.00  0.00    +0.000 A 
ATOM     13  C   UNL     1       7.969   7.696  18.161  0.00  0.00    +0.000 A 
ATOM     14  C   UNL     1       8.206   6.869  19.255  0.00  0.00    +0.000 A 
ATOM     15  C   UNL     1       8.027   5.492  19.133  0.00  0.00    +0.000 A 
ATOM     16  C   UNL     1       7.608   4.944  17.920  0.00  0.00    +0.000 A 
ENDBRANCH   9  11
ENDBRANCH   1  10
BRANCH   3  17
ATOM     17  N   UNL     1       4.103   2.360  17.844  0.00  0.00    +0.000 N 
ATOM     18  H   UNL     1       3.485   1.580  17.581  0.00  0.00    +0.000 HD
BRANCH  17  19
ATOM     19  C   UNL     1       4.034   2.921  19.094  0.00  0.00    +0.000 C 
ATOM     20  S   UNL     1       4.449   2.138  20.516  0.00  0.00    +0.000 S 
BRANCH  19  21
ATOM     21  N   UNL     1       3.600   4.227  19.169  0.00  0.00    +0.000 N 
ATOM     22  C   UNL     1       2.487   4.710  19.842  0.00  0.00    +0.000 C 
ATOM     23  O   UNL     1       1.731   3.995  20.493  0.00  0.00    +0.000 OA
ATOM     24  H   UNL     1       4.145   4.865  18.605  0.00  0.00    +0.000 HD
BRANCH  22  25
ATOM     25  C   UNL     1       2.187   6.165  19.712  0.00  0.00    +0.000 A 
ATOM     26  C   UNL     1       2.487   6.778  18.484  0.00  0.00    +0.000 A 
ATOM     27  C   UNL     1       2.243   8.139  18.292  0.00  0.00    +0.000 A 
ATOM     28  C   UNL     1       1.693   8.885  19.326  0.00  0.00    +0.000 A 
ATOM     29  F   UNL     1       1.462  10.191  19.148  0.00  0.00    +0.000 F 
ATOM     30  C   UNL     1       1.369   8.292  20.543  0.00  0.00    +0.000 A 
ATOM     31  C   UNL     1       1.612   6.927  20.740  0.00  0.00    +0.000 A 
ENDBRANCH  22  25
ENDBRANCH  19  21
ENDBRANCH  17  19
ENDBRANCH   3  17
TORSDOF 6
ENDMDL
MODEL 8
REMARK VINA RESULT:      -8.0      4.366      6.450
REMARK  Name = 
REMARK  7 active torsions:
REMARK  status: ('A' for Active; 'I' for Inactive)
REMARK    1  A    between atoms: C_1  and  C_2
REMARK    2  A    between atoms: C_5  and  C_6
REMARK    3  A    between atoms: C_12  and  C_13
REMARK    4  A    between atoms: N_15  and  N_16
REMARK    5  A    between atoms: N_16  and  C_17
REMARK    6  A    between atoms: C_17  and  N_19
REMARK    7  A    between atoms: C_20  and  C_22
REMARK                            x       y       z     vdW  Elec       q    Type
REMARK                         _______ _______ _______ _____ _____    ______ ____
ROOT
ATOM      1  C   UNL     1       4.804   3.987  16.228  0.00  0.00    +0.000 C 
ATOM      2  O   UNL     1       3.645   4.196  15.881  0.00  0.00    +0.000 OA
ATOM      3  N   UNL     1       5.109   3.114  17.259  0.00  0.00    +0.000 N 
ATOM      4  H   UNL     1       6.034   3.054  17.669  0.00  0.00    +0.000 HD
ENDROOT
BRANCH   1  10
ATOM      5  C   UNL     1       6.967   6.162  17.540  0.00  0.00    +0.000 C 
ATOM      6  C   UNL     1       6.819   5.545  16.205  0.00  0.00    +0.000 A 
ATOM      7  O   UNL     1       7.786   5.880  15.316  0.00  0.00    +0.000 OA
ATOM      8  N   UNL     1       7.565   5.243  14.125  0.00  0.00    +0.000 NA
ATOM      9  C   UNL     1       6.446   4.513  14.275  0.00  0.00    +0.000 A 
ATOM     10  C   UNL     1       5.939   4.654  15.614  0.00  0.00    +0.000 A 
BRANCH   9  11
ATOM     11  C   UNL     1       5.912   3.767  13.130  0.00  0.00    +0.000 A 
ATOM     12  C   UNL     1       4.643   4.076  12.611  0.00  0.00    +0.000 A 
ATOM     13  C   UNL     1       4.113   3.353  11.538  0.00  0.00    +0.000 A 
ATOM     14  C   UNL     1       4.842   2.313  10.968  0.00  0.00    +0.000 A 
ATOM     15  C   UNL     1       6.095   1.984  11.483  0.00  0.00    +0.000 A 
ATOM     16  C   UNL     1       6.619   2.697  12.562  0.00  0.00    +0.000 A 
ENDBRANCH   9  11
ENDBRANCH   1  10
BRANCH   3  17
ATOM     17  N   UNL     1       4.064   2.521  17.987  0.00  0.00    +0.000 N 
ATOM     18  H   UNL     1       3.712   1.614  17.650  0.00  0.00    +0.000 HD
BRANCH  17  19
ATOM     19  C   UNL     1       3.554   3.094  19.124  0.00  0.00    +0.000 C 
ATOM     20  S   UNL     1       3.527   2.364  20.632  0.00  0.00    +0.000 S 
BRANCH  19  21
ATOM     21  N   UNL     1       3.040   4.368  19.005  0.00  0.00    +0.000 N 
ATOM     22  C   UNL     1       3.658   5.563  19.344  0.00  0.00    +0.000 C 
ATOM     23  O   UNL     1       4.797   5.627  19.799  0.00  0.00    +0.000 OA
ATOM     24  H   UNL     1       2.080   4.386  18.689  0.00  0.00    +0.000 HD
BRANCH  22  25
ATOM     25  C   UNL     1       2.862   6.814  19.187  0.00  0.00    +0.000 A 
ATOM     26  C   UNL     1       2.935   7.473  17.948  0.00  0.00    +0.000 A 
ATOM     27  C   UNL     1       2.225   8.654  17.731  0.00  0.00    +0.000 A 
ATOM     28  C   UNL     1       1.437   9.173  18.749  0.00  0.00    +0.000 A 
ATOM     29  F   UNL     1       0.758  10.309  18.546  0.00  0.00    +0.000 F 
ATOM     30  C   UNL     1       1.334   8.524  19.976  0.00  0.00    +0.000 A 
ATOM     31  C   UNL     1       2.045   7.338  20.199  0.00  0.00    +0.000 A 
ENDBRANCH  22  25
ENDBRANCH  19  21
ENDBRANCH  17  19
ENDBRANCH   3  17
TORSDOF 6
ENDMDL
MODEL 9
REMARK VINA RESULT:      -8.0      4.634      7.943
REMARK  Name = 
REMARK  7 active torsions:
REMARK  status: ('A' for Active; 'I' for Inactive)
REMARK    1  A    between atoms: C_1  and  C_2
REMARK    2  A    between atoms: C_5  and  C_6
REMARK    3  A    between atoms: C_12  and  C_13
REMARK    4  A    between atoms: N_15  and  N_16
REMARK    5  A    between atoms: N_16  and  C_17
REMARK    6  A    between atoms: C_17  and  N_19
REMARK    7  A    between atoms: C_20  and  C_22
REMARK                            x       y       z     vdW  Elec       q    Type
REMARK                         _______ _______ _______ _____ _____    ______ ____
ROOT
ATOM      1  C   UNL     1       4.751   4.626  18.934  0.00  0.00    +0.000 C 
ATOM      2  O   UNL     1       4.842   4.091  17.832  0.00  0.00    +0.000 OA
ATOM      3  N   UNL     1       5.821   5.288  19.512  0.00  0.00    +0.000 N 
ATOM      4  H   UNL     1       5.821   5.588  20.480  0.00  0.00    +0.000 HD
ENDROOT
BRANCH   1  10
ATOM      5  C   UNL     1       3.569   2.192  20.885  0.00  0.00    +0.000 C 
ATOM      6  C   UNL     1       3.092   3.546  20.537  0.00  0.00    +0.000 A 
ATOM      7  O   UNL     1       1.957   3.927  21.172  0.00  0.00    +0.000 OA
ATOM      8  N   UNL     1       1.614   5.197  20.794  0.00  0.00    +0.000 NA
ATOM      9  C   UNL     1       2.543   5.605  19.911  0.00  0.00    +0.000 A 
ATOM     10  C   UNL     1       3.538   4.580  19.731  0.00  0.00    +0.000 A 
BRANCH   9  11
ATOM     11  C   UNL     1       2.403   6.916  19.268  0.00  0.00    +0.000 A 
ATOM     12  C   UNL     1       1.665   7.937  19.892  0.00  0.00    +0.000 A 
ATOM     13  C   UNL     1       1.503   9.181  19.275  0.00  0.00    +0.000 A 
ATOM     14  C   UNL     1       2.073   9.423  18.029  0.00  0.00    +0.000 A 
ATOM     15  C   UNL     1       2.794   8.415  17.391  0.00  0.00    +0.000 A 
ATOM     16  C   UNL     1       2.946   7.169  18.000  0.00  0.00    +0.000 A 
ENDBRANCH   9  11
ENDBRANCH   1  10
BRANCH   3  17
ATOM     17  N   UNL     1       7.068   5.275  18.863  0.00  0.00    +0.000 N 
ATOM     18  H   UNL     1       7.774   4.614  19.216  0.00  0.00    +0.000 HD
BRANCH  17  19
ATOM     19  C   UNL     1       7.331   6.074  17.780  0.00  0.00    +0.000 C 
ATOM     20  S   UNL     1       7.746   7.695  17.869  0.00  0.00    +0.000 S 
BRANCH  19  21
ATOM     21  N   UNL     1       7.256   5.484  16.536  0.00  0.00    +0.000 N 
ATOM     22  C   UNL     1       6.347   5.759  15.525  0.00  0.00    +0.000 C 
ATOM     23  O   UNL     1       5.469   6.612  15.623  0.00  0.00    +0.000 OA
ATOM     24  H   UNL     1       7.916   4.729  16.409  0.00  0.00    +0.000 HD
BRANCH  22  25
ATOM     25  C   UNL     1       6.428   4.929  14.289  0.00  0.00    +0.000 A 
ATOM     26  C   UNL     1       5.409   3.985  14.077  0.00  0.00    +0.000 A 
ATOM     27  C   UNL     1       5.425   3.167  12.947  0.00  0.00    +0.000 A 
ATOM     28  C   UNL     1       6.455   3.297  12.026  0.00  0.00    +0.000 A 
ATOM     29  F   UNL     1       6.476   2.509  10.943  0.00  0.00    +0.000 F 
ATOM     30  C   UNL     1       7.462   4.240  12.206  0.00  0.00    +0.000 A 
ATOM     31  C   UNL     1       7.451   5.064  13.339  0.00  0.00    +0.000 A 
ENDBRANCH  22  25
ENDBRANCH  19  21
ENDBRANCH  17  19
ENDBRANCH   3  17
TORSDOF 6
ENDMDL
