MODEL 1
REMARK VINA RESULT:      -8.4      0.000      0.000
REMARK  Name = 
REMARK  9 active torsions:
REMARK  status: ('A' for Active; 'I' for Inactive)
REMARK    1  A    between atoms: C_1  and  C_2
REMARK    2  A    between atoms: C_2  and  N_3
REMARK    3  A    between atoms: C_2  and  C_19
REMARK    4  A    between atoms: C_8  and  N_9
REMARK    5  A    between atoms: C_14  and  C_15
REMARK    6  A    between atoms: C_15  and  C_16
REMARK    7  A    between atoms: C_15  and  O_17
REMARK    8  A    between atoms: C_23  and  O_24
REMARK    9  A    between atoms: O_24  and  C_25
REMARK                            x       y       z     vdW  Elec       q    Type
REMARK                         _______ _______ _______ _____ _____    ______ ____
ROOT
ATOM      1  N   UNL     1       1.941   7.264  19.969  0.00  0.00    +0.000 N 
ATOM      2  C   UNL     1       2.684   6.113  19.821  0.00  0.00    +0.000 A 
ATOM      3  N   UNL     1       2.130   5.023  20.364  0.00  0.00    +0.000 NA
ATOM      4  C   UNL     1       2.704   3.840  20.101  0.00  0.00    +0.000 A 
ATOM      5  C   UNL     1       3.829   3.710  19.336  0.00  0.00    +0.000 A 
ATOM      6  C   UNL     1       4.394   4.887  18.908  0.00  0.00    +0.000 A 
ATOM      7  N   UNL     1       3.858   6.103  19.167  0.00  0.00    +0.000 NA
ATOM      8  H   UNL     1       1.819   7.461  20.953  0.00  0.00    +0.000 HD
ENDROOT
BRANCH   6   9
ATOM      9  N   UNL     1       5.643   4.809  18.273  0.00  0.00    +0.000 N 
ATOM     10  C   UNL     1       6.834   4.992  18.940  0.00  0.00    +0.000 C 
ATOM     11  O   UNL     1       6.994   5.368  20.094  0.00  0.00    +0.000 OA
ATOM     12  O   UNL     1       7.872   4.653  18.116  0.00  0.00    +0.000 OA
ATOM     13  C   UNL     1       7.350   4.482  16.796  0.00  0.00    +0.000 C 
ATOM     14  C   UNL     1       5.851   4.261  16.964  0.00  0.00    +0.000 C 
BRANCH  14  15
ATOM     15  C   UNL     1       5.037   4.987  15.865  0.00  0.00    +0.000 C 
ATOM     16  C   UNL     1       5.251   6.496  15.835  0.00  0.00    +0.000 C 
BRANCH  15  17
ATOM     17  O   UNL     1       5.348   4.518  14.551  0.00  0.00    +0.000 OA
ATOM     18  H   UNL     1       4.521   4.317  14.074  0.00  0.00    +0.000 HD
ENDBRANCH  15  17
ENDBRANCH  14  15
ENDBRANCH   6   9
BRANCH   1  20
ATOM     19  C   UNL     1       2.055   7.933  17.617  0.00  0.00    +0.000 C 
ATOM     20  C   UNL     1       2.124   8.391  19.083  0.00  0.00    +0.000 C 
BRANCH  20  21
ATOM     21  C   UNL     1       1.016   9.417  19.338  0.00  0.00    +0.000 A 
ATOM     22  C   UNL     1       0.759   9.911  20.627  0.00  0.00    +0.000 A 
ATOM     23  C   UNL     1      -0.307  10.789  20.854  0.00  0.00    +0.000 A 
ATOM     24  C   UNL     1      -1.133  11.157  19.797  0.00  0.00    +0.000 A 
ATOM     25  C   UNL     1      -0.907  10.666  18.509  0.00  0.00    +0.000 A 
ATOM     26  C   UNL     1       0.191   9.843  18.276  0.00  0.00    +0.000 A 
BRANCH  25  27
ATOM     27  O   UNL     1      -1.807  11.085  17.577  0.00  0.00    +0.000 OA
BRANCH  27  28
ATOM     28  C   UNL     1      -2.755  10.168  17.042  0.00  0.00    +0.000 C 
ATOM     29  F   UNL     1      -3.224   9.273  17.937  0.00  0.00    +0.000 F 
ATOM     30  F   UNL     1      -3.807  10.865  16.567  0.00  0.00    +0.000 F 
ATOM     31  F   UNL     1      -2.190   9.499  16.013  0.00  0.00    +0.000 F 
ENDBRANCH  27  28
ENDBRANCH  25  27
ENDBRANCH  20  21
ENDBRANCH   1  20
TORSDOF 7
ENDMDL
MODEL 2
REMARK VINA RESULT:      -8.0      1.827      2.047
REMARK  Name = 
REMARK  9 active torsions:
REMARK  status: ('A' for Active; 'I' for Inactive)
REMARK    1  A    between atoms: C_1  and  C_2
REMARK    2  A    between atoms: C_2  and  N_3
REMARK    3  A    between atoms: C_2  and  C_19
REMARK    4  A    between atoms: C_8  and  N_9
REMARK    5  A    between atoms: C_14  and  C_15
REMARK    6  A    between atoms: C_15  and  C_16
REMARK    7  A    between atoms: C_15  and  O_17
REMARK    8  A    between atoms: C_23  and  O_24
REMARK    9  A    between atoms: O_24  and  C_25
REMARK                            x       y       z     vdW  Elec       q    Type
REMARK                         _______ _______ _______ _____ _____    ______ ____
ROOT
ATOM      1  N   UNL     1       2.068   6.646  20.366  0.00  0.00    +0.000 N 
ATOM      2  C   UNL     1       2.861   5.564  20.054  0.00  0.00    +0.000 A 
ATOM      3  N   UNL     1       2.387   4.388  20.484  0.00  0.00    +0.000 NA
ATOM      4  C   UNL     1       3.009   3.278  20.060  0.00  0.00    +0.000 A 
ATOM      5  C   UNL     1       4.104   3.301  19.243  0.00  0.00    +0.000 A 
ATOM      6  C   UNL     1       4.589   4.550  18.938  0.00  0.00    +0.000 A 
ATOM      7  N   UNL     1       4.004   5.695  19.360  0.00  0.00    +0.000 NA
ATOM      8  H   UNL     1       1.979   6.719  21.371  0.00  0.00    +0.000 HD
ENDROOT
BRANCH   6   9
ATOM      9  N   UNL     1       5.811   4.617  18.251  0.00  0.00    +0.000 N 
ATOM     10  C   UNL     1       7.007   4.888  18.877  0.00  0.00    +0.000 C 
ATOM     11  O   UNL     1       7.181   5.235  20.038  0.00  0.00    +0.000 OA
ATOM     12  O   UNL     1       8.036   4.682  18.000  0.00  0.00    +0.000 OA
ATOM     13  C   UNL     1       7.476   4.510  16.695  0.00  0.00    +0.000 C 
ATOM     14  C   UNL     1       6.013   4.140  16.913  0.00  0.00    +0.000 C 
BRANCH  14  15
ATOM     15  C   UNL     1       5.087   4.825  15.878  0.00  0.00    +0.000 C 
ATOM     16  C   UNL     1       5.187   6.346  15.873  0.00  0.00    +0.000 C 
BRANCH  15  17
ATOM     17  O   UNL     1       5.357   4.406  14.539  0.00  0.00    +0.000 OA
ATOM     18  H   UNL     1       5.984   3.658  14.552  0.00  0.00    +0.000 HD
ENDBRANCH  15  17
ENDBRANCH  14  15
ENDBRANCH   6   9
BRANCH   1  20
ATOM     19  C   UNL     1       1.772   7.633  18.146  0.00  0.00    +0.000 C 
ATOM     20  C   UNL     1       2.154   7.877  19.615  0.00  0.00    +0.000 C 
BRANCH  20  21
ATOM     21  C   UNL     1       1.190   8.903  20.217  0.00  0.00    +0.000 A 
ATOM     22  C   UNL     1       0.820   8.853  21.571  0.00  0.00    +0.000 A 
ATOM     23  C   UNL     1      -0.121   9.751  22.086  0.00  0.00    +0.000 A 
ATOM     24  C   UNL     1      -0.713  10.687  21.244  0.00  0.00    +0.000 A 
ATOM     25  C   UNL     1      -0.374  10.746  19.890  0.00  0.00    +0.000 A 
ATOM     26  C   UNL     1       0.608   9.893  19.396  0.00  0.00    +0.000 A 
BRANCH  25  27
ATOM     27  O   UNL     1      -1.049  11.689  19.178  0.00  0.00    +0.000 OA
BRANCH  27  28
ATOM     28  C   UNL     1      -0.575  13.031  19.147  0.00  0.00    +0.000 C 
ATOM     29  F   UNL     1      -1.229  13.867  19.979  0.00  0.00    +0.000 F 
ATOM     30  F   UNL     1       0.727  13.035  19.497  0.00  0.00    +0.000 F 
ATOM     31  F   UNL     1      -0.676  13.506  17.886  0.00  0.00    +0.000 F 
ENDBRANCH  27  28
ENDBRANCH  25  27
ENDBRANCH  20  21
ENDBRANCH   1  20
TORSDOF 7
ENDMDL
MODEL 3
REMARK VINA RESULT:      -7.9      2.230      2.877
REMARK  Name = 
REMARK  9 active torsions:
REMARK  status: ('A' for Active; 'I' for Inactive)
REMARK    1  A    between atoms: C_1  and  C_2
REMARK    2  A    between atoms: C_2  and  N_3
REMARK    3  A    between atoms: C_2  and  C_19
REMARK    4  A    between atoms: C_8  and  N_9
REMARK    5  A    between atoms: C_14  and  C_15
REMARK    6  A    between atoms: C_15  and  C_16
REMARK    7  A    between atoms: C_15  and  O_17
REMARK    8  A    between atoms: C_23  and  O_24
REMARK    9  A    between atoms: O_24  and  C_25
REMARK                            x       y       z     vdW  Elec       q    Type
REMARK                         _______ _______ _______ _____ _____    ______ ____
ROOT
ATOM      1  N   UNL     1       1.857   7.350  19.985  0.00  0.00    +0.000 N 
ATOM      2  C   UNL     1       2.570   6.182  19.825  0.00  0.00    +0.000 A 
ATOM      3  N   UNL     1       1.972   5.096  20.331  0.00  0.00    +0.000 NA
ATOM      4  C   UNL     1       2.518   3.903  20.052  0.00  0.00    +0.000 A 
ATOM      5  C   UNL     1       3.654   3.758  19.307  0.00  0.00    +0.000 A 
ATOM      6  C   UNL     1       4.262   4.927  18.919  0.00  0.00    +0.000 A 
ATOM      7  N   UNL     1       3.756   6.152  19.196  0.00  0.00    +0.000 NA
ATOM      8  H   UNL     1       1.720   7.529  20.971  0.00  0.00    +0.000 HD
ENDROOT
BRANCH   6   9
ATOM      9  N   UNL     1       5.521   4.828  18.308  0.00  0.00    +0.000 N 
ATOM     10  C   UNL     1       6.702   5.009  18.994  0.00  0.00    +0.000 C 
ATOM     11  O   UNL     1       6.845   5.403  20.144  0.00  0.00    +0.000 OA
ATOM     12  O   UNL     1       7.751   4.647  18.194  0.00  0.00    +0.000 OA
ATOM     13  C   UNL     1       7.251   4.459  16.868  0.00  0.00    +0.000 C 
ATOM     14  C   UNL     1       5.747   4.256  17.012  0.00  0.00    +0.000 C 
BRANCH  14  15
ATOM     15  C   UNL     1       4.960   4.972  15.887  0.00  0.00    +0.000 C 
ATOM     16  C   UNL     1       5.202   6.476  15.827  0.00  0.00    +0.000 C 
BRANCH  15  17
ATOM     17  O   UNL     1       5.279   4.468  14.588  0.00  0.00    +0.000 OA
ATOM     18  H   UNL     1       5.706   3.595  14.674  0.00  0.00    +0.000 HD
ENDBRANCH  15  17
ENDBRANCH  14  15
ENDBRANCH   6   9
BRANCH   1  20
ATOM     19  C   UNL     1       2.045   8.070  17.653  0.00  0.00    +0.000 C 
ATOM     20  C   UNL     1       2.092   8.492  19.131  0.00  0.00    +0.000 C 
BRANCH  20  21
ATOM     21  C   UNL     1       1.007   9.542  19.384  0.00  0.00    +0.000 A 
ATOM     22  C   UNL     1       0.094   9.909  18.382  0.00  0.00    +0.000 A 
ATOM     23  C   UNL     1      -0.841  10.925  18.607  0.00  0.00    +0.000 A 
ATOM     24  C   UNL     1      -0.851  11.594  19.825  0.00  0.00    +0.000 A 
ATOM     25  C   UNL     1       0.057  11.259  20.833  0.00  0.00    +0.000 A 
ATOM     26  C   UNL     1       0.944  10.206  20.628  0.00  0.00    +0.000 A 
BRANCH  25  27
ATOM     27  O   UNL     1      -0.046  12.013  21.962  0.00  0.00    +0.000 OA
BRANCH  27  28
ATOM     28  C   UNL     1      -1.150  11.828  22.841  0.00  0.00    +0.000 C 
ATOM     29  F   UNL     1      -2.344  11.747  22.220  0.00  0.00    +0.000 F 
ATOM     30  F   UNL     1      -0.964  10.683  23.529  0.00  0.00    +0.000 F 
ATOM     31  F   UNL     1      -1.187  12.851  23.723  0.00  0.00    +0.000 F 
ENDBRANCH  27  28
ENDBRANCH  25  27
ENDBRANCH  20  21
ENDBRANCH   1  20
TORSDOF 7
ENDMDL
MODEL 4
REMARK VINA RESULT:      -7.7      4.731      8.625
REMARK  Name = 
REMARK  9 active torsions:
REMARK  status: ('A' for Active; 'I' for Inactive)
REMARK    1  A    between atoms: C_1  and  C_2
REMARK    2  A    between atoms: C_2  and  N_3
REMARK    3  A    between atoms: C_2  and  C_19
REMARK    4  A    between atoms: C_8  and  N_9
REMARK    5  A    between atoms: C_14  and  C_15
REMARK    6  A    between atoms: C_15  and  C_16
REMARK    7  A    between atoms: C_15  and  O_17
REMARK    8  A    between atoms: C_23  and  O_24
REMARK    9  A    between atoms: O_24  and  C_25
REMARK                            x       y       z     vdW  Elec       q    Type
REMARK                         _______ _______ _______ _____ _____    ______ ____
ROOT
ATOM      1  N   UNL     1       1.336   8.474  17.968  0.00  0.00    +0.000 N 
ATOM      2  C   UNL     1       0.755   9.690  18.254  0.00  0.00    +0.000 A 
ATOM      3  N   UNL     1      -0.481   9.841  17.764  0.00  0.00    +0.000 NA
ATOM      4  C   UNL     1      -1.175  10.920  18.156  0.00  0.00    +0.000 A 
ATOM      5  C   UNL     1      -0.668  11.868  19.000  0.00  0.00    +0.000 A 
ATOM      6  C   UNL     1       0.644  11.690  19.370  0.00  0.00    +0.000 A 
ATOM      7  N   UNL     1       1.386  10.627  18.982  0.00  0.00    +0.000 NA
ATOM      8  H   UNL     1       1.406   8.362  16.966  0.00  0.00    +0.000 HD
ENDROOT
BRANCH   6   9
ATOM      9  N   UNL     1       1.256  12.728  20.089  0.00  0.00    +0.000 N 
ATOM     10  C   UNL     1       0.896  13.060  21.376  0.00  0.00    +0.000 C 
ATOM     11  O   UNL     1      -0.052  12.632  22.021  0.00  0.00    +0.000 OA
ATOM     12  O   UNL     1       1.797  13.956  21.882  0.00  0.00    +0.000 OA
ATOM     13  C   UNL     1       2.625  14.406  20.807  0.00  0.00    +0.000 C 
ATOM     14  C   UNL     1       2.486  13.359  19.706  0.00  0.00    +0.000 C 
BRANCH  14  15
ATOM     15  C   UNL     1       2.423  14.009  18.301  0.00  0.00    +0.000 C 
ATOM     16  C   UNL     1       3.525  15.030  18.045  0.00  0.00    +0.000 C 
BRANCH  15  17
ATOM     17  O   UNL     1       2.522  13.047  17.248  0.00  0.00    +0.000 OA
ATOM     18  H   UNL     1       2.738  12.173  17.625  0.00  0.00    +0.000 HD
ENDBRANCH  15  17
ENDBRANCH  14  15
ENDBRANCH   6   9
BRANCH   1  20
ATOM     19  C   UNL     1       1.926   7.650  20.197  0.00  0.00    +0.000 C 
ATOM     20  C   UNL     1       2.419   7.955  18.773  0.00  0.00    +0.000 C 
BRANCH  20  21
ATOM     21  C   UNL     1       2.943   6.664  18.138  0.00  0.00    +0.000 A 
ATOM     22  C   UNL     1       2.155   5.503  18.082  0.00  0.00    +0.000 A 
ATOM     23  C   UNL     1       2.678   4.311  17.569  0.00  0.00    +0.000 A 
ATOM     24  C   UNL     1       3.998   4.269  17.132  0.00  0.00    +0.000 A 
ATOM     25  C   UNL     1       4.807   5.407  17.192  0.00  0.00    +0.000 A 
ATOM     26  C   UNL     1       4.264   6.605  17.645  0.00  0.00    +0.000 A 
BRANCH  25  27
ATOM     27  O   UNL     1       6.083   5.217  16.759  0.00  0.00    +0.000 OA
BRANCH  27  28
ATOM     28  C   UNL     1       7.155   5.186  17.695  0.00  0.00    +0.000 C 
ATOM     29  F   UNL     1       7.810   6.358  17.825  0.00  0.00    +0.000 F 
ATOM     30  F   UNL     1       6.658   4.854  18.904  0.00  0.00    +0.000 F 
ATOM     31  F   UNL     1       8.038   4.233  17.324  0.00  0.00    +0.000 F 
ENDBRANCH  27  28
ENDBRANCH  25  27
ENDBRANCH  20  21
ENDBRANCH   1  20
TORSDOF 7
ENDMDL
MODEL 5
REMARK VINA RESULT:      -7.7      5.031      8.429
REMARK  Name = 
REMARK  9 active torsions:
REMARK  status: ('A' for Active; 'I' for Inactive)
REMARK    1  A    between atoms: C_1  and  C_2
REMARK    2  A    between atoms: C_2  and  N_3
REMARK    3  A    between atoms: C_2  and  C_19
REMARK    4  A    between atoms: C_8  and  N_9
REMARK    5  A    between atoms: C_14  and  C_15
REMARK    6  A    between atoms: C_15  and  C_16
REMARK    7  A    between atoms: C_15  and  O_17
REMARK    8  A    between atoms: C_23  and  O_24
REMARK    9  A    between atoms: O_24  and  C_25
REMARK                            x       y       z     vdW  Elec       q    Type
REMARK                         _______ _______ _______ _____ _____    ______ ____
ROOT
ATOM      1  N   UNL     1       7.737   4.488  14.756  0.00  0.00    +0.000 N 
ATOM      2  C   UNL     1       7.137   4.499  15.995  0.00  0.00    +0.000 A 
ATOM      3  N   UNL     1       7.983   4.351  17.021  0.00  0.00    +0.000 NA
ATOM      4  C   UNL     1       7.495   4.535  18.257  0.00  0.00    +0.000 A 
ATOM      5  C   UNL     1       6.186   4.835  18.506  0.00  0.00    +0.000 A 
ATOM      6  C   UNL     1       5.364   4.862  17.405  0.00  0.00    +0.000 A 
ATOM      7  N   UNL     1       5.811   4.663  16.143  0.00  0.00    +0.000 NA
ATOM      8  H   UNL     1       8.208   3.604  14.617  0.00  0.00    +0.000 HD
ENDROOT
BRANCH   6   9
ATOM      9  N   UNL     1       3.985   4.990  17.632  0.00  0.00    +0.000 N 
ATOM     10  C   UNL     1       3.353   6.209  17.729  0.00  0.00    +0.000 C 
ATOM     11  O   UNL     1       3.870   7.318  17.773  0.00  0.00    +0.000 OA
ATOM     12  O   UNL     1       1.999   6.019  17.741  0.00  0.00    +0.000 OA
ATOM     13  C   UNL     1       1.751   4.620  17.905  0.00  0.00    +0.000 C 
ATOM     14  C   UNL     1       3.043   3.916  17.503  0.00  0.00    +0.000 C 
BRANCH  14  15
ATOM     15  C   UNL     1       3.357   2.718  18.433  0.00  0.00    +0.000 C 
ATOM     16  C   UNL     1       2.119   2.065  19.036  0.00  0.00    +0.000 C 
BRANCH  15  17
ATOM     17  O   UNL     1       4.067   1.675  17.762  0.00  0.00    +0.000 OA
ATOM     18  H   UNL     1       4.874   2.042  17.353  0.00  0.00    +0.000 HD
ENDBRANCH  15  17
ENDBRANCH  14  15
ENDBRANCH   6   9
BRANCH   1  20
ATOM     19  C   UNL     1       8.128   5.811  12.733  0.00  0.00    +0.000 C 
ATOM     20  C   UNL     1       7.093   5.084  13.607  0.00  0.00    +0.000 C 
BRANCH  20  21
ATOM     21  C   UNL     1       6.424   3.984  12.778  0.00  0.00    +0.000 A 
ATOM     22  C   UNL     1       7.152   2.882  12.300  0.00  0.00    +0.000 A 
ATOM     23  C   UNL     1       6.542   1.927  11.479  0.00  0.00    +0.000 A 
ATOM     24  C   UNL     1       5.210   2.083  11.114  0.00  0.00    +0.000 A 
ATOM     25  C   UNL     1       4.468   3.179  11.563  0.00  0.00    +0.000 A 
ATOM     26  C   UNL     1       5.061   4.092  12.430  0.00  0.00    +0.000 A 
BRANCH  25  27
ATOM     27  O   UNL     1       3.187   3.221  11.107  0.00  0.00    +0.000 OA
BRANCH  27  28
ATOM     28  C   UNL     1       2.907   3.765   9.822  0.00  0.00    +0.000 C 
ATOM     29  F   UNL     1       1.854   4.608   9.796  0.00  0.00    +0.000 F 
ATOM     30  F   UNL     1       3.991   4.446   9.399  0.00  0.00    +0.000 F 
ATOM     31  F   UNL     1       2.676   2.755   8.955  0.00  0.00    +0.000 F 
ENDBRANCH  27  28
ENDBRANCH  25  27
ENDBRANCH  20  21
ENDBRANCH   1  20
TORSDOF 7
ENDMDL
MODEL 6
REMARK VINA RESULT:      -7.7      1.387      1.644
REMARK  Name = 
REMARK  9 active torsions:
REMARK  status: ('A' for Active; 'I' for Inactive)
REMARK    1  A    between atoms: C_1  and  C_2
REMARK    2  A    between atoms: C_2  and  N_3
REMARK    3  A    between atoms: C_2  and  C_19
REMARK    4  A    between atoms: C_8  and  N_9
REMARK    5  A    between atoms: C_14  and  C_15
REMARK    6  A    between atoms: C_15  and  C_16
REMARK    7  A    between atoms: C_15  and  O_17
REMARK    8  A    between atoms: C_23  and  O_24
REMARK    9  A    between atoms: O_24  and  C_25
REMARK                            x       y       z     vdW  Elec       q    Type
REMARK                         _______ _______ _______ _____ _____    ______ ____
ROOT
ATOM      1  N   UNL     1       1.663   6.667  19.610  0.00  0.00    +0.000 N 
ATOM      2  C   UNL     1       2.377   5.614  19.083  0.00  0.00    +0.000 A 
ATOM      3  N   UNL     1       1.660   4.500  18.892  0.00  0.00    +0.000 NA
ATOM      4  C   UNL     1       2.241   3.498  18.216  0.00  0.00    +0.000 A 
ATOM      5  C   UNL     1       3.523   3.558  17.747  0.00  0.00    +0.000 A 
ATOM      6  C   UNL     1       4.223   4.693  18.080  0.00  0.00    +0.000 A 
ATOM      7  N   UNL     1       3.681   5.719  18.777  0.00  0.00    +0.000 NA
ATOM      8  H   UNL     1       1.291   6.404  20.512  0.00  0.00    +0.000 HD
ENDROOT
BRANCH   6   9
ATOM      9  N   UNL     1       5.592   4.720  17.773  0.00  0.00    +0.000 N 
ATOM     10  C   UNL     1       6.570   4.865  18.731  0.00  0.00    +0.000 C 
ATOM     11  O   UNL     1       6.422   5.122  19.919  0.00  0.00    +0.000 OA
ATOM     12  O   UNL     1       7.796   4.646  18.165  0.00  0.00    +0.000 OA
ATOM     13  C   UNL     1       7.625   4.600  16.746  0.00  0.00    +0.000 C 
ATOM     14  C   UNL     1       6.145   4.319  16.512  0.00  0.00    +0.000 C 
BRANCH  14  15
ATOM     15  C   UNL     1       5.588   5.134  15.318  0.00  0.00    +0.000 C 
ATOM     16  C   UNL     1       5.183   6.558  15.680  0.00  0.00    +0.000 C 
BRANCH  15  17
ATOM     17  O   UNL     1       6.526   5.249  14.247  0.00  0.00    +0.000 OA
ATOM     18  H   UNL     1       6.050   5.241  13.395  0.00  0.00    +0.000 HD
ENDBRANCH  15  17
ENDBRANCH  14  15
ENDBRANCH   6   9
BRANCH   1  20
ATOM     19  C   UNL     1       1.977   8.468  17.982  0.00  0.00    +0.000 C 
ATOM     20  C   UNL     1       2.115   8.031  19.449  0.00  0.00    +0.000 C 
BRANCH  20  21
ATOM     21  C   UNL     1       1.260   8.951  20.327  0.00  0.00    +0.000 A 
ATOM     22  C   UNL     1       1.097   8.707  21.700  0.00  0.00    +0.000 A 
ATOM     23  C   UNL     1       0.251   9.513  22.470  0.00  0.00    +0.000 A 
ATOM     24  C   UNL     1      -0.452  10.549  21.866  0.00  0.00    +0.000 A 
ATOM     25  C   UNL     1      -0.318  10.802  20.498  0.00  0.00    +0.000 A 
ATOM     26  C   UNL     1       0.571  10.038  19.749  0.00  0.00    +0.000 A 
BRANCH  25  27
ATOM     27  O   UNL     1      -1.084  11.827  20.034  0.00  0.00    +0.000 OA
BRANCH  27  28
ATOM     28  C   UNL     1      -1.888  11.644  18.873  0.00  0.00    +0.000 C 
ATOM     29  F   UNL     1      -3.029  12.363  18.873  0.00  0.00    +0.000 F 
ATOM     30  F   UNL     1      -1.170  12.008  17.792  0.00  0.00    +0.000 F 
ATOM     31  F   UNL     1      -2.200  10.334  18.754  0.00  0.00    +0.000 F 
ENDBRANCH  27  28
ENDBRANCH  25  27
ENDBRANCH  20  21
ENDBRANCH   1  20
TORSDOF 7
ENDMDL
MODEL 7
REMARK VINA RESULT:      -7.7      4.846      8.496
REMARK  Name = 
REMARK  9 active torsions:
REMARK  status: ('A' for Active; 'I' for Inactive)
REMARK    1  A    between atoms: C_1  and  C_2
REMARK    2  A    between atoms: C_2  and  N_3
REMARK    3  A    between atoms: C_2  and  C_19
REMARK    4  A    between atoms: C_8  and  N_9
REMARK    5  A    between atoms: C_14  and  C_15
REMARK    6  A    between atoms: C_15  and  C_16
REMARK    7  A    between atoms: C_15  and  O_17
REMARK    8  A    between atoms: C_23  and  O_24
REMARK    9  A    between atoms: O_24  and  C_25
REMARK                            x       y       z     vdW  Elec       q    Type
REMARK                         _______ _______ _______ _____ _____    ______ ____
ROOT
ATOM      1  N   UNL     1       0.540   9.640  19.235  0.00  0.00    +0.000 N 
ATOM      2  C   UNL     1       0.484  11.011  19.114  0.00  0.00    +0.000 A 
ATOM      3  N   UNL     1      -0.542  11.459  18.380  0.00  0.00    +0.000 NA
ATOM      4  C   UNL     1      -0.765  12.782  18.371  0.00  0.00    +0.000 A 
ATOM      5  C   UNL     1       0.017  13.676  19.048  0.00  0.00    +0.000 A 
ATOM      6  C   UNL     1       1.110  13.141  19.686  0.00  0.00    +0.000 A 
ATOM      7  N   UNL     1       1.384  11.816  19.704  0.00  0.00    +0.000 NA
ATOM      8  H   UNL     1       0.637   9.224  18.318  0.00  0.00    +0.000 HD
ENDROOT
BRANCH   6   9
ATOM      9  N   UNL     1       2.035  14.040  20.242  0.00  0.00    +0.000 N 
ATOM     10  C   UNL     1       1.928  14.523  21.526  0.00  0.00    +0.000 C 
ATOM     11  O   UNL     1       0.996  14.375  22.306  0.00  0.00    +0.000 OA
ATOM     12  O   UNL     1       3.070  15.202  21.852  0.00  0.00    +0.000 OA
ATOM     13  C   UNL     1       3.838  15.374  20.657  0.00  0.00    +0.000 C 
ATOM     14  C   UNL     1       3.319  14.330  19.674  0.00  0.00    +0.000 C 
BRANCH  14  15
ATOM     15  C   UNL     1       3.233  14.893  18.233  0.00  0.00    +0.000 C 
ATOM     16  C   UNL     1       2.914  16.382  18.171  0.00  0.00    +0.000 C 
BRANCH  15  17
ATOM     17  O   UNL     1       4.449  14.718  17.502  0.00  0.00    +0.000 OA
ATOM     18  H   UNL     1       4.570  13.772  17.294  0.00  0.00    +0.000 HD
ENDBRANCH  15  17
ENDBRANCH  14  15
ENDBRANCH   6   9
BRANCH   1  20
ATOM     19  C   UNL     1       0.284   8.673  21.470  0.00  0.00    +0.000 C 
ATOM     20  C   UNL     1       1.254   9.015  20.326  0.00  0.00    +0.000 C 
BRANCH  20  21
ATOM     21  C   UNL     1       1.909   7.724  19.825  0.00  0.00    +0.000 A 
ATOM     22  C   UNL     1       2.436   7.627  18.527  0.00  0.00    +0.000 A 
ATOM     23  C   UNL     1       2.961   6.417  18.060  0.00  0.00    +0.000 A 
ATOM     24  C   UNL     1       2.940   5.295  18.881  0.00  0.00    +0.000 A 
ATOM     25  C   UNL     1       2.407   5.362  20.171  0.00  0.00    +0.000 A 
ATOM     26  C   UNL     1       1.943   6.582  20.653  0.00  0.00    +0.000 A 
BRANCH  25  27
ATOM     27  O   UNL     1       2.425   4.185  20.853  0.00  0.00    +0.000 OA
BRANCH  27  28
ATOM     28  C   UNL     1       1.346   3.266  20.714  0.00  0.00    +0.000 C 
ATOM     29  F   UNL     1       1.631   2.191  19.950  0.00  0.00    +0.000 F 
ATOM     30  F   UNL     1       0.999   2.823  21.938  0.00  0.00    +0.000 F 
ATOM     31  F   UNL     1       0.285   3.909  20.179  0.00  0.00    +0.000 F 
ENDBRANCH  27  28
ENDBRANCH  25  27
ENDBRANCH  20  21
ENDBRANCH   1  20
TORSDOF 7
ENDMDL
MODEL 8
REMARK VINA RESULT:      -7.7      2.220      3.757
REMARK  Name = 
REMARK  9 active torsions:
REMARK  status: ('A' for Active; 'I' for Inactive)
REMARK    1  A    between atoms: C_1  and  C_2
REMARK    2  A    between atoms: C_2  and  N_3
REMARK    3  A    between atoms: C_2  and  C_19
REMARK    4  A    between atoms: C_8  and  N_9
REMARK    5  A    between atoms: C_14  and  C_15
REMARK    6  A    between atoms: C_15  and  C_16
REMARK    7  A    between atoms: C_15  and  O_17
REMARK    8  A    between atoms: C_23  and  O_24
REMARK    9  A    between atoms: O_24  and  C_25
REMARK                            x       y       z     vdW  Elec       q    Type
REMARK                         _______ _______ _______ _____ _____    ______ ____
ROOT
ATOM      1  N   UNL     1       2.020   8.641  18.471  0.00  0.00    +0.000 N 
ATOM      2  C   UNL     1       2.766   7.532  18.138  0.00  0.00    +0.000 A 
ATOM      3  N   UNL     1       3.930   7.807  17.538  0.00  0.00    +0.000 NA
ATOM      4  C   UNL     1       4.786   6.792  17.352  0.00  0.00    +0.000 A 
ATOM      5  C   UNL     1       4.510   5.505  17.721  0.00  0.00    +0.000 A 
ATOM      6  C   UNL     1       3.252   5.292  18.231  0.00  0.00    +0.000 A 
ATOM      7  N   UNL     1       2.350   6.285  18.417  0.00  0.00    +0.000 NA
ATOM      8  H   UNL     1       1.797   9.161  17.633  0.00  0.00    +0.000 HD
ENDROOT
BRANCH   6   9
ATOM      9  N   UNL     1       2.864   3.962  18.456  0.00  0.00    +0.000 N 
ATOM     10  C   UNL     1       2.487   3.112  17.442  0.00  0.00    +0.000 C 
ATOM     11  O   UNL     1       2.299   3.389  16.264  0.00  0.00    +0.000 OA
ATOM     12  O   UNL     1       2.369   1.842  17.935  0.00  0.00    +0.000 OA
ATOM     13  C   UNL     1       2.432   1.914  19.362  0.00  0.00    +0.000 C 
ATOM     14  C   UNL     1       3.084   3.254  19.684  0.00  0.00    +0.000 C 
BRANCH  14  15
ATOM     15  C   UNL     1       2.421   3.936  20.906  0.00  0.00    +0.000 C 
ATOM     16  C   UNL     1       0.934   4.213  20.725  0.00  0.00    +0.000 C 
BRANCH  15  17
ATOM     17  O   UNL     1       2.536   3.157  22.098  0.00  0.00    +0.000 OA
ATOM     18  H   UNL     1       2.452   2.210  21.877  0.00  0.00    +0.000 HD
ENDBRANCH  15  17
ENDBRANCH  14  15
ENDBRANCH   6   9
BRANCH   1  20
ATOM     19  C   UNL     1       1.666   8.635  20.894  0.00  0.00    +0.000 C 
ATOM     20  C   UNL     1       1.011   8.581  19.504  0.00  0.00    +0.000 C 
BRANCH  20  21
ATOM     21  C   UNL     1       0.064   9.775  19.352  0.00  0.00    +0.000 A 
ATOM     22  C   UNL     1      -0.223  10.625  20.433  0.00  0.00    +0.000 A 
ATOM     23  C   UNL     1      -1.150  11.664  20.296  0.00  0.00    +0.000 A 
ATOM     24  C   UNL     1      -1.810  11.843  19.086  0.00  0.00    +0.000 A 
ATOM     25  C   UNL     1      -1.555  11.001  18.000  0.00  0.00    +0.000 A 
ATOM     26  C   UNL     1      -0.587  10.009  18.122  0.00  0.00    +0.000 A 
BRANCH  25  27
ATOM     27  O   UNL     1      -2.290  11.272  16.888  0.00  0.00    +0.000 OA
BRANCH  27  28
ATOM     28  C   UNL     1      -3.199  10.299  16.383  0.00  0.00    +0.000 C 
ATOM     29  F   UNL     1      -2.652   9.436  15.502  0.00  0.00    +0.000 F 
ATOM     30  F   UNL     1      -3.680   9.582  17.418  0.00  0.00    +0.000 F 
ATOM     31  F   UNL     1      -4.235  10.930  15.786  0.00  0.00    +0.000 F 
ENDBRANCH  27  28
ENDBRANCH  25  27
ENDBRANCH  20  21
ENDBRANCH   1  20
TORSDOF 7
ENDMDL
MODEL 9
REMARK VINA RESULT:      -7.7      4.492      8.488
REMARK  Name = 
REMARK  9 active torsions:
REMARK  status: ('A' for Active; 'I' for Inactive)
REMARK    1  A    between atoms: C_1  and  C_2
REMARK    2  A    between atoms: C_2  and  N_3
REMARK    3  A    between atoms: C_2  and  C_19
REMARK    4  A    between atoms: C_8  and  N_9
REMARK    5  A    between atoms: C_14  and  C_15
REMARK    6  A    between atoms: C_15  and  C_16
REMARK    7  A    between atoms: C_15  and  O_17
REMARK    8  A    between atoms: C_23  and  O_24
REMARK    9  A    between atoms: O_24  and  C_25
REMARK                            x       y       z     vdW  Elec       q    Type
REMARK                         _______ _______ _______ _____ _____    ______ ____
ROOT
ATOM      1  N   UNL     1       1.310   8.449  17.929  0.00  0.00    +0.000 N 
ATOM      2  C   UNL     1       0.733   9.665  18.225  0.00  0.00    +0.000 A 
ATOM      3  N   UNL     1      -0.503   9.824  17.736  0.00  0.00    +0.000 NA
ATOM      4  C   UNL     1      -1.193  10.903  18.137  0.00  0.00    +0.000 A 
ATOM      5  C   UNL     1      -0.682  11.842  18.987  0.00  0.00    +0.000 A 
ATOM      6  C   UNL     1       0.629  11.658  19.355  0.00  0.00    +0.000 A 
ATOM      7  N   UNL     1       1.367  10.595  18.959  0.00  0.00    +0.000 NA
ATOM      8  H   UNL     1       1.379   8.345  16.926  0.00  0.00    +0.000 HD
ENDROOT
BRANCH   6   9
ATOM      9  N   UNL     1       1.246  12.688  20.082  0.00  0.00    +0.000 N 
ATOM     10  C   UNL     1       0.897  13.003  21.376  0.00  0.00    +0.000 C 
ATOM     11  O   UNL     1      -0.044  12.564  22.024  0.00  0.00    +0.000 OA
ATOM     12  O   UNL     1       1.800  13.895  21.885  0.00  0.00    +0.000 OA
ATOM     13  C   UNL     1       2.617  14.360  20.807  0.00  0.00    +0.000 C 
ATOM     14  C   UNL     1       2.470  13.327  19.696  0.00  0.00    +0.000 C 
BRANCH  14  15
ATOM     15  C   UNL     1       2.393  13.994  18.299  0.00  0.00    +0.000 C 
ATOM     16  C   UNL     1       3.478  15.036  18.053  0.00  0.00    +0.000 C 
BRANCH  15  17
ATOM     17  O   UNL     1       2.503  13.048  17.233  0.00  0.00    +0.000 OA
ATOM     18  H   UNL     1       3.215  13.326  16.625  0.00  0.00    +0.000 HD
ENDBRANCH  15  17
ENDBRANCH  14  15
ENDBRANCH   6   9
BRANCH   1  20
ATOM     19  C   UNL     1       1.921   7.688  20.174  0.00  0.00    +0.000 C 
ATOM     20  C   UNL     1       2.391   7.921  18.729  0.00  0.00    +0.000 C 
BRANCH  20  21
ATOM     21  C   UNL     1       2.853   6.588  18.134  0.00  0.00    +0.000 A 
ATOM     22  C   UNL     1       2.015   5.462  18.122  0.00  0.00    +0.000 A 
ATOM     23  C   UNL     1       2.480   4.232  17.644  0.00  0.00    +0.000 A 
ATOM     24  C   UNL     1       3.793   4.118  17.199  0.00  0.00    +0.000 A 
ATOM     25  C   UNL     1       4.652   5.220  17.215  0.00  0.00    +0.000 A 
ATOM     26  C   UNL     1       4.166   6.455  17.633  0.00  0.00    +0.000 A 
BRANCH  25  27
ATOM     27  O   UNL     1       5.914   4.961  16.778  0.00  0.00    +0.000 OA
BRANCH  27  28
ATOM     28  C   UNL     1       6.156   4.743  15.393  0.00  0.00    +0.000 C 
ATOM     29  F   UNL     1       5.258   5.331  14.576  0.00  0.00    +0.000 F 
ATOM     30  F   UNL     1       7.375   5.233  15.088  0.00  0.00    +0.000 F 
ATOM     31  F   UNL     1       6.160   3.414  15.149  0.00  0.00    +0.000 F 
ENDBRANCH  27  28
ENDBRANCH  25  27
ENDBRANCH  20  21
ENDBRANCH   1  20
TORSDOF 7
ENDMDL
