MODEL 1
REMARK VINA RESULT:      -7.7      0.000      0.000
REMARK  Name = 
REMARK  7 active torsions:
REMARK  status: ('A' for Active; 'I' for Inactive)
REMARK    1  A    between atoms: C_1  and  S_2
REMARK    2  A    between atoms: S_2  and  C_3
REMARK    3  A    between atoms: C_3  and  N_5
REMARK    4  A    between atoms: N_16  and  C_17
REMARK    5  A    between atoms: C_20  and  C_21
REMARK    6  A    between atoms: C_21  and  C_22
REMARK    7  A    between atoms: C_21  and  C_23
REMARK                            x       y       z     vdW  Elec       q    Type
REMARK                         _______ _______ _______ _____ _____    ______ ____
ROOT
ATOM      1  N   UNL     1       3.231   4.698  19.461  0.00  0.00    +0.000 N 
ATOM      2  C   UNL     1       4.700   4.563  19.350  0.00  0.00    +0.000 C 
ATOM      3  C   UNL     1       5.262   5.047  17.982  0.00  0.00    +0.000 C 
ATOM      4  C   UNL     1       6.812   4.983  17.963  0.00  0.00    +0.000 C 
ATOM      5  C   UNL     1       7.404   5.369  16.599  0.00  0.00    +0.000 C 
ATOM      6  C   UNL     1       6.779   4.599  15.432  0.00  0.00    +0.000 C 
ATOM      7  C   UNL     1       5.257   4.544  15.483  0.00  0.00    +0.000 C 
ATOM      8  C   UNL     1       4.764   4.103  16.857  0.00  0.00    +0.000 C 
ATOM      9  C   UNL     1       4.822   6.514  17.798  0.00  0.00    +0.000 C 
ATOM     10  S   UNL     1       3.025   6.619  17.690  0.00  0.00    +0.000 S 
ATOM     11  C   UNL     1       2.712   5.984  19.290  0.00  0.00    +0.000 C 
ATOM     12  N   UNL     1       2.087   6.589  20.255  0.00  0.00    +0.000 NA
ENDROOT
BRANCH  12  13
ATOM     13  C   UNL     1       1.619   7.919  20.146  0.00  0.00    +0.000 A 
ATOM     14  C   UNL     1       1.124   8.562  21.281  0.00  0.00    +0.000 A 
ATOM     15  C   UNL     1       0.662   9.891  21.223  0.00  0.00    +0.000 A 
ATOM     16  C   UNL     1       0.668  10.600  20.015  0.00  0.00    +0.000 A 
ATOM     17  C   UNL     1       1.177   9.960  18.882  0.00  0.00    +0.000 A 
ATOM     18  C   UNL     1       1.698   8.669  18.968  0.00  0.00    +0.000 A 
BRANCH  16  19
ATOM     19  C   UNL     1       0.176  12.031  19.933  0.00  0.00    +0.000 C 
ATOM     20  C   UNL     1       0.926  12.808  18.845  0.00  0.00    +0.000 C 
ATOM     21  C   UNL     1      -1.340  12.091  19.692  0.00  0.00    +0.000 C 
ENDBRANCH  16  19
ENDBRANCH  12  13
BRANCH   1  22
ATOM     22  C   UNL     1       2.424   3.655  19.926  0.00  0.00    +0.000 C 
ATOM     23  S   UNL     1       2.242   3.187  21.534  0.00  0.00    +0.000 S 
BRANCH  22  25
ATOM     24  C   UNL     1       3.182   1.439  18.466  0.00  0.00    +0.000 C 
ATOM     25  S   UNL     1       1.819   2.604  18.625  0.00  0.00    +0.000 S 
ENDBRANCH  22  25
ENDBRANCH   1  22
TORSDOF 4
ENDMDL
MODEL 2
REMARK VINA RESULT:      -7.6      0.543      1.099
REMARK  Name = 
REMARK  7 active torsions:
REMARK  status: ('A' for Active; 'I' for Inactive)
REMARK    1  A    between atoms: C_1  and  S_2
REMARK    2  A    between atoms: S_2  and  C_3
REMARK    3  A    between atoms: C_3  and  N_5
REMARK    4  A    between atoms: N_16  and  C_17
REMARK    5  A    between atoms: C_20  and  C_21
REMARK    6  A    between atoms: C_21  and  C_22
REMARK    7  A    between atoms: C_21  and  C_23
REMARK                            x       y       z     vdW  Elec       q    Type
REMARK                         _______ _______ _______ _____ _____    ______ ____
ROOT
ATOM      1  N   UNL     1       3.062   4.888  19.500  0.00  0.00    +0.000 N 
ATOM      2  C   UNL     1       4.523   4.655  19.455  0.00  0.00    +0.000 C 
ATOM      3  C   UNL     1       5.163   5.021  18.085  0.00  0.00    +0.000 C 
ATOM      4  C   UNL     1       6.706   4.859  18.132  0.00  0.00    +0.000 C 
ATOM      5  C   UNL     1       7.370   5.125  16.772  0.00  0.00    +0.000 C 
ATOM      6  C   UNL     1       6.739   4.328  15.628  0.00  0.00    +0.000 C 
ATOM      7  C   UNL     1       5.215   4.371  15.621  0.00  0.00    +0.000 C 
ATOM      8  C   UNL     1       4.645   4.044  16.997  0.00  0.00    +0.000 C 
ATOM      9  C   UNL     1       4.826   6.498  17.801  0.00  0.00    +0.000 C 
ATOM     10  S   UNL     1       3.045   6.709  17.616  0.00  0.00    +0.000 S 
ATOM     11  C   UNL     1       2.634   6.191  19.237  0.00  0.00    +0.000 C 
ATOM     12  N   UNL     1       2.016   6.890  20.139  0.00  0.00    +0.000 NA
ENDROOT
BRANCH  12  13
ATOM     13  C   UNL     1       1.638   8.238  19.936  0.00  0.00    +0.000 A 
ATOM     14  C   UNL     1       1.755   8.794  18.661  0.00  0.00    +0.000 A 
ATOM     15  C   UNL     1       1.376  10.126  18.409  0.00  0.00    +0.000 A 
ATOM     16  C   UNL     1       0.887  10.940  19.439  0.00  0.00    +0.000 A 
ATOM     17  C   UNL     1       0.757  10.378  20.712  0.00  0.00    +0.000 A 
ATOM     18  C   UNL     1       1.068   9.037  20.933  0.00  0.00    +0.000 A 
BRANCH  16  19
ATOM     19  C   UNL     1       0.473  12.376  19.186  0.00  0.00    +0.000 C 
ATOM     20  C   UNL     1       1.565  13.135  18.424  0.00  0.00    +0.000 C 
ATOM     21  C   UNL     1      -0.863  12.450  18.431  0.00  0.00    +0.000 C 
ENDBRANCH  16  19
ENDBRANCH  12  13
BRANCH   1  22
ATOM     22  C   UNL     1       2.174   3.927  19.992  0.00  0.00    +0.000 C 
ATOM     23  S   UNL     1       2.140   3.324  21.566  0.00  0.00    +0.000 S 
BRANCH  22  25
ATOM     24  C   UNL     1       2.348   1.753  18.302  0.00  0.00    +0.000 C 
ATOM     25  S   UNL     1       1.244   3.113  18.713  0.00  0.00    +0.000 S 
ENDBRANCH  22  25
ENDBRANCH   1  22
TORSDOF 4
ENDMDL
MODEL 3
REMARK VINA RESULT:      -7.6      0.781      1.318
REMARK  Name = 
REMARK  7 active torsions:
REMARK  status: ('A' for Active; 'I' for Inactive)
REMARK    1  A    between atoms: C_1  and  S_2
REMARK    2  A    between atoms: S_2  and  C_3
REMARK    3  A    between atoms: C_3  and  N_5
REMARK    4  A    between atoms: N_16  and  C_17
REMARK    5  A    between atoms: C_20  and  C_21
REMARK    6  A    between atoms: C_21  and  C_22
REMARK    7  A    between atoms: C_21  and  C_23
REMARK                            x       y       z     vdW  Elec       q    Type
REMARK                         _______ _______ _______ _____ _____    ______ ____
ROOT
ATOM      1  N   UNL     1       3.367   4.378  19.109  0.00  0.00    +0.000 N 
ATOM      2  C   UNL     1       4.836   4.250  18.985  0.00  0.00    +0.000 C 
ATOM      3  C   UNL     1       5.398   4.850  17.664  0.00  0.00    +0.000 C 
ATOM      4  C   UNL     1       6.947   4.784  17.638  0.00  0.00    +0.000 C 
ATOM      5  C   UNL     1       7.539   5.286  16.312  0.00  0.00    +0.000 C 
ATOM      6  C   UNL     1       6.912   4.621  15.083  0.00  0.00    +0.000 C 
ATOM      7  C   UNL     1       5.389   4.566  15.131  0.00  0.00    +0.000 C 
ATOM      8  C   UNL     1       4.896   4.008  16.462  0.00  0.00    +0.000 C 
ATOM      9  C   UNL     1       4.961   6.328  17.609  0.00  0.00    +0.000 C 
ATOM     10  S   UNL     1       3.164   6.446  17.512  0.00  0.00    +0.000 S 
ATOM     11  C   UNL     1       2.851   5.675  19.052  0.00  0.00    +0.000 C 
ATOM     12  N   UNL     1       2.229   6.195  20.066  0.00  0.00    +0.000 NA
ENDROOT
BRANCH  12  13
ATOM     13  C   UNL     1       1.763   7.531  20.073  0.00  0.00    +0.000 A 
ATOM     14  C   UNL     1       1.255   8.069  21.257  0.00  0.00    +0.000 A 
ATOM     15  C   UNL     1       0.796   9.399  21.315  0.00  0.00    +0.000 A 
ATOM     16  C   UNL     1       0.817  10.215  20.176  0.00  0.00    +0.000 A 
ATOM     17  C   UNL     1       1.339   9.680  18.996  0.00  0.00    +0.000 A 
ATOM     18  C   UNL     1       1.857   8.385  18.970  0.00  0.00    +0.000 A 
BRANCH  16  19
ATOM     19  C   UNL     1       0.328  11.649  20.220  0.00  0.00    +0.000 C 
ATOM     20  C   UNL     1      -0.469  11.996  18.957  0.00  0.00    +0.000 C 
ATOM     21  C   UNL     1      -0.511  11.917  21.479  0.00  0.00    +0.000 C 
ENDBRANCH  16  19
ENDBRANCH  12  13
BRANCH   1  22
ATOM     22  C   UNL     1       2.558   3.300  19.483  0.00  0.00    +0.000 C 
ATOM     23  S   UNL     1       1.163   2.789  18.689  0.00  0.00    +0.000 S 
BRANCH  22  25
ATOM     24  C   UNL     1       1.301   2.644  21.849  0.00  0.00    +0.000 C 
ATOM     25  S   UNL     1       2.937   2.669  21.101  0.00  0.00    +0.000 S 
ENDBRANCH  22  25
ENDBRANCH   1  22
TORSDOF 4
ENDMDL
MODEL 4
REMARK VINA RESULT:      -7.6      0.399      1.257
REMARK  Name = 
REMARK  7 active torsions:
REMARK  status: ('A' for Active; 'I' for Inactive)
REMARK    1  A    between atoms: C_1  and  S_2
REMARK    2  A    between atoms: S_2  and  C_3
REMARK    3  A    between atoms: C_3  and  N_5
REMARK    4  A    between atoms: N_16  and  C_17
REMARK    5  A    between atoms: C_20  and  C_21
REMARK    6  A    between atoms: C_21  and  C_22
REMARK    7  A    between atoms: C_21  and  C_23
REMARK                            x       y       z     vdW  Elec       q    Type
REMARK                         _______ _______ _______ _____ _____    ______ ____
ROOT
ATOM      1  N   UNL     1       3.283   4.600  19.433  0.00  0.00    +0.000 N 
ATOM      2  C   UNL     1       4.751   4.463  19.303  0.00  0.00    +0.000 C 
ATOM      3  C   UNL     1       5.302   4.991  17.947  0.00  0.00    +0.000 C 
ATOM      4  C   UNL     1       6.851   4.921  17.910  0.00  0.00    +0.000 C 
ATOM      5  C   UNL     1       7.431   5.351  16.554  0.00  0.00    +0.000 C 
ATOM      6  C   UNL     1       6.792   4.625  15.368  0.00  0.00    +0.000 C 
ATOM      7  C   UNL     1       5.270   4.575  15.432  0.00  0.00    +0.000 C 
ATOM      8  C   UNL     1       4.788   4.089  16.795  0.00  0.00    +0.000 C 
ATOM      9  C   UNL     1       4.867   6.465  17.818  0.00  0.00    +0.000 C 
ATOM     10  S   UNL     1       3.069   6.582  17.731  0.00  0.00    +0.000 S 
ATOM     11  C   UNL     1       2.769   5.893  19.312  0.00  0.00    +0.000 C 
ATOM     12  N   UNL     1       2.157   6.467  20.303  0.00  0.00    +0.000 NA
ENDROOT
BRANCH  12  13
ATOM     13  C   UNL     1       1.693   7.802  20.245  0.00  0.00    +0.000 A 
ATOM     14  C   UNL     1       1.727   8.483  19.026  0.00  0.00    +0.000 A 
ATOM     15  C   UNL     1       1.261   9.807  18.918  0.00  0.00    +0.000 A 
ATOM     16  C   UNL     1       0.766  10.487  20.038  0.00  0.00    +0.000 A 
ATOM     17  C   UNL     1       0.719   9.800  21.254  0.00  0.00    +0.000 A 
ATOM     18  C   UNL     1       1.116   8.465  21.333  0.00  0.00    +0.000 A 
BRANCH  16  19
ATOM     19  C   UNL     1       0.259  11.912  19.940  0.00  0.00    +0.000 C 
ATOM     20  C   UNL     1      -1.046  12.085  20.726  0.00  0.00    +0.000 C 
ATOM     21  C   UNL     1       1.315  12.918  20.420  0.00  0.00    +0.000 C 
ENDBRANCH  16  19
ENDBRANCH  12  13
BRANCH   1  22
ATOM     22  C   UNL     1       2.477   3.545  19.870  0.00  0.00    +0.000 C 
ATOM     23  S   UNL     1       2.231   3.085  21.472  0.00  0.00    +0.000 S 
BRANCH  22  25
ATOM     24  C   UNL     1       3.338   1.329  18.470  0.00  0.00    +0.000 C 
ATOM     25  S   UNL     1       1.952   2.473  18.552  0.00  0.00    +0.000 S 
ENDBRANCH  22  25
ENDBRANCH   1  22
TORSDOF 4
ENDMDL
MODEL 5
REMARK VINA RESULT:      -7.5      0.799      1.624
REMARK  Name = 
REMARK  7 active torsions:
REMARK  status: ('A' for Active; 'I' for Inactive)
REMARK    1  A    between atoms: C_1  and  S_2
REMARK    2  A    between atoms: S_2  and  C_3
REMARK    3  A    between atoms: C_3  and  N_5
REMARK    4  A    between atoms: N_16  and  C_17
REMARK    5  A    between atoms: C_20  and  C_21
REMARK    6  A    between atoms: C_21  and  C_22
REMARK    7  A    between atoms: C_21  and  C_23
REMARK                            x       y       z     vdW  Elec       q    Type
REMARK                         _______ _______ _______ _____ _____    ______ ____
ROOT
ATOM      1  N   UNL     1       3.402   4.335  19.065  0.00  0.00    +0.000 N 
ATOM      2  C   UNL     1       4.869   4.205  18.923  0.00  0.00    +0.000 C 
ATOM      3  C   UNL     1       5.418   4.826  17.606  0.00  0.00    +0.000 C 
ATOM      4  C   UNL     1       6.967   4.756  17.562  0.00  0.00    +0.000 C 
ATOM      5  C   UNL     1       7.546   5.279  16.238  0.00  0.00    +0.000 C 
ATOM      6  C   UNL     1       6.904   4.638  15.006  0.00  0.00    +0.000 C 
ATOM      7  C   UNL     1       5.382   4.585  15.069  0.00  0.00    +0.000 C 
ATOM      8  C   UNL     1       4.901   4.006  16.395  0.00  0.00    +0.000 C 
ATOM      9  C   UNL     1       4.985   6.306  17.581  0.00  0.00    +0.000 C 
ATOM     10  S   UNL     1       3.188   6.430  17.505  0.00  0.00    +0.000 S 
ATOM     11  C   UNL     1       2.889   5.634  19.035  0.00  0.00    +0.000 C 
ATOM     12  N   UNL     1       2.279   6.138  20.064  0.00  0.00    +0.000 NA
ENDROOT
BRANCH  12  13
ATOM     13  C   UNL     1       1.817   7.475  20.100  0.00  0.00    +0.000 A 
ATOM     14  C   UNL     1       1.879   8.248  18.939  0.00  0.00    +0.000 A 
ATOM     15  C   UNL     1       1.416   9.577  18.924  0.00  0.00    +0.000 A 
ATOM     16  C   UNL     1       0.896  10.169  20.083  0.00  0.00    +0.000 A 
ATOM     17  C   UNL     1       0.821   9.390  21.239  0.00  0.00    +0.000 A 
ATOM     18  C   UNL     1       1.217   8.053  21.223  0.00  0.00    +0.000 A 
BRANCH  16  19
ATOM     19  C   UNL     1       0.391  11.599  20.084  0.00  0.00    +0.000 C 
ATOM     20  C   UNL     1       1.505  12.573  20.485  0.00  0.00    +0.000 C 
ATOM     21  C   UNL     1      -0.200  11.987  18.720  0.00  0.00    +0.000 C 
ENDBRANCH  16  19
ENDBRANCH  12  13
BRANCH   1  22
ATOM     22  C   UNL     1       2.594   3.253  19.428  0.00  0.00    +0.000 C 
ATOM     23  S   UNL     1       1.200   2.746  18.629  0.00  0.00    +0.000 S 
BRANCH  22  25
ATOM     24  C   UNL     1       1.353   2.676  21.824  0.00  0.00    +0.000 C 
ATOM     25  S   UNL     1       2.972   2.608  21.042  0.00  0.00    +0.000 S 
ENDBRANCH  22  25
ENDBRANCH   1  22
TORSDOF 4
ENDMDL
MODEL 6
REMARK VINA RESULT:      -7.3      1.145      1.335
REMARK  Name = 
REMARK  7 active torsions:
REMARK  status: ('A' for Active; 'I' for Inactive)
REMARK    1  A    between atoms: C_1  and  S_2
REMARK    2  A    between atoms: S_2  and  C_3
REMARK    3  A    between atoms: C_3  and  N_5
REMARK    4  A    between atoms: N_16  and  C_17
REMARK    5  A    between atoms: C_20  and  C_21
REMARK    6  A    between atoms: C_21  and  C_22
REMARK    7  A    between atoms: C_21  and  C_23
REMARK                            x       y       z     vdW  Elec       q    Type
REMARK                         _______ _______ _______ _____ _____    ______ ____
ROOT
ATOM      1  N   UNL     1       4.027   4.244  19.002  0.00  0.00    +0.000 N 
ATOM      2  C   UNL     1       5.464   4.316  18.656  0.00  0.00    +0.000 C 
ATOM      3  C   UNL     1       5.725   4.833  17.212  0.00  0.00    +0.000 C 
ATOM      4  C   UNL     1       7.246   4.988  16.944  0.00  0.00    +0.000 C 
ATOM      5  C   UNL     1       7.551   5.413  15.499  0.00  0.00    +0.000 C 
ATOM      6  C   UNL     1       6.868   4.528  14.454  0.00  0.00    +0.000 C 
ATOM      7  C   UNL     1       5.397   4.259  14.750  0.00  0.00    +0.000 C 
ATOM      8  C   UNL     1       5.197   3.794  16.189  0.00  0.00    +0.000 C 
ATOM      9  C   UNL     1       5.054   6.216  17.092  0.00  0.00    +0.000 C 
ATOM     10  S   UNL     1       3.267   6.062  17.274  0.00  0.00    +0.000 S 
ATOM     11  C   UNL     1       3.307   5.437  18.909  0.00  0.00    +0.000 C 
ATOM     12  N   UNL     1       2.763   5.976  19.957  0.00  0.00    +0.000 NA
ENDROOT
BRANCH  12  13
ATOM     13  C   UNL     1       2.095   7.223  19.916  0.00  0.00    +0.000 A 
ATOM     14  C   UNL     1       1.389   7.656  21.040  0.00  0.00    +0.000 A 
ATOM     15  C   UNL     1       0.724   8.896  21.049  0.00  0.00    +0.000 A 
ATOM     16  C   UNL     1       0.735   9.725  19.920  0.00  0.00    +0.000 A 
ATOM     17  C   UNL     1       1.453   9.297  18.800  0.00  0.00    +0.000 A 
ATOM     18  C   UNL     1       2.168   8.100  18.829  0.00  0.00    +0.000 A 
BRANCH  16  19
ATOM     19  C   UNL     1       0.025  11.064  19.913  0.00  0.00    +0.000 C 
ATOM     20  C   UNL     1      -0.993  11.139  18.768  0.00  0.00    +0.000 C 
ATOM     21  C   UNL     1      -0.657  11.345  21.261  0.00  0.00    +0.000 C 
ENDBRANCH  16  19
ENDBRANCH  12  13
BRANCH   1  22
ATOM     22  C   UNL     1       3.464   3.111  19.598  0.00  0.00    +0.000 C 
ATOM     23  S   UNL     1       4.216   2.110  20.725  0.00  0.00    +0.000 S 
BRANCH  22  25
ATOM     24  C   UNL     1       0.750   3.033  20.086  0.00  0.00    +0.000 C 
ATOM     25  S   UNL     1       1.951   2.590  18.822  0.00  0.00    +0.000 S 
ENDBRANCH  22  25
ENDBRANCH   1  22
TORSDOF 4
ENDMDL
MODEL 7
REMARK VINA RESULT:      -7.2      2.278      4.328
REMARK  Name = 
REMARK  7 active torsions:
REMARK  status: ('A' for Active; 'I' for Inactive)
REMARK    1  A    between atoms: C_1  and  S_2
REMARK    2  A    between atoms: S_2  and  C_3
REMARK    3  A    between atoms: C_3  and  N_5
REMARK    4  A    between atoms: N_16  and  C_17
REMARK    5  A    between atoms: C_20  and  C_21
REMARK    6  A    between atoms: C_21  and  C_22
REMARK    7  A    between atoms: C_21  and  C_23
REMARK                            x       y       z     vdW  Elec       q    Type
REMARK                         _______ _______ _______ _____ _____    ______ ____
ROOT
ATOM      1  N   UNL     1       3.521   6.151  17.845  0.00  0.00    +0.000 N 
ATOM      2  C   UNL     1       2.766   4.880  17.755  0.00  0.00    +0.000 C 
ATOM      3  C   UNL     1       2.116   4.453  19.102  0.00  0.00    +0.000 C 
ATOM      4  C   UNL     1       1.253   3.177  18.923  0.00  0.00    +0.000 C 
ATOM      5  C   UNL     1       0.663   2.670  20.249  0.00  0.00    +0.000 C 
ATOM      6  C   UNL     1       1.713   2.509  21.351  0.00  0.00    +0.000 C 
ATOM      7  C   UNL     1       2.654   3.701  21.478  0.00  0.00    +0.000 C 
ATOM      8  C   UNL     1       3.229   4.099  20.123  0.00  0.00    +0.000 C 
ATOM      9  C   UNL     1       1.205   5.611  19.559  0.00  0.00    +0.000 C 
ATOM     10  S   UNL     1       2.188   7.084  19.899  0.00  0.00    +0.000 S 
ATOM     11  C   UNL     1       2.801   7.270  18.270  0.00  0.00    +0.000 C 
ATOM     12  N   UNL     1       2.633   8.295  17.492  0.00  0.00    +0.000 NA
ENDROOT
BRANCH  12  13
ATOM     13  C   UNL     1       1.845   9.411  17.858  0.00  0.00    +0.000 A 
ATOM     14  C   UNL     1       0.457   9.276  17.917  0.00  0.00    +0.000 A 
ATOM     15  C   UNL     1      -0.366  10.355  18.292  0.00  0.00    +0.000 A 
ATOM     16  C   UNL     1       0.187  11.605  18.599  0.00  0.00    +0.000 A 
ATOM     17  C   UNL     1       1.578  11.735  18.554  0.00  0.00    +0.000 A 
ATOM     18  C   UNL     1       2.385  10.640  18.251  0.00  0.00    +0.000 A 
BRANCH  16  19
ATOM     19  C   UNL     1      -0.683  12.778  19.006  0.00  0.00    +0.000 C 
ATOM     20  C   UNL     1      -1.403  12.493  20.329  0.00  0.00    +0.000 C 
ATOM     21  C   UNL     1       0.135  14.075  19.106  0.00  0.00    +0.000 C 
ENDBRANCH  16  19
ENDBRANCH  12  13
BRANCH   1  22
ATOM     22  C   UNL     1       4.813   6.283  17.328  0.00  0.00    +0.000 C 
ATOM     23  S   UNL     1       5.211   6.511  15.706  0.00  0.00    +0.000 S 
BRANCH  22  25
ATOM     24  C   UNL     1       7.088   4.734  17.521  0.00  0.00    +0.000 C 
ATOM     25  S   UNL     1       6.083   5.861  18.499  0.00  0.00    +0.000 S 
ENDBRANCH  22  25
ENDBRANCH   1  22
TORSDOF 4
ENDMDL
MODEL 8
REMARK VINA RESULT:      -7.2      2.377      4.447
REMARK  Name = 
REMARK  7 active torsions:
REMARK  status: ('A' for Active; 'I' for Inactive)
REMARK    1  A    between atoms: C_1  and  S_2
REMARK    2  A    between atoms: S_2  and  C_3
REMARK    3  A    between atoms: C_3  and  N_5
REMARK    4  A    between atoms: N_16  and  C_17
REMARK    5  A    between atoms: C_20  and  C_21
REMARK    6  A    between atoms: C_21  and  C_22
REMARK    7  A    between atoms: C_21  and  C_23
REMARK                            x       y       z     vdW  Elec       q    Type
REMARK                         _______ _______ _______ _____ _____    ______ ____
ROOT
ATOM      1  N   UNL     1       3.477   6.163  17.899  0.00  0.00    +0.000 N 
ATOM      2  C   UNL     1       2.726   4.890  17.811  0.00  0.00    +0.000 C 
ATOM      3  C   UNL     1       2.078   4.463  19.159  0.00  0.00    +0.000 C 
ATOM      4  C   UNL     1       1.218   3.184  18.982  0.00  0.00    +0.000 C 
ATOM      5  C   UNL     1       0.631   2.677  20.308  0.00  0.00    +0.000 C 
ATOM      6  C   UNL     1       1.682   2.519  21.410  0.00  0.00    +0.000 C 
ATOM      7  C   UNL     1       2.620   3.714  21.534  0.00  0.00    +0.000 C 
ATOM      8  C   UNL     1       3.193   4.112  20.179  0.00  0.00    +0.000 C 
ATOM      9  C   UNL     1       1.164   5.619  19.616  0.00  0.00    +0.000 C 
ATOM     10  S   UNL     1       2.144   7.094  19.953  0.00  0.00    +0.000 S 
ATOM     11  C   UNL     1       2.755   7.280  18.324  0.00  0.00    +0.000 C 
ATOM     12  N   UNL     1       2.584   8.305  17.545  0.00  0.00    +0.000 NA
ENDROOT
BRANCH  12  13
ATOM     13  C   UNL     1       1.793   9.419  17.911  0.00  0.00    +0.000 A 
ATOM     14  C   UNL     1       2.415  10.646  18.153  0.00  0.00    +0.000 A 
ATOM     15  C   UNL     1       1.666  11.785  18.503  0.00  0.00    +0.000 A 
ATOM     16  C   UNL     1       0.273  11.715  18.639  0.00  0.00    +0.000 A 
ATOM     17  C   UNL     1      -0.349  10.490  18.383  0.00  0.00    +0.000 A 
ATOM     18  C   UNL     1       0.396   9.387  17.966  0.00  0.00    +0.000 A 
BRANCH  16  19
ATOM     19  C   UNL     1      -0.549  12.932  19.015  0.00  0.00    +0.000 C 
ATOM     20  C   UNL     1      -1.106  12.800  20.437  0.00  0.00    +0.000 C 
ATOM     21  C   UNL     1       0.267  14.226  18.872  0.00  0.00    +0.000 C 
ENDBRANCH  16  19
ENDBRANCH  12  13
BRANCH   1  22
ATOM     22  C   UNL     1       4.769   6.297  17.380  0.00  0.00    +0.000 C 
ATOM     23  S   UNL     1       5.163   6.538  15.759  0.00  0.00    +0.000 S 
BRANCH  22  25
ATOM     24  C   UNL     1       7.447   6.755  17.861  0.00  0.00    +0.000 C 
ATOM     25  S   UNL     1       6.040   5.865  18.545  0.00  0.00    +0.000 S 
ENDBRANCH  22  25
ENDBRANCH   1  22
TORSDOF 4
ENDMDL
MODEL 9
REMARK VINA RESULT:      -7.2      1.064      1.567
REMARK  Name = 
REMARK  7 active torsions:
REMARK  status: ('A' for Active; 'I' for Inactive)
REMARK    1  A    between atoms: C_1  and  S_2
REMARK    2  A    between atoms: S_2  and  C_3
REMARK    3  A    between atoms: C_3  and  N_5
REMARK    4  A    between atoms: N_16  and  C_17
REMARK    5  A    between atoms: C_20  and  C_21
REMARK    6  A    between atoms: C_21  and  C_22
REMARK    7  A    between atoms: C_21  and  C_23
REMARK                            x       y       z     vdW  Elec       q    Type
REMARK                         _______ _______ _______ _____ _____    ______ ____
ROOT
ATOM      1  N   UNL     1       4.010   4.416  19.282  0.00  0.00    +0.000 N 
ATOM      2  C   UNL     1       5.435   4.500  18.891  0.00  0.00    +0.000 C 
ATOM      3  C   UNL     1       5.643   4.921  17.408  0.00  0.00    +0.000 C 
ATOM      4  C   UNL     1       7.151   5.096  17.086  0.00  0.00    +0.000 C 
ATOM      5  C   UNL     1       7.406   5.425  15.607  0.00  0.00    +0.000 C 
ATOM      6  C   UNL     1       6.719   4.451  14.646  0.00  0.00    +0.000 C 
ATOM      7  C   UNL     1       5.265   4.166  15.002  0.00  0.00    +0.000 C 
ATOM      8  C   UNL     1       5.116   3.799  16.475  0.00  0.00    +0.000 C 
ATOM      9  C   UNL     1       4.931   6.274  17.210  0.00  0.00    +0.000 C 
ATOM     10  S   UNL     1       3.154   6.087  17.454  0.00  0.00    +0.000 S 
ATOM     11  C   UNL     1       3.255   5.581  19.126  0.00  0.00    +0.000 C 
ATOM     12  N   UNL     1       2.724   6.179  20.149  0.00  0.00    +0.000 NA
ENDROOT
BRANCH  12  13
ATOM     13  C   UNL     1       2.021   7.401  20.040  0.00  0.00    +0.000 A 
ATOM     14  C   UNL     1       2.104   8.132  18.854  0.00  0.00    +0.000 A 
ATOM     15  C   UNL     1       1.408   9.345  18.695  0.00  0.00    +0.000 A 
ATOM     16  C   UNL     1       0.626   9.865  19.735  0.00  0.00    +0.000 A 
ATOM     17  C   UNL     1       0.533   9.126  20.916  0.00  0.00    +0.000 A 
ATOM     18  C   UNL     1       1.168   7.891  21.035  0.00  0.00    +0.000 A 
BRANCH  16  19
ATOM     19  C   UNL     1      -0.130  11.170  19.581  0.00  0.00    +0.000 C 
ATOM     20  C   UNL     1       0.801  12.292  19.109  0.00  0.00    +0.000 C 
ATOM     21  C   UNL     1      -1.322  11.018  18.622  0.00  0.00    +0.000 C 
ENDBRANCH  16  19
ENDBRANCH  12  13
BRANCH   1  22
ATOM     22  C   UNL     1       3.495   3.314  19.972  0.00  0.00    +0.000 C 
ATOM     23  S   UNL     1       4.388   2.019  20.575  0.00  0.00    +0.000 S 
BRANCH  22  25
ATOM     24  C   UNL     1       1.335   2.727  21.585  0.00  0.00    +0.000 C 
ATOM     25  S   UNL     1       1.721   3.205  19.894  0.00  0.00    +0.000 S 
ENDBRANCH  22  25
ENDBRANCH   1  22
TORSDOF 4
ENDMDL
