MODEL 1
REMARK VINA RESULT:      -8.5      0.000      0.000
REMARK  Name = 
REMARK  9 active torsions:
REMARK  status: ('A' for Active; 'I' for Inactive)
REMARK    1  A    between atoms: C_1  and  C_2
REMARK    2  A    between atoms: C_2  and  C_3
REMARK    3  A    between atoms: C_2  and  C_4
REMARK    4  A    between atoms: C_2  and  O_5
REMARK    5  A    between atoms: O_5  and  C_6
REMARK    6  A    between atoms: C_12  and  C_14
REMARK    7  A    between atoms: C_14  and  S_15
REMARK    8  A    between atoms: S_15  and  C_16
REMARK    9  A    between atoms: N_26  and  C_27
REMARK                            x       y       z     vdW  Elec       q    Type
REMARK                         _______ _______ _______ _____ _____    ______ ____
ROOT
ATOM      1  S   UNL     1       2.592   7.137  19.187  0.00  0.00    +0.000 S 
ENDROOT
BRANCH   1   2
ATOM      2  C   UNL     1       3.474   6.009  18.155  0.00  0.00    +0.000 A 
ATOM      3  N   UNL     1       4.210   6.543  17.231  0.00  0.00    +0.000 NA
ATOM      4  C   UNL     1       4.928   5.702  16.381  0.00  0.00    +0.000 A 
ATOM      5  C   UNL     1       5.643   6.265  15.321  0.00  0.00    +0.000 A 
ATOM      6  C   UNL     1       6.301   5.451  14.395  0.00  0.00    +0.000 A 
ATOM      7  C   UNL     1       6.256   4.064  14.528  0.00  0.00    +0.000 A 
ATOM      8  C   UNL     1       5.578   3.495  15.604  0.00  0.00    +0.000 A 
ATOM      9  C   UNL     1       4.925   4.320  16.529  0.00  0.00    +0.000 A 
ATOM     10  C   UNL     1       4.188   3.749  17.668  0.00  0.00    +0.000 A 
ATOM     11  O   UNL     1       4.281   2.536  17.857  0.00  0.00    +0.000 OA
ATOM     12  N   UNL     1       3.417   4.641  18.421  0.00  0.00    +0.000 N 
BRANCH  12  13
ATOM     13  C   UNL     1       2.581   4.071  19.431  0.00  0.00    +0.000 A 
ATOM     14  C   UNL     1       3.058   3.928  20.742  0.00  0.00    +0.000 A 
ATOM     15  C   UNL     1       2.274   3.313  21.720  0.00  0.00    +0.000 A 
ATOM     16  C   UNL     1       1.013   2.820  21.390  0.00  0.00    +0.000 A 
ATOM     17  C   UNL     1       0.532   2.947  20.088  0.00  0.00    +0.000 A 
ATOM     18  C   UNL     1       1.311   3.572  19.111  0.00  0.00    +0.000 A 
ENDBRANCH  12  13
ENDBRANCH   1   2
BRANCH   1  19
ATOM     19  C   UNL     1       1.713   8.085  17.906  0.00  0.00    +0.000 C 
BRANCH  19  26
ATOM     20  C   UNL     1      -1.682  12.959  20.527  0.00  0.00    +0.000 C 
ATOM     21  O   UNL     1      -1.552  14.172  20.390  0.00  0.00    +0.000 OA
ATOM     22  N   UNL     1      -0.950  12.059  19.788  0.00  0.00    +0.000 N 
ATOM     23  C   UNL     1       0.029  12.561  18.822  0.00  0.00    +0.000 C 
ATOM     24  C   UNL     1       1.342  11.783  18.930  0.00  0.00    +0.000 C 
ATOM     25  N   UNL     1       1.107  10.338  18.805  0.00  0.00    +0.000 N 
ATOM     26  C   UNL     1       1.966   9.590  18.003  0.00  0.00    +0.000 C 
ATOM     27  O   UNL     1       2.855  10.133  17.341  0.00  0.00    +0.000 OA
ATOM     28  C   UNL     1       0.102   9.807  19.746  0.00  0.00    +0.000 C 
ATOM     29  C   UNL     1      -1.206  10.620  19.727  0.00  0.00    +0.000 C 
BRANCH  20  30
ATOM     30  O   UNL     1      -2.521  12.379  21.429  0.00  0.00    +0.000 OA
BRANCH  30  32
ATOM     31  C   UNL     1      -3.427  12.466  23.714  0.00  0.00    +0.000 C 
ATOM     32  C   UNL     1      -2.166  12.419  22.839  0.00  0.00    +0.000 C 
ATOM     33  C   UNL     1      -1.192  13.569  23.150  0.00  0.00    +0.000 C 
ATOM     34  C   UNL     1      -1.433  11.101  23.144  0.00  0.00    +0.000 C 
ENDBRANCH  30  32
ENDBRANCH  20  30
ENDBRANCH  19  26
ENDBRANCH   1  19
TORSDOF 6
ENDMDL
MODEL 2
REMARK VINA RESULT:      -8.1      0.758      1.182
REMARK  Name = 
REMARK  9 active torsions:
REMARK  status: ('A' for Active; 'I' for Inactive)
REMARK    1  A    between atoms: C_1  and  C_2
REMARK    2  A    between atoms: C_2  and  C_3
REMARK    3  A    between atoms: C_2  and  C_4
REMARK    4  A    between atoms: C_2  and  O_5
REMARK    5  A    between atoms: O_5  and  C_6
REMARK    6  A    between atoms: C_12  and  C_14
REMARK    7  A    between atoms: C_14  and  S_15
REMARK    8  A    between atoms: S_15  and  C_16
REMARK    9  A    between atoms: N_26  and  C_27
REMARK                            x       y       z     vdW  Elec       q    Type
REMARK                         _______ _______ _______ _____ _____    ______ ____
ROOT
ATOM      1  S   UNL     1       3.037   6.813  19.479  0.00  0.00    +0.000 S 
ENDROOT
BRANCH   1   2
ATOM      2  C   UNL     1       3.756   5.722  18.293  0.00  0.00    +0.000 A 
ATOM      3  N   UNL     1       4.485   6.282  17.378  0.00  0.00    +0.000 NA
ATOM      4  C   UNL     1       5.077   5.472  16.409  0.00  0.00    +0.000 A 
ATOM      5  C   UNL     1       5.780   6.075  15.363  0.00  0.00    +0.000 A 
ATOM      6  C   UNL     1       6.312   5.304  14.325  0.00  0.00    +0.000 A 
ATOM      7  C   UNL     1       6.150   3.920  14.331  0.00  0.00    +0.000 A 
ATOM      8  C   UNL     1       5.486   3.305  15.390  0.00  0.00    +0.000 A 
ATOM      9  C   UNL     1       4.960   4.087  16.427  0.00  0.00    +0.000 A 
ATOM     10  C   UNL     1       4.239   3.470  17.552  0.00  0.00    +0.000 A 
ATOM     11  O   UNL     1       4.234   2.241  17.621  0.00  0.00    +0.000 OA
ATOM     12  N   UNL     1       3.593   4.344  18.433  0.00  0.00    +0.000 N 
BRANCH  12  13
ATOM     13  C   UNL     1       2.767   3.749  19.436  0.00  0.00    +0.000 A 
ATOM     14  C   UNL     1       1.375   3.700  19.265  0.00  0.00    +0.000 A 
ATOM     15  C   UNL     1       0.555   3.180  20.268  0.00  0.00    +0.000 A 
ATOM     16  C   UNL     1       1.117   2.722  21.458  0.00  0.00    +0.000 A 
ATOM     17  C   UNL     1       2.498   2.777  21.644  0.00  0.00    +0.000 A 
ATOM     18  C   UNL     1       3.321   3.286  20.637  0.00  0.00    +0.000 A 
ENDBRANCH  12  13
ENDBRANCH   1   2
BRANCH   1  19
ATOM     19  C   UNL     1       1.689   7.502  18.468  0.00  0.00    +0.000 C 
BRANCH  19  26
ATOM     20  C   UNL     1      -0.832  13.007  20.811  0.00  0.00    +0.000 C 
ATOM     21  O   UNL     1      -0.798  14.146  20.354  0.00  0.00    +0.000 OA
ATOM     22  N   UNL     1      -0.351  11.925  20.111  0.00  0.00    +0.000 N 
ATOM     23  C   UNL     1       0.239  12.140  18.789  0.00  0.00    +0.000 C 
ATOM     24  C   UNL     1       1.542  11.351  18.644  0.00  0.00    +0.000 C 
ATOM     25  N   UNL     1       1.330   9.929  18.952  0.00  0.00    +0.000 N 
ATOM     26  C   UNL     1       1.906   8.974  18.115  0.00  0.00    +0.000 C 
ATOM     27  O   UNL     1       2.509   9.304  17.091  0.00  0.00    +0.000 OA
ATOM     28  C   UNL     1       0.709   9.683  20.266  0.00  0.00    +0.000 C 
ATOM     29  C   UNL     1      -0.561  10.527  20.483  0.00  0.00    +0.000 C 
BRANCH  20  30
ATOM     30  O   UNL     1      -1.308  12.696  22.048  0.00  0.00    +0.000 OA
BRANCH  30  32
ATOM     31  C   UNL     1      -3.615  12.799  21.201  0.00  0.00    +0.000 C 
ATOM     32  C   UNL     1      -2.675  13.065  22.385  0.00  0.00    +0.000 C 
ATOM     33  C   UNL     1      -2.766  14.515  22.892  0.00  0.00    +0.000 C 
ATOM     34  C   UNL     1      -3.105  12.146  23.542  0.00  0.00    +0.000 C 
ENDBRANCH  30  32
ENDBRANCH  20  30
ENDBRANCH  19  26
ENDBRANCH   1  19
TORSDOF 6
ENDMDL
MODEL 3
REMARK VINA RESULT:      -8.1      0.912      4.187
REMARK  Name = 
REMARK  9 active torsions:
REMARK  status: ('A' for Active; 'I' for Inactive)
REMARK    1  A    between atoms: C_1  and  C_2
REMARK    2  A    between atoms: C_2  and  C_3
REMARK    3  A    between atoms: C_2  and  C_4
REMARK    4  A    between atoms: C_2  and  O_5
REMARK    5  A    between atoms: O_5  and  C_6
REMARK    6  A    between atoms: C_12  and  C_14
REMARK    7  A    between atoms: C_14  and  S_15
REMARK    8  A    between atoms: S_15  and  C_16
REMARK    9  A    between atoms: N_26  and  C_27
REMARK                            x       y       z     vdW  Elec       q    Type
REMARK                         _______ _______ _______ _____ _____    ______ ____
ROOT
ATOM      1  S   UNL     1       3.650   7.487  17.482  0.00  0.00    +0.000 S 
ENDROOT
BRANCH   1   2
ATOM      2  C   UNL     1       3.398   5.888  18.185  0.00  0.00    +0.000 A 
ATOM      3  N   UNL     1       2.508   5.817  19.126  0.00  0.00    +0.000 NA
ATOM      4  C   UNL     1       2.268   4.580  19.724  0.00  0.00    +0.000 A 
ATOM      5  C   UNL     1       1.384   4.514  20.804  0.00  0.00    +0.000 A 
ATOM      6  C   UNL     1       1.184   3.311  21.487  0.00  0.00    +0.000 A 
ATOM      7  C   UNL     1       1.863   2.161  21.088  0.00  0.00    +0.000 A 
ATOM      8  C   UNL     1       2.715   2.208  19.987  0.00  0.00    +0.000 A 
ATOM      9  C   UNL     1       2.905   3.418  19.307  0.00  0.00    +0.000 A 
ATOM     10  C   UNL     1       3.811   3.504  18.150  0.00  0.00    +0.000 A 
ATOM     11  O   UNL     1       4.285   2.454  17.717  0.00  0.00    +0.000 OA
ATOM     12  N   UNL     1       4.076   4.788  17.661  0.00  0.00    +0.000 N 
BRANCH  12  13
ATOM     13  C   UNL     1       5.070   4.892  16.639  0.00  0.00    +0.000 A 
ATOM     14  C   UNL     1       4.748   4.587  15.308  0.00  0.00    +0.000 A 
ATOM     15  C   UNL     1       5.727   4.623  14.314  0.00  0.00    +0.000 A 
ATOM     16  C   UNL     1       7.041   4.945  14.645  0.00  0.00    +0.000 A 
ATOM     17  C   UNL     1       7.376   5.240  15.966  0.00  0.00    +0.000 A 
ATOM     18  C   UNL     1       6.395   5.216  16.960  0.00  0.00    +0.000 A 
ENDBRANCH  12  13
ENDBRANCH   1   2
BRANCH   1  19
ATOM     19  C   UNL     1       2.076   8.270  17.953  0.00  0.00    +0.000 C 
BRANCH  19  26
ATOM     20  C   UNL     1      -1.784  12.846  20.464  0.00  0.00    +0.000 C 
ATOM     21  O   UNL     1      -1.800  14.057  20.267  0.00  0.00    +0.000 OA
ATOM     22  N   UNL     1      -0.974  12.000  19.742  0.00  0.00    +0.000 N 
ATOM     23  C   UNL     1      -0.090  12.563  18.721  0.00  0.00    +0.000 C 
ATOM     24  C   UNL     1       1.308  11.947  18.818  0.00  0.00    +0.000 C 
ATOM     25  N   UNL     1       1.238  10.480  18.769  0.00  0.00    +0.000 N 
ATOM     26  C   UNL     1       2.155   9.797  17.971  0.00  0.00    +0.000 C 
ATOM     27  O   UNL     1       2.954  10.404  17.254  0.00  0.00    +0.000 OA
ATOM     28  C   UNL     1       0.331   9.885  19.767  0.00  0.00    +0.000 C 
ATOM     29  C   UNL     1      -1.063  10.541  19.758  0.00  0.00    +0.000 C 
BRANCH  20  30
ATOM     30  O   UNL     1      -2.523  12.219  21.422  0.00  0.00    +0.000 OA
BRANCH  30  32
ATOM     31  C   UNL     1      -1.209  13.503  23.058  0.00  0.00    +0.000 C 
ATOM     32  C   UNL     1      -2.051  12.245  22.798  0.00  0.00    +0.000 C 
ATOM     33  C   UNL     1      -1.305  10.952  23.169  0.00  0.00    +0.000 C 
ATOM     34  C   UNL     1      -3.303  12.326  23.689  0.00  0.00    +0.000 C 
ENDBRANCH  30  32
ENDBRANCH  20  30
ENDBRANCH  19  26
ENDBRANCH   1  19
TORSDOF 6
ENDMDL
MODEL 4
REMARK VINA RESULT:      -8.0      2.405      9.853
REMARK  Name = 
REMARK  9 active torsions:
REMARK  status: ('A' for Active; 'I' for Inactive)
REMARK    1  A    between atoms: C_1  and  C_2
REMARK    2  A    between atoms: C_2  and  C_3
REMARK    3  A    between atoms: C_2  and  C_4
REMARK    4  A    between atoms: C_2  and  O_5
REMARK    5  A    between atoms: O_5  and  C_6
REMARK    6  A    between atoms: C_12  and  C_14
REMARK    7  A    between atoms: C_14  and  S_15
REMARK    8  A    between atoms: S_15  and  C_16
REMARK    9  A    between atoms: N_26  and  C_27
REMARK                            x       y       z     vdW  Elec       q    Type
REMARK                         _______ _______ _______ _____ _____    ______ ____
ROOT
ATOM      1  S   UNL     1       0.122  10.800  21.047  0.00  0.00    +0.000 S 
ENDROOT
BRANCH   1   2
ATOM      2  C   UNL     1      -1.213  11.087  19.929  0.00  0.00    +0.000 A 
ATOM      3  N   UNL     1      -1.210  10.371  18.848  0.00  0.00    +0.000 NA
ATOM      4  C   UNL     1      -2.238  10.556  17.923  0.00  0.00    +0.000 A 
ATOM      5  C   UNL     1      -2.187   9.862  16.711  0.00  0.00    +0.000 A 
ATOM      6  C   UNL     1      -3.149  10.086  15.722  0.00  0.00    +0.000 A 
ATOM      7  C   UNL     1      -4.175  11.004  15.942  0.00  0.00    +0.000 A 
ATOM      8  C   UNL     1      -4.257  11.671  17.162  0.00  0.00    +0.000 A 
ATOM      9  C   UNL     1      -3.289  11.436  18.148  0.00  0.00    +0.000 A 
ATOM     10  C   UNL     1      -3.338  12.137  19.442  0.00  0.00    +0.000 A 
ATOM     11  O   UNL     1      -4.329  12.828  19.679  0.00  0.00    +0.000 OA
ATOM     12  N   UNL     1      -2.229  11.976  20.280  0.00  0.00    +0.000 N 
BRANCH  12  13
ATOM     13  C   UNL     1      -2.201  12.772  21.466  0.00  0.00    +0.000 A 
ATOM     14  C   UNL     1      -1.496  13.984  21.486  0.00  0.00    +0.000 A 
ATOM     15  C   UNL     1      -1.409  14.736  22.658  0.00  0.00    +0.000 A 
ATOM     16  C   UNL     1      -2.010  14.274  23.827  0.00  0.00    +0.000 A 
ATOM     17  C   UNL     1      -2.705  13.065  23.823  0.00  0.00    +0.000 A 
ATOM     18  C   UNL     1      -2.803  12.317  22.647  0.00  0.00    +0.000 A 
ENDBRANCH  12  13
ENDBRANCH   1   2
BRANCH   1  19
ATOM     19  C   UNL     1       1.129   9.681  20.026  0.00  0.00    +0.000 C 
BRANCH  19  26
ATOM     20  C   UNL     1       3.249   3.949  17.835  0.00  0.00    +0.000 C 
ATOM     21  O   UNL     1       3.266   2.853  18.387  0.00  0.00    +0.000 OA
ATOM     22  N   UNL     1       2.639   5.043  18.404  0.00  0.00    +0.000 N 
ATOM     23  C   UNL     1       2.008   4.902  19.717  0.00  0.00    +0.000 C 
ATOM     24  C   UNL     1       2.373   6.081  20.621  0.00  0.00    +0.000 C 
ATOM     25  N   UNL     1       2.055   7.359  19.969  0.00  0.00    +0.000 N 
ATOM     26  C   UNL     1       1.431   8.353  20.721  0.00  0.00    +0.000 C 
ATOM     27  O   UNL     1       1.073   8.144  21.883  0.00  0.00    +0.000 OA
ATOM     28  C   UNL     1       2.652   7.518  18.630  0.00  0.00    +0.000 C 
ATOM     29  C   UNL     1       2.378   6.307  17.718  0.00  0.00    +0.000 C 
BRANCH  20  30
ATOM     30  O   UNL     1       3.847   4.210  16.640  0.00  0.00    +0.000 OA
BRANCH  30  32
ATOM     31  C   UNL     1       5.857   4.494  18.029  0.00  0.00    +0.000 C 
ATOM     32  C   UNL     1       5.235   4.646  16.634  0.00  0.00    +0.000 C 
ATOM     33  C   UNL     1       5.383   6.073  16.077  0.00  0.00    +0.000 C 
ATOM     34  C   UNL     1       5.987   3.701  15.680  0.00  0.00    +0.000 C 
ENDBRANCH  30  32
ENDBRANCH  20  30
ENDBRANCH  19  26
ENDBRANCH   1  19
TORSDOF 6
ENDMDL
MODEL 5
REMARK VINA RESULT:      -8.0      2.460      9.883
REMARK  Name = 
REMARK  9 active torsions:
REMARK  status: ('A' for Active; 'I' for Inactive)
REMARK    1  A    between atoms: C_1  and  C_2
REMARK    2  A    between atoms: C_2  and  C_3
REMARK    3  A    between atoms: C_2  and  C_4
REMARK    4  A    between atoms: C_2  and  O_5
REMARK    5  A    between atoms: O_5  and  C_6
REMARK    6  A    between atoms: C_12  and  C_14
REMARK    7  A    between atoms: C_14  and  S_15
REMARK    8  A    between atoms: S_15  and  C_16
REMARK    9  A    between atoms: N_26  and  C_27
REMARK                            x       y       z     vdW  Elec       q    Type
REMARK                         _______ _______ _______ _____ _____    ______ ____
ROOT
ATOM      1  S   UNL     1       0.029  10.957  21.120  0.00  0.00    +0.000 S 
ENDROOT
BRANCH   1   2
ATOM      2  C   UNL     1      -1.293  11.198  19.976  0.00  0.00    +0.000 A 
ATOM      3  N   UNL     1      -1.222  10.514  18.876  0.00  0.00    +0.000 NA
ATOM      4  C   UNL     1      -2.237  10.666  17.931  0.00  0.00    +0.000 A 
ATOM      5  C   UNL     1      -2.117  10.011  16.703  0.00  0.00    +0.000 A 
ATOM      6  C   UNL     1      -3.066  10.207  15.695  0.00  0.00    +0.000 A 
ATOM      7  C   UNL     1      -4.149  11.056  15.914  0.00  0.00    +0.000 A 
ATOM      8  C   UNL     1      -4.299  11.684  17.149  0.00  0.00    +0.000 A 
ATOM      9  C   UNL     1      -3.343  11.476  18.153  0.00  0.00    +0.000 A 
ATOM     10  C   UNL     1      -3.464  12.137  19.463  0.00  0.00    +0.000 A 
ATOM     11  O   UNL     1      -4.499  12.762  19.693  0.00  0.00    +0.000 OA
ATOM     12  N   UNL     1      -2.368  12.016  20.324  0.00  0.00    +0.000 N 
BRANCH  12  13
ATOM     13  C   UNL     1      -2.415  12.779  21.532  0.00  0.00    +0.000 A 
ATOM     14  C   UNL     1      -3.041  12.254  22.673  0.00  0.00    +0.000 A 
ATOM     15  C   UNL     1      -3.149  13.016  23.837  0.00  0.00    +0.000 A 
ATOM     16  C   UNL     1      -2.650  14.317  23.865  0.00  0.00    +0.000 A 
ATOM     17  C   UNL     1      -2.036  14.853  22.734  0.00  0.00    +0.000 A 
ATOM     18  C   UNL     1      -1.916  14.087  21.572  0.00  0.00    +0.000 A 
ENDBRANCH  12  13
ENDBRANCH   1   2
BRANCH   1  19
ATOM     19  C   UNL     1       1.075   9.842  20.133  0.00  0.00    +0.000 C 
BRANCH  19  26
ATOM     20  C   UNL     1       3.115   4.091  17.917  0.00  0.00    +0.000 C 
ATOM     21  O   UNL     1       3.081   2.985  18.449  0.00  0.00    +0.000 OA
ATOM     22  N   UNL     1       2.515   5.192  18.483  0.00  0.00    +0.000 N 
ATOM     23  C   UNL     1       1.832   5.046  19.770  0.00  0.00    +0.000 C 
ATOM     24  C   UNL     1       2.195   6.199  20.708  0.00  0.00    +0.000 C 
ATOM     25  N   UNL     1       1.937   7.496  20.068  0.00  0.00    +0.000 N 
ATOM     26  C   UNL     1       1.313   8.494  20.814  0.00  0.00    +0.000 C 
ATOM     27  O   UNL     1       0.907   8.275  21.958  0.00  0.00    +0.000 OA
ATOM     28  C   UNL     1       2.589   7.661  18.755  0.00  0.00    +0.000 C 
ATOM     29  C   UNL     1       2.315   6.475  17.811  0.00  0.00    +0.000 C 
BRANCH  20  30
ATOM     30  O   UNL     1       3.765   4.356  16.750  0.00  0.00    +0.000 OA
BRANCH  30  32
ATOM     31  C   UNL     1       5.955   3.644  15.886  0.00  0.00    +0.000 C 
ATOM     32  C   UNL     1       5.194   4.623  16.791  0.00  0.00    +0.000 C 
ATOM     33  C   UNL     1       5.732   4.629  18.233  0.00  0.00    +0.000 C 
ATOM     34  C   UNL     1       5.392   6.039  16.221  0.00  0.00    +0.000 C 
ENDBRANCH  30  32
ENDBRANCH  20  30
ENDBRANCH  19  26
ENDBRANCH   1  19
TORSDOF 6
ENDMDL
MODEL 6
REMARK VINA RESULT:      -7.8      2.276      9.774
REMARK  Name = 
REMARK  9 active torsions:
REMARK  status: ('A' for Active; 'I' for Inactive)
REMARK    1  A    between atoms: C_1  and  C_2
REMARK    2  A    between atoms: C_2  and  C_3
REMARK    3  A    between atoms: C_2  and  C_4
REMARK    4  A    between atoms: C_2  and  O_5
REMARK    5  A    between atoms: O_5  and  C_6
REMARK    6  A    between atoms: C_12  and  C_14
REMARK    7  A    between atoms: C_14  and  S_15
REMARK    8  A    between atoms: S_15  and  C_16
REMARK    9  A    between atoms: N_26  and  C_27
REMARK                            x       y       z     vdW  Elec       q    Type
REMARK                         _______ _______ _______ _____ _____    ______ ____
ROOT
ATOM      1  S   UNL     1       0.512  11.047  20.698  0.00  0.00    +0.000 S 
ENDROOT
BRANCH   1   2
ATOM      2  C   UNL     1      -0.974  11.271  19.773  0.00  0.00    +0.000 A 
ATOM      3  N   UNL     1      -1.101  10.527  18.718  0.00  0.00    +0.000 NA
ATOM      4  C   UNL     1      -2.253  10.662  17.943  0.00  0.00    +0.000 A 
ATOM      5  C   UNL     1      -2.352   9.939  16.752  0.00  0.00    +0.000 A 
ATOM      6  C   UNL     1      -3.449  10.113  15.903  0.00  0.00    +0.000 A 
ATOM      7  C   UNL     1      -4.461  11.008  16.245  0.00  0.00    +0.000 A 
ATOM      8  C   UNL     1      -4.390  11.705  17.450  0.00  0.00    +0.000 A 
ATOM      9  C   UNL     1      -3.288  11.520  18.295  0.00  0.00    +0.000 A 
ATOM     10  C   UNL     1      -3.176  12.252  19.567  0.00  0.00    +0.000 A 
ATOM     11  O   UNL     1      -4.143  12.923  19.926  0.00  0.00    +0.000 OA
ATOM     12  N   UNL     1      -1.956  12.141  20.244  0.00  0.00    +0.000 N 
BRANCH  12  13
ATOM     13  C   UNL     1      -1.786  12.968  21.397  0.00  0.00    +0.000 A 
ATOM     14  C   UNL     1      -1.127  14.201  21.290  0.00  0.00    +0.000 A 
ATOM     15  C   UNL     1      -0.898  14.985  22.421  0.00  0.00    +0.000 A 
ATOM     16  C   UNL     1      -1.310  14.535  23.674  0.00  0.00    +0.000 A 
ATOM     17  C   UNL     1      -1.956  13.305  23.795  0.00  0.00    +0.000 A 
ATOM     18  C   UNL     1      -2.196  12.525  22.662  0.00  0.00    +0.000 A 
ENDBRANCH  12  13
ENDBRANCH   1   2
BRANCH   1  19
ATOM     19  C   UNL     1       0.825   9.291  20.338  0.00  0.00    +0.000 C 
BRANCH  19  26
ATOM     20  C   UNL     1       4.699   4.443  18.431  0.00  0.00    +0.000 C 
ATOM     21  O   UNL     1       5.544   4.414  17.541  0.00  0.00    +0.000 OA
ATOM     22  N   UNL     1       4.055   5.605  18.787  0.00  0.00    +0.000 N 
ATOM     23  C   UNL     1       4.370   6.841  18.070  0.00  0.00    +0.000 C 
ATOM     24  C   UNL     1       3.091   7.602  17.716  0.00  0.00    +0.000 C 
ATOM     25  N   UNL     1       2.268   7.829  18.912  0.00  0.00    +0.000 N 
ATOM     26  C   UNL     1       1.694   9.086  19.097  0.00  0.00    +0.000 C 
ATOM     27  O   UNL     1       1.936  10.017  18.324  0.00  0.00    +0.000 OA
ATOM     28  C   UNL     1       1.958   6.604  19.672  0.00  0.00    +0.000 C 
ATOM     29  C   UNL     1       3.215   5.767  19.974  0.00  0.00    +0.000 C 
BRANCH  20  30
ATOM     30  O   UNL     1       4.288   3.348  19.127  0.00  0.00    +0.000 OA
BRANCH  30  32
ATOM     31  C   UNL     1       3.831   1.102  18.233  0.00  0.00    +0.000 C 
ATOM     32  C   UNL     1       3.264   2.494  18.546  0.00  0.00    +0.000 C 
ATOM     33  C   UNL     1       2.605   3.148  17.319  0.00  0.00    +0.000 C 
ATOM     34  C   UNL     1       2.173   2.325  19.618  0.00  0.00    +0.000 C 
ENDBRANCH  30  32
ENDBRANCH  20  30
ENDBRANCH  19  26
ENDBRANCH   1  19
TORSDOF 6
ENDMDL
MODEL 7
REMARK VINA RESULT:      -7.8      0.909      4.117
REMARK  Name = 
REMARK  9 active torsions:
REMARK  status: ('A' for Active; 'I' for Inactive)
REMARK    1  A    between atoms: C_1  and  C_2
REMARK    2  A    between atoms: C_2  and  C_3
REMARK    3  A    between atoms: C_2  and  C_4
REMARK    4  A    between atoms: C_2  and  O_5
REMARK    5  A    between atoms: O_5  and  C_6
REMARK    6  A    between atoms: C_12  and  C_14
REMARK    7  A    between atoms: C_14  and  S_15
REMARK    8  A    between atoms: S_15  and  C_16
REMARK    9  A    between atoms: N_26  and  C_27
REMARK                            x       y       z     vdW  Elec       q    Type
REMARK                         _______ _______ _______ _____ _____    ______ ____
ROOT
ATOM      1  S   UNL     1       3.657   7.389  17.424  0.00  0.00    +0.000 S 
ENDROOT
BRANCH   1   2
ATOM      2  C   UNL     1       3.402   5.811  18.173  0.00  0.00    +0.000 A 
ATOM      3  N   UNL     1       2.506   5.768  19.109  0.00  0.00    +0.000 NA
ATOM      4  C   UNL     1       2.263   4.549  19.742  0.00  0.00    +0.000 A 
ATOM      5  C   UNL     1       1.373   4.514  20.819  0.00  0.00    +0.000 A 
ATOM      6  C   UNL     1       1.169   3.331  21.536  0.00  0.00    +0.000 A 
ATOM      7  C   UNL     1       1.851   2.170  21.175  0.00  0.00    +0.000 A 
ATOM      8  C   UNL     1       2.710   2.185  20.078  0.00  0.00    +0.000 A 
ATOM      9  C   UNL     1       2.903   3.375  19.364  0.00  0.00    +0.000 A 
ATOM     10  C   UNL     1       3.816   3.428  18.210  0.00  0.00    +0.000 A 
ATOM     11  O   UNL     1       4.294   2.365  17.812  0.00  0.00    +0.000 OA
ATOM     12  N   UNL     1       4.084   4.697  17.685  0.00  0.00    +0.000 N 
BRANCH  12  13
ATOM     13  C   UNL     1       5.084   4.772  16.667  0.00  0.00    +0.000 A 
ATOM     14  C   UNL     1       6.385   5.189  16.985  0.00  0.00    +0.000 A 
ATOM     15  C   UNL     1       7.350   5.327  15.987  0.00  0.00    +0.000 A 
ATOM     16  C   UNL     1       7.019   5.068  14.659  0.00  0.00    +0.000 A 
ATOM     17  C   UNL     1       5.726   4.664  14.328  0.00  0.00    +0.000 A 
ATOM     18  C   UNL     1       4.762   4.513  15.328  0.00  0.00    +0.000 A 
ENDBRANCH  12  13
ENDBRANCH   1   2
BRANCH   1  19
ATOM     19  C   UNL     1       2.090   8.192  17.882  0.00  0.00    +0.000 C 
BRANCH  19  26
ATOM     20  C   UNL     1      -1.717  12.768  20.474  0.00  0.00    +0.000 C 
ATOM     21  O   UNL     1      -1.701  13.986  20.319  0.00  0.00    +0.000 OA
ATOM     22  N   UNL     1      -0.912  11.929  19.739  0.00  0.00    +0.000 N 
ATOM     23  C   UNL     1       0.007  12.506  18.756  0.00  0.00    +0.000 C 
ATOM     24  C   UNL     1       1.388  11.855  18.860  0.00  0.00    +0.000 C 
ATOM     25  N   UNL     1       1.286  10.392  18.758  0.00  0.00    +0.000 N 
ATOM     26  C   UNL     1       2.203   9.715  17.956  0.00  0.00    +0.000 C 
ATOM     27  O   UNL     1       3.031  10.329  17.277  0.00  0.00    +0.000 OA
ATOM     28  C   UNL     1       0.344   9.784  19.716  0.00  0.00    +0.000 C 
ATOM     29  C   UNL     1      -1.034  10.473  19.702  0.00  0.00    +0.000 C 
BRANCH  20  30
ATOM     30  O   UNL     1      -2.490  12.127  21.393  0.00  0.00    +0.000 OA
BRANCH  30  32
ATOM     31  C   UNL     1      -1.271  10.901  23.144  0.00  0.00    +0.000 C 
ATOM     32  C   UNL     1      -2.083  12.155  22.790  0.00  0.00    +0.000 C 
ATOM     33  C   UNL     1      -3.284  12.362  23.729  0.00  0.00    +0.000 C 
ATOM     34  C   UNL     1      -1.158  13.374  22.953  0.00  0.00    +0.000 C 
ENDBRANCH  30  32
ENDBRANCH  20  30
ENDBRANCH  19  26
ENDBRANCH   1  19
TORSDOF 6
ENDMDL
MODEL 8
REMARK VINA RESULT:      -7.7      2.558      9.469
REMARK  Name = 
REMARK  9 active torsions:
REMARK  status: ('A' for Active; 'I' for Inactive)
REMARK    1  A    between atoms: C_1  and  C_2
REMARK    2  A    between atoms: C_2  and  C_3
REMARK    3  A    between atoms: C_2  and  C_4
REMARK    4  A    between atoms: C_2  and  O_5
REMARK    5  A    between atoms: O_5  and  C_6
REMARK    6  A    between atoms: C_12  and  C_14
REMARK    7  A    between atoms: C_14  and  S_15
REMARK    8  A    between atoms: S_15  and  C_16
REMARK    9  A    between atoms: N_26  and  C_27
REMARK                            x       y       z     vdW  Elec       q    Type
REMARK                         _______ _______ _______ _____ _____    ______ ____
ROOT
ATOM      1  S   UNL     1      -1.257  11.962  18.733  0.00  0.00    +0.000 S 
ENDROOT
BRANCH   1   2
ATOM      2  C   UNL     1       0.099  12.850  19.431  0.00  0.00    +0.000 A 
ATOM      3  N   UNL     1       1.070  13.131  18.619  0.00  0.00    +0.000 NA
ATOM      4  C   UNL     1       2.172  13.828  19.114  0.00  0.00    +0.000 A 
ATOM      5  C   UNL     1       3.266  14.045  18.272  0.00  0.00    +0.000 A 
ATOM      6  C   UNL     1       4.424  14.661  18.755  0.00  0.00    +0.000 A 
ATOM      7  C   UNL     1       4.494  15.070  20.085  0.00  0.00    +0.000 A 
ATOM      8  C   UNL     1       3.394  14.894  20.922  0.00  0.00    +0.000 A 
ATOM      9  C   UNL     1       2.236  14.279  20.426  0.00  0.00    +0.000 A 
ATOM     10  C   UNL     1       1.063  14.064  21.289  0.00  0.00    +0.000 A 
ATOM     11  O   UNL     1       1.083  14.563  22.414  0.00  0.00    +0.000 OA
ATOM     12  N   UNL     1       0.035  13.278  20.757  0.00  0.00    +0.000 N 
BRANCH  12  13
ATOM     13  C   UNL     1      -1.036  12.938  21.641  0.00  0.00    +0.000 A 
ATOM     14  C   UNL     1      -2.164  13.766  21.732  0.00  0.00    +0.000 A 
ATOM     15  C   UNL     1      -3.185  13.478  22.639  0.00  0.00    +0.000 A 
ATOM     16  C   UNL     1      -3.077  12.370  23.477  0.00  0.00    +0.000 A 
ATOM     17  C   UNL     1      -1.955  11.546  23.404  0.00  0.00    +0.000 A 
ATOM     18  C   UNL     1      -0.938  11.826  22.488  0.00  0.00    +0.000 A 
ENDBRANCH  12  13
ENDBRANCH   1   2
BRANCH   1  19
ATOM     19  C   UNL     1      -0.381  10.464  18.186  0.00  0.00    +0.000 C 
BRANCH  19  26
ATOM     20  C   UNL     1       4.299   5.989  18.661  0.00  0.00    +0.000 C 
ATOM     21  O   UNL     1       4.527   5.179  19.555  0.00  0.00    +0.000 OA
ATOM     22  N   UNL     1       3.177   6.784  18.664  0.00  0.00    +0.000 N 
ATOM     23  C   UNL     1       2.234   6.677  19.778  0.00  0.00    +0.000 C 
ATOM     24  C   UNL     1       1.809   8.065  20.263  0.00  0.00    +0.000 C 
ATOM     25  N   UNL     1       1.289   8.871  19.150  0.00  0.00    +0.000 N 
ATOM     26  C   UNL     1       0.128   9.616  19.353  0.00  0.00    +0.000 C 
ATOM     27  O   UNL     1      -0.502   9.539  20.410  0.00  0.00    +0.000 OA
ATOM     28  C   UNL     1       2.206   8.974  17.999  0.00  0.00    +0.000 C 
ATOM     29  C   UNL     1       2.723   7.598  17.537  0.00  0.00    +0.000 C 
BRANCH  20  30
ATOM     30  O   UNL     1       5.130   6.213  17.605  0.00  0.00    +0.000 OA
BRANCH  30  32
ATOM     31  C   UNL     1       5.505   5.641  15.242  0.00  0.00    +0.000 C 
ATOM     32  C   UNL     1       5.398   5.120  16.682  0.00  0.00    +0.000 C 
ATOM     33  C   UNL     1       4.364   3.990  16.822  0.00  0.00    +0.000 C 
ATOM     34  C   UNL     1       6.768   4.541  17.075  0.00  0.00    +0.000 C 
ENDBRANCH  30  32
ENDBRANCH  20  30
ENDBRANCH  19  26
ENDBRANCH   1  19
TORSDOF 6
ENDMDL
MODEL 9
REMARK VINA RESULT:      -7.5      1.325      4.269
REMARK  Name = 
REMARK  9 active torsions:
REMARK  status: ('A' for Active; 'I' for Inactive)
REMARK    1  A    between atoms: C_1  and  C_2
REMARK    2  A    between atoms: C_2  and  C_3
REMARK    3  A    between atoms: C_2  and  C_4
REMARK    4  A    between atoms: C_2  and  O_5
REMARK    5  A    between atoms: O_5  and  C_6
REMARK    6  A    between atoms: C_12  and  C_14
REMARK    7  A    between atoms: C_14  and  S_15
REMARK    8  A    between atoms: S_15  and  C_16
REMARK    9  A    between atoms: N_26  and  C_27
REMARK                            x       y       z     vdW  Elec       q    Type
REMARK                         _______ _______ _______ _____ _____    ______ ____
ROOT
ATOM      1  S   UNL     1       2.849   7.450  17.539  0.00  0.00    +0.000 S 
ENDROOT
BRANCH   1   2
ATOM      2  C   UNL     1       3.044   5.967  18.474  0.00  0.00    +0.000 A 
ATOM      3  N   UNL     1       2.024   5.613  19.194  0.00  0.00    +0.000 NA
ATOM      4  C   UNL     1       2.121   4.450  19.959  0.00  0.00    +0.000 A 
ATOM      5  C   UNL     1       1.067   4.116  20.813  0.00  0.00    +0.000 A 
ATOM      6  C   UNL     1       1.161   3.009  21.661  0.00  0.00    +0.000 A 
ATOM      7  C   UNL     1       2.311   2.222  21.655  0.00  0.00    +0.000 A 
ATOM      8  C   UNL     1       3.352   2.524  20.778  0.00  0.00    +0.000 A 
ATOM      9  C   UNL     1       3.244   3.634  19.930  0.00  0.00    +0.000 A 
ATOM     10  C   UNL     1       4.332   3.988  19.004  0.00  0.00    +0.000 A 
ATOM     11  O   UNL     1       5.274   3.202  18.902  0.00  0.00    +0.000 OA
ATOM     12  N   UNL     1       4.210   5.213  18.339  0.00  0.00    +0.000 N 
BRANCH  12  13
ATOM     13  C   UNL     1       5.330   5.634  17.558  0.00  0.00    +0.000 A 
ATOM     14  C   UNL     1       5.471   5.193  16.234  0.00  0.00    +0.000 A 
ATOM     15  C   UNL     1       6.595   5.546  15.484  0.00  0.00    +0.000 A 
ATOM     16  C   UNL     1       7.597   6.325  16.058  0.00  0.00    +0.000 A 
ATOM     17  C   UNL     1       7.473   6.760  17.377  0.00  0.00    +0.000 A 
ATOM     18  C   UNL     1       6.343   6.418  18.125  0.00  0.00    +0.000 A 
ENDBRANCH  12  13
ENDBRANCH   1   2
BRANCH   1  19
ATOM     19  C   UNL     1       1.898   8.435  18.739  0.00  0.00    +0.000 C 
BRANCH  19  26
ATOM     20  C   UNL     1      -1.560  13.403  21.085  0.00  0.00    +0.000 C 
ATOM     21  O   UNL     1      -1.744  14.524  20.619  0.00  0.00    +0.000 OA
ATOM     22  N   UNL     1      -0.898  12.421  20.385  0.00  0.00    +0.000 N 
ATOM     23  C   UNL     1      -0.379  12.727  19.051  0.00  0.00    +0.000 C 
ATOM     24  C   UNL     1       1.045  12.191  18.889  0.00  0.00    +0.000 C 
ATOM     25  N   UNL     1       1.105  10.758  19.211  0.00  0.00    +0.000 N 
ATOM     26  C   UNL     1       1.833   9.917  18.371  0.00  0.00    +0.000 C 
ATOM     27  O   UNL     1       2.348  10.342  17.334  0.00  0.00    +0.000 OA
ATOM     28  C   UNL     1       0.560  10.415  20.538  0.00  0.00    +0.000 C 
ATOM     29  C   UNL     1      -0.840  11.012  20.770  0.00  0.00    +0.000 C 
BRANCH  20  30
ATOM     30  O   UNL     1      -1.951  13.022  22.333  0.00  0.00    +0.000 OA
BRANCH  30  32
ATOM     31  C   UNL     1      -4.280  12.733  21.596  0.00  0.00    +0.000 C 
ATOM     32  C   UNL     1      -3.342  13.206  22.716  0.00  0.00    +0.000 C 
ATOM     33  C   UNL     1      -3.628  14.655  23.149  0.00  0.00    +0.000 C 
ATOM     34  C   UNL     1      -3.582  12.305  23.941  0.00  0.00    +0.000 C 
ENDBRANCH  30  32
ENDBRANCH  20  30
ENDBRANCH  19  26
ENDBRANCH   1  19
TORSDOF 6
ENDMDL
