MODEL 1
REMARK VINA RESULT:      -7.5      0.000      0.000
REMARK  Name = 
REMARK  5 active torsions:
REMARK  status: ('A' for Active; 'I' for Inactive)
REMARK    1  A    between atoms: N_1  and  C_2
REMARK    2  A    between atoms: C_3  and  C_4
REMARK    3  A    between atoms: C_14  and  C_15
REMARK    4  A    between atoms: C_15  and  O_17
REMARK    5  A    between atoms: C_20  and  C_21
REMARK                            x       y       z     vdW  Elec       q    Type
REMARK                         _______ _______ _______ _____ _____    ______ ____
ROOT
ATOM      1  C   UNK     1       4.314   4.022  17.348  0.00  0.00    +0.000 A 
ATOM      2  C   UNK     1       4.793   5.033  16.458  0.00  0.00    +0.000 A 
ATOM      3  N   UNK     1       4.228   6.214  16.755  0.00  0.00    +0.000 NA
ATOM      4  N   UNK     1       3.481   5.983  17.867  0.00  0.00    +0.000 N 
ATOM      5  C   UNK     1       2.875   7.077  18.511  0.00  0.00    +0.000 A 
ATOM      6  N   UNK     1       2.618   7.122  19.806  0.00  0.00    +0.000 NA
ATOM      7  C   UNK     1       1.715   8.159  20.060  0.00  0.00    +0.000 A 
ATOM      8  C   UNK     1       1.314   8.861  18.941  0.00  0.00    +0.000 A 
ATOM      9  S   UNK     1       2.178   8.311  17.557  0.00  0.00    +0.000 S 
ATOM     10  C   UNK     1       3.440   4.634  18.228  0.00  0.00    +0.000 A 
ENDROOT
BRANCH   2  11
ATOM     11  C   UNK     1       5.741   4.913  15.340  0.00  0.00    +0.000 A 
ATOM     12  C   UNK     1       6.980   5.571  15.357  0.00  0.00    +0.000 A 
ATOM     13  C   UNK     1       7.854   5.487  14.269  0.00  0.00    +0.000 A 
ATOM     14  C   UNK     1       7.511   4.720  13.158  0.00  0.00    +0.000 A 
ATOM     15  C   UNK     1       6.299   4.034  13.136  0.00  0.00    +0.000 A 
ATOM     16  C   UNK     1       5.419   4.130  14.219  0.00  0.00    +0.000 A 
ENDBRANCH   2  11
BRANCH  10  17
ATOM     17  C   UNK     1       2.595   4.085  19.310  0.00  0.00    +0.000 A 
ATOM     18  C   UNK     1       3.116   3.843  20.595  0.00  0.00    +0.000 A 
ATOM     19  C   UNK     1       2.358   3.203  21.578  0.00  0.00    +0.000 A 
ATOM     20  C   UNK     1       1.030   2.881  21.327  0.00  0.00    +0.000 A 
ATOM     21  C   UNK     1       0.467   3.195  20.093  0.00  0.00    +0.000 A 
ATOM     22  C   UNK     1       1.248   3.770  19.086  0.00  0.00    +0.000 A 
ENDBRANCH  10  17
BRANCH   1  23
ATOM     23  N   UNK     1       4.626   2.709  17.350  0.00  0.00    +0.000 N 
ATOM     24  H   UNK     1       4.146   2.025  16.773  0.00  0.00    +0.000 HD
ATOM     25  H   UNK     1       5.317   2.312  17.978  0.00  0.00    +0.000 HD
ENDBRANCH   1  23
BRANCH   7  26
ATOM     26  C   UNK     1       1.232   8.387  21.420  0.00  0.00    +0.000 C 
ATOM     27  O   UNK     1       0.084   8.188  21.791  0.00  0.00    +0.000 OA
BRANCH  26  28
ATOM     28  O   UNK     1       2.211   8.848  22.244  0.00  0.00    +0.000 OA
ATOM     29  H   UNK     1       2.466   9.752  21.941  0.00  0.00    +0.000 HD
ENDBRANCH  26  28
ENDBRANCH   7  26
TORSDOF 5
ENDMDL
MODEL 2
REMARK VINA RESULT:      -7.5      3.237      7.380
REMARK  Name = 
REMARK  5 active torsions:
REMARK  status: ('A' for Active; 'I' for Inactive)
REMARK    1  A    between atoms: N_1  and  C_2
REMARK    2  A    between atoms: C_3  and  C_4
REMARK    3  A    between atoms: C_14  and  C_15
REMARK    4  A    between atoms: C_15  and  O_17
REMARK    5  A    between atoms: C_20  and  C_21
REMARK                            x       y       z     vdW  Elec       q    Type
REMARK                         _______ _______ _______ _____ _____    ______ ____
ROOT
ATOM      1  C   UNK     1       2.238   7.853  19.043  0.00  0.00    +0.000 A 
ATOM      2  C   UNK     1       1.438   7.905  20.226  0.00  0.00    +0.000 A 
ATOM      3  N   UNK     1       1.413   6.701  20.819  0.00  0.00    +0.000 NA
ATOM      4  N   UNK     1       2.254   5.924  20.087  0.00  0.00    +0.000 N 
ATOM      5  C   UNK     1       2.553   4.630  20.552  0.00  0.00    +0.000 A 
ATOM      6  N   UNK     1       3.690   4.003  20.310  0.00  0.00    +0.000 NA
ATOM      7  C   UNK     1       3.534   2.643  20.594  0.00  0.00    +0.000 A 
ATOM      8  C   UNK     1       2.277   2.287  21.038  0.00  0.00    +0.000 A 
ATOM      9  S   UNK     1       1.301   3.691  21.236  0.00  0.00    +0.000 S 
ATOM     10  C   UNK     1       2.729   6.563  18.940  0.00  0.00    +0.000 A 
ENDROOT
BRANCH   2  11
ATOM     11  C   UNK     1       0.692   9.039  20.794  0.00  0.00    +0.000 A 
ATOM     12  C   UNK     1       0.180  10.059  19.978  0.00  0.00    +0.000 A 
ATOM     13  C   UNK     1      -0.488  11.155  20.533  0.00  0.00    +0.000 A 
ATOM     14  C   UNK     1      -0.676  11.233  21.910  0.00  0.00    +0.000 A 
ATOM     15  C   UNK     1      -0.202  10.214  22.733  0.00  0.00    +0.000 A 
ATOM     16  C   UNK     1       0.478   9.124  22.179  0.00  0.00    +0.000 A 
ENDBRANCH   2  11
BRANCH  10  17
ATOM     17  C   UNK     1       3.546   5.908  17.896  0.00  0.00    +0.000 A 
ATOM     18  C   UNK     1       3.185   4.657  17.362  0.00  0.00    +0.000 A 
ATOM     19  C   UNK     1       4.023   3.976  16.475  0.00  0.00    +0.000 A 
ATOM     20  C   UNK     1       5.192   4.578  16.028  0.00  0.00    +0.000 A 
ATOM     21  C   UNK     1       5.522   5.856  16.473  0.00  0.00    +0.000 A 
ATOM     22  C   UNK     1       4.719   6.504  17.416  0.00  0.00    +0.000 A 
ENDBRANCH  10  17
BRANCH   1  23
ATOM     23  N   UNK     1       2.481   8.849  18.166  0.00  0.00    +0.000 N 
ATOM     24  H   UNK     1       2.582   8.695  17.167  0.00  0.00    +0.000 HD
ATOM     25  H   UNK     1       2.643   9.807  18.457  0.00  0.00    +0.000 HD
ENDBRANCH   1  23
BRANCH   7  26
ATOM     26  C   UNK     1       4.642   1.720  20.361  0.00  0.00    +0.000 C 
ATOM     27  O   UNK     1       5.488   1.426  21.195  0.00  0.00    +0.000 OA
BRANCH  26  28
ATOM     28  O   UNK     1       4.633   1.211  19.099  0.00  0.00    +0.000 OA
ATOM     29  H   UNK     1       3.879   1.617  18.611  0.00  0.00    +0.000 HD
ENDBRANCH  26  28
ENDBRANCH   7  26
TORSDOF 5
ENDMDL
MODEL 3
REMARK VINA RESULT:      -7.4      3.115      7.251
REMARK  Name = 
REMARK  5 active torsions:
REMARK  status: ('A' for Active; 'I' for Inactive)
REMARK    1  A    between atoms: N_1  and  C_2
REMARK    2  A    between atoms: C_3  and  C_4
REMARK    3  A    between atoms: C_14  and  C_15
REMARK    4  A    between atoms: C_15  and  O_17
REMARK    5  A    between atoms: C_20  and  C_21
REMARK                            x       y       z     vdW  Elec       q    Type
REMARK                         _______ _______ _______ _____ _____    ______ ____
ROOT
ATOM      1  C   UNK     1       2.369   8.006  18.726  0.00  0.00    +0.000 A 
ATOM      2  C   UNK     1       1.493   8.093  19.852  0.00  0.00    +0.000 A 
ATOM      3  N   UNK     1       1.407   6.900  20.462  0.00  0.00    +0.000 NA
ATOM      4  N   UNK     1       2.281   6.097  19.801  0.00  0.00    +0.000 N 
ATOM      5  C   UNK     1       2.525   4.806  20.307  0.00  0.00    +0.000 A 
ATOM      6  N   UNK     1       3.664   4.156  20.151  0.00  0.00    +0.000 NA
ATOM      7  C   UNK     1       3.465   2.803  20.448  0.00  0.00    +0.000 A 
ATOM      8  C   UNK     1       2.175   2.477  20.813  0.00  0.00    +0.000 A 
ATOM      9  S   UNK     1       1.213   3.901  20.922  0.00  0.00    +0.000 S 
ATOM     10  C   UNK     1       2.842   6.707  18.677  0.00  0.00    +0.000 A 
ENDROOT
BRANCH   2  11
ATOM     11  C   UNK     1       0.731   9.249  20.349  0.00  0.00    +0.000 A 
ATOM     12  C   UNK     1       0.758   9.616  21.703  0.00  0.00    +0.000 A 
ATOM     13  C   UNK     1      -0.006  10.688  22.172  0.00  0.00    +0.000 A 
ATOM     14  C   UNK     1      -0.788  11.427  21.288  0.00  0.00    +0.000 A 
ATOM     15  C   UNK     1      -0.803  11.097  19.934  0.00  0.00    +0.000 A 
ATOM     16  C   UNK     1      -0.049  10.015  19.468  0.00  0.00    +0.000 A 
ENDBRANCH   2  11
BRANCH  10  17
ATOM     17  C   UNK     1       3.715   6.018  17.701  0.00  0.00    +0.000 A 
ATOM     18  C   UNK     1       3.404   4.733  17.220  0.00  0.00    +0.000 A 
ATOM     19  C   UNK     1       4.291   4.028  16.403  0.00  0.00    +0.000 A 
ATOM     20  C   UNK     1       5.463   4.636  15.970  0.00  0.00    +0.000 A 
ATOM     21  C   UNK     1       5.746   5.942  16.360  0.00  0.00    +0.000 A 
ATOM     22  C   UNK     1       4.892   6.619  17.236  0.00  0.00    +0.000 A 
ENDBRANCH  10  17
BRANCH   1  23
ATOM     23  N   UNK     1       2.687   8.982  17.850  0.00  0.00    +0.000 N 
ATOM     24  H   UNK     1       3.008   9.901  18.137  0.00  0.00    +0.000 HD
ATOM     25  H   UNK     1       2.562   8.879  16.848  0.00  0.00    +0.000 HD
ENDBRANCH   1  23
BRANCH   7  26
ATOM     26  C   UNK     1       4.570   1.858  20.305  0.00  0.00    +0.000 C 
ATOM     27  O   UNK     1       5.398   1.622  21.173  0.00  0.00    +0.000 OA
BRANCH  26  28
ATOM     28  O   UNK     1       4.578   1.256  19.085  0.00  0.00    +0.000 OA
ATOM     29  H   UNK     1       4.366   0.301  19.213  0.00  0.00    +0.000 HD
ENDBRANCH  26  28
ENDBRANCH   7  26
TORSDOF 5
ENDMDL
MODEL 4
REMARK VINA RESULT:      -7.1      3.106      7.024
REMARK  Name = 
REMARK  5 active torsions:
REMARK  status: ('A' for Active; 'I' for Inactive)
REMARK    1  A    between atoms: N_1  and  C_2
REMARK    2  A    between atoms: C_3  and  C_4
REMARK    3  A    between atoms: C_14  and  C_15
REMARK    4  A    between atoms: C_15  and  O_17
REMARK    5  A    between atoms: C_20  and  C_21
REMARK                            x       y       z     vdW  Elec       q    Type
REMARK                         _______ _______ _______ _____ _____    ______ ____
ROOT
ATOM      1  C   UNK     1       2.936   7.635  18.427  0.00  0.00    +0.000 A 
ATOM      2  C   UNK     1       1.911   7.774  19.413  0.00  0.00    +0.000 A 
ATOM      3  N   UNK     1       1.717   6.606  20.044  0.00  0.00    +0.000 NA
ATOM      4  N   UNK     1       2.661   5.767  19.542  0.00  0.00    +0.000 N 
ATOM      5  C   UNK     1       2.806   4.492  20.120  0.00  0.00    +0.000 A 
ATOM      6  N   UNK     1       3.944   3.821  20.151  0.00  0.00    +0.000 NA
ATOM      7  C   UNK     1       3.679   2.483  20.461  0.00  0.00    +0.000 A 
ATOM      8  C   UNK     1       2.344   2.188  20.648  0.00  0.00    +0.000 A 
ATOM      9  S   UNK     1       1.403   3.627  20.571  0.00  0.00    +0.000 S 
ATOM     10  C   UNK     1       3.387   6.328  18.490  0.00  0.00    +0.000 A 
ENDROOT
BRANCH   2  11
ATOM     11  C   UNK     1       1.108   8.958  19.757  0.00  0.00    +0.000 A 
ATOM     12  C   UNK     1       0.542   9.771  18.764  0.00  0.00    +0.000 A 
ATOM     13  C   UNK     1      -0.181  10.920  19.103  0.00  0.00    +0.000 A 
ATOM     14  C   UNK     1      -0.370  11.256  20.441  0.00  0.00    +0.000 A 
ATOM     15  C   UNK     1       0.159  10.443  21.441  0.00  0.00    +0.000 A 
ATOM     16  C   UNK     1       0.894   9.302  21.102  0.00  0.00    +0.000 A 
ENDBRANCH   2  11
BRANCH  10  17
ATOM     17  C   UNK     1       4.377   5.594  17.673  0.00  0.00    +0.000 A 
ATOM     18  C   UNK     1       5.754   5.866  17.770  0.00  0.00    +0.000 A 
ATOM     19  C   UNK     1       6.677   5.269  16.908  0.00  0.00    +0.000 A 
ATOM     20  C   UNK     1       6.250   4.313  15.995  0.00  0.00    +0.000 A 
ATOM     21  C   UNK     1       4.904   3.960  15.944  0.00  0.00    +0.000 A 
ATOM     22  C   UNK     1       3.973   4.612  16.759  0.00  0.00    +0.000 A 
ENDBRANCH  10  17
BRANCH   1  23
ATOM     23  N   UNK     1       3.394   8.574  17.573  0.00  0.00    +0.000 N 
ATOM     24  H   UNK     1       4.065   9.287  17.842  0.00  0.00    +0.000 HD
ATOM     25  H   UNK     1       3.046   8.667  16.624  0.00  0.00    +0.000 HD
ENDBRANCH   1  23
BRANCH   7  26
ATOM     26  C   UNK     1       4.775   1.518  20.509  0.00  0.00    +0.000 C 
ATOM     27  O   UNK     1       5.572   1.418  21.431  0.00  0.00    +0.000 OA
BRANCH  26  28
ATOM     28  O   UNK     1       4.814   0.727  19.403  0.00  0.00    +0.000 OA
ATOM     29  H   UNK     1       5.326   1.200  18.705  0.00  0.00    +0.000 HD
ENDBRANCH  26  28
ENDBRANCH   7  26
TORSDOF 5
ENDMDL
MODEL 5
REMARK VINA RESULT:      -7.1      0.142      1.342
REMARK  Name = 
REMARK  5 active torsions:
REMARK  status: ('A' for Active; 'I' for Inactive)
REMARK    1  A    between atoms: N_1  and  C_2
REMARK    2  A    between atoms: C_3  and  C_4
REMARK    3  A    between atoms: C_14  and  C_15
REMARK    4  A    between atoms: C_15  and  O_17
REMARK    5  A    between atoms: C_20  and  C_21
REMARK                            x       y       z     vdW  Elec       q    Type
REMARK                         _______ _______ _______ _____ _____    ______ ____
ROOT
ATOM      1  C   UNK     1       4.314   3.943  17.230  0.00  0.00    +0.000 A 
ATOM      2  C   UNK     1       4.780   4.969  16.351  0.00  0.00    +0.000 A 
ATOM      3  N   UNK     1       4.220   6.145  16.676  0.00  0.00    +0.000 NA
ATOM      4  N   UNK     1       3.490   5.895  17.795  0.00  0.00    +0.000 N 
ATOM      5  C   UNK     1       2.894   6.979  18.467  0.00  0.00    +0.000 A 
ATOM      6  N   UNK     1       2.658   7.002  19.766  0.00  0.00    +0.000 NA
ATOM      7  C   UNK     1       1.759   8.035  20.051  0.00  0.00    +0.000 A 
ATOM      8  C   UNK     1       1.342   8.756  18.950  0.00  0.00    +0.000 A 
ATOM      9  S   UNK     1       2.184   8.230  17.544  0.00  0.00    +0.000 S 
ATOM     10  C   UNK     1       3.453   4.541  18.133  0.00  0.00    +0.000 A 
ENDROOT
BRANCH   2  11
ATOM     11  C   UNK     1       5.711   4.868  15.216  0.00  0.00    +0.000 A 
ATOM     12  C   UNK     1       5.401   4.100  14.082  0.00  0.00    +0.000 A 
ATOM     13  C   UNK     1       6.313   3.974  13.030  0.00  0.00    +0.000 A 
ATOM     14  C   UNK     1       7.537   4.636  13.084  0.00  0.00    +0.000 A 
ATOM     15  C   UNK     1       7.849   5.428  14.188  0.00  0.00    +0.000 A 
ATOM     16  C   UNK     1       6.942   5.542  15.247  0.00  0.00    +0.000 A 
ENDBRANCH   2  11
BRANCH  10  17
ATOM     17  C   UNK     1       2.624   3.974  19.219  0.00  0.00    +0.000 A 
ATOM     18  C   UNK     1       1.247   3.744  19.045  0.00  0.00    +0.000 A 
ATOM     19  C   UNK     1       0.438   3.334  20.107  0.00  0.00    +0.000 A 
ATOM     20  C   UNK     1       1.010   3.049  21.341  0.00  0.00    +0.000 A 
ATOM     21  C   UNK     1       2.386   3.181  21.510  0.00  0.00    +0.000 A 
ATOM     22  C   UNK     1       3.182   3.661  20.465  0.00  0.00    +0.000 A 
ENDBRANCH  10  17
BRANCH   1  23
ATOM     23  N   UNK     1       4.624   2.630  17.205  0.00  0.00    +0.000 N 
ATOM     24  H   UNK     1       4.040   1.931  16.757  0.00  0.00    +0.000 HD
ATOM     25  H   UNK     1       5.430   2.250  17.690  0.00  0.00    +0.000 HD
ENDBRANCH   1  23
BRANCH   7  26
ATOM     26  C   UNK     1       1.298   8.240  21.422  0.00  0.00    +0.000 C 
ATOM     27  O   UNK     1       0.202   7.896  21.844  0.00  0.00    +0.000 OA
BRANCH  26  28
ATOM     28  O   UNK     1       2.231   8.861  22.193  0.00  0.00    +0.000 OA
ATOM     29  H   UNK     1       2.405   9.752  21.806  0.00  0.00    +0.000 HD
ENDBRANCH  26  28
ENDBRANCH   7  26
TORSDOF 5
ENDMDL
MODEL 6
REMARK VINA RESULT:      -7.0      3.329      6.732
REMARK  Name = 
REMARK  5 active torsions:
REMARK  status: ('A' for Active; 'I' for Inactive)
REMARK    1  A    between atoms: N_1  and  C_2
REMARK    2  A    between atoms: C_3  and  C_4
REMARK    3  A    between atoms: C_14  and  C_15
REMARK    4  A    between atoms: C_15  and  O_17
REMARK    5  A    between atoms: C_20  and  C_21
REMARK                            x       y       z     vdW  Elec       q    Type
REMARK                         _______ _______ _______ _____ _____    ______ ____
ROOT
ATOM      1  C   UNK     1       1.939   5.983  19.855  0.00  0.00    +0.000 A 
ATOM      2  C   UNK     1       2.167   7.377  19.635  0.00  0.00    +0.000 A 
ATOM      3  N   UNK     1       3.200   7.549  18.795  0.00  0.00    +0.000 NA
ATOM      4  N   UNK     1       3.560   6.295  18.411  0.00  0.00    +0.000 N 
ATOM      5  C   UNK     1       4.534   6.152  17.406  0.00  0.00    +0.000 A 
ATOM      6  N   UNK     1       4.589   5.130  16.571  0.00  0.00    +0.000 NA
ATOM      7  C   UNK     1       5.844   5.107  15.954  0.00  0.00    +0.000 A 
ATOM      8  C   UNK     1       6.699   6.115  16.351  0.00  0.00    +0.000 A 
ATOM      9  S   UNK     1       5.886   7.197  17.414  0.00  0.00    +0.000 S 
ATOM     10  C   UNK     1       2.865   5.294  19.093  0.00  0.00    +0.000 A 
ENDROOT
BRANCH   2  11
ATOM     11  C   UNK     1       1.460   8.535  20.204  0.00  0.00    +0.000 A 
ATOM     12  C   UNK     1       1.240   8.652  21.585  0.00  0.00    +0.000 A 
ATOM     13  C   UNK     1       0.526   9.734  22.110  0.00  0.00    +0.000 A 
ATOM     14  C   UNK     1       0.046  10.729  21.263  0.00  0.00    +0.000 A 
ATOM     15  C   UNK     1       0.282  10.646  19.892  0.00  0.00    +0.000 A 
ATOM     16  C   UNK     1       0.983   9.555  19.366  0.00  0.00    +0.000 A 
ENDBRANCH   2  11
BRANCH  10  17
ATOM     17  C   UNK     1       3.153   3.848  18.973  0.00  0.00    +0.000 A 
ATOM     18  C   UNK     1       4.140   3.230  19.764  0.00  0.00    +0.000 A 
ATOM     19  C   UNK     1       4.505   1.897  19.561  0.00  0.00    +0.000 A 
ATOM     20  C   UNK     1       3.820   1.128  18.629  0.00  0.00    +0.000 A 
ATOM     21  C   UNK     1       2.778   1.694  17.900  0.00  0.00    +0.000 A 
ATOM     22  C   UNK     1       2.463   3.048  18.054  0.00  0.00    +0.000 A 
ENDBRANCH  10  17
BRANCH   1  23
ATOM     23  N   UNK     1       1.013   5.414  20.655  0.00  0.00    +0.000 N 
ATOM     24  H   UNK     1       0.067   5.209  20.348  0.00  0.00    +0.000 HD
ATOM     25  H   UNK     1       1.186   5.214  21.635  0.00  0.00    +0.000 HD
ENDBRANCH   1  23
BRANCH   7  26
ATOM     26  C   UNK     1       6.173   4.037  15.016  0.00  0.00    +0.000 C 
ATOM     27  O   UNK     1       6.581   4.215  13.876  0.00  0.00    +0.000 OA
BRANCH  26  28
ATOM     28  O   UNK     1       5.978   2.803  15.552  0.00  0.00    +0.000 OA
ATOM     29  H   UNK     1       5.763   2.914  16.509  0.00  0.00    +0.000 HD
ENDBRANCH  26  28
ENDBRANCH   7  26
TORSDOF 5
ENDMDL
MODEL 7
REMARK VINA RESULT:      -7.0      3.333      6.811
REMARK  Name = 
REMARK  5 active torsions:
REMARK  status: ('A' for Active; 'I' for Inactive)
REMARK    1  A    between atoms: N_1  and  C_2
REMARK    2  A    between atoms: C_3  and  C_4
REMARK    3  A    between atoms: C_14  and  C_15
REMARK    4  A    between atoms: C_15  and  O_17
REMARK    5  A    between atoms: C_20  and  C_21
REMARK                            x       y       z     vdW  Elec       q    Type
REMARK                         _______ _______ _______ _____ _____    ______ ____
ROOT
ATOM      1  C   UNK     1       2.001   5.986  19.805  0.00  0.00    +0.000 A 
ATOM      2  C   UNK     1       2.202   7.386  19.601  0.00  0.00    +0.000 A 
ATOM      3  N   UNK     1       3.230   7.587  18.761  0.00  0.00    +0.000 NA
ATOM      4  N   UNK     1       3.614   6.345  18.364  0.00  0.00    +0.000 N 
ATOM      5  C   UNK     1       4.590   6.233  17.356  0.00  0.00    +0.000 A 
ATOM      6  N   UNK     1       4.663   5.220  16.510  0.00  0.00    +0.000 NA
ATOM      7  C   UNK     1       5.918   5.229  15.891  0.00  0.00    +0.000 A 
ATOM      8  C   UNK     1       6.754   6.249  16.298  0.00  0.00    +0.000 A 
ATOM      9  S   UNK     1       5.921   7.303  17.374  0.00  0.00    +0.000 S 
ATOM     10  C   UNK     1       2.940   5.323  19.035  0.00  0.00    +0.000 A 
ENDROOT
BRANCH   2  11
ATOM     11  C   UNK     1       1.473   8.524  20.183  0.00  0.00    +0.000 A 
ATOM     12  C   UNK     1       0.984   9.567  19.381  0.00  0.00    +0.000 A 
ATOM     13  C   UNK     1       0.332  10.665  19.951  0.00  0.00    +0.000 A 
ATOM     14  C   UNK     1       0.137  10.723  21.328  0.00  0.00    +0.000 A 
ATOM     15  C   UNK     1       0.588   9.682  22.137  0.00  0.00    +0.000 A 
ATOM     16  C   UNK     1       1.252   8.590  21.568  0.00  0.00    +0.000 A 
ENDBRANCH   2  11
BRANCH  10  17
ATOM     17  C   UNK     1       3.256   3.885  18.899  0.00  0.00    +0.000 A 
ATOM     18  C   UNK     1       2.567   3.066  17.986  0.00  0.00    +0.000 A 
ATOM     19  C   UNK     1       2.770   1.685  17.949  0.00  0.00    +0.000 A 
ATOM     20  C   UNK     1       3.741   1.108  18.757  0.00  0.00    +0.000 A 
ATOM     21  C   UNK     1       4.501   1.913  19.603  0.00  0.00    +0.000 A 
ATOM     22  C   UNK     1       4.244   3.285  19.691  0.00  0.00    +0.000 A 
ENDBRANCH  10  17
BRANCH   1  23
ATOM     23  N   UNK     1       1.088   5.390  20.600  0.00  0.00    +0.000 N 
ATOM     24  H   UNK     1       1.075   5.501  21.609  0.00  0.00    +0.000 HD
ATOM     25  H   UNK     1       0.394   4.740  20.244  0.00  0.00    +0.000 HD
ENDBRANCH   1  23
BRANCH   7  26
ATOM     26  C   UNK     1       6.267   4.176  14.941  0.00  0.00    +0.000 C 
ATOM     27  O   UNK     1       6.655   4.373  13.798  0.00  0.00    +0.000 OA
BRANCH  26  28
ATOM     28  O   UNK     1       6.115   2.932  15.471  0.00  0.00    +0.000 OA
ATOM     29  H   UNK     1       5.151   2.725  15.495  0.00  0.00    +0.000 HD
ENDBRANCH  26  28
ENDBRANCH   7  26
TORSDOF 5
ENDMDL
MODEL 8
REMARK VINA RESULT:      -6.8      3.116      7.008
REMARK  Name = 
REMARK  5 active torsions:
REMARK  status: ('A' for Active; 'I' for Inactive)
REMARK    1  A    between atoms: N_1  and  C_2
REMARK    2  A    between atoms: C_3  and  C_4
REMARK    3  A    between atoms: C_14  and  C_15
REMARK    4  A    between atoms: C_15  and  O_17
REMARK    5  A    between atoms: C_20  and  C_21
REMARK                            x       y       z     vdW  Elec       q    Type
REMARK                         _______ _______ _______ _____ _____    ______ ____
ROOT
ATOM      1  C   UNK     1       3.163   7.819  18.085  0.00  0.00    +0.000 A 
ATOM      2  C   UNK     1       1.984   7.900  18.889  0.00  0.00    +0.000 A 
ATOM      3  N   UNK     1       1.674   6.689  19.377  0.00  0.00    +0.000 NA
ATOM      4  N   UNK     1       2.683   5.872  18.974  0.00  0.00    +0.000 N 
ATOM      5  C   UNK     1       2.716   4.552  19.459  0.00  0.00    +0.000 A 
ATOM      6  N   UNK     1       3.825   3.855  19.627  0.00  0.00    +0.000 NA
ATOM      7  C   UNK     1       3.500   2.502  19.773  0.00  0.00    +0.000 A 
ATOM      8  C   UNK     1       2.150   2.223  19.703  0.00  0.00    +0.000 A 
ATOM      9  S   UNK     1       1.249   3.685  19.588  0.00  0.00    +0.000 S 
ATOM     10  C   UNK     1       3.585   6.502  18.114  0.00  0.00    +0.000 A 
ENDROOT
BRANCH   2  11
ATOM     11  C   UNK     1       1.144   9.070  19.190  0.00  0.00    +0.000 A 
ATOM     12  C   UNK     1       0.511   9.797  18.170  0.00  0.00    +0.000 A 
ATOM     13  C   UNK     1      -0.248  10.934  18.464  0.00  0.00    +0.000 A 
ATOM     14  C   UNK     1      -0.406  11.345  19.785  0.00  0.00    +0.000 A 
ATOM     15  C   UNK     1       0.189  10.617  20.813  0.00  0.00    +0.000 A 
ATOM     16  C   UNK     1       0.960   9.487  20.518  0.00  0.00    +0.000 A 
ENDBRANCH   2  11
BRANCH  10  17
ATOM     17  C   UNK     1       4.695   5.814  17.419  0.00  0.00    +0.000 A 
ATOM     18  C   UNK     1       4.457   4.949  16.335  0.00  0.00    +0.000 A 
ATOM     19  C   UNK     1       5.486   4.198  15.763  0.00  0.00    +0.000 A 
ATOM     20  C   UNK     1       6.793   4.372  16.200  0.00  0.00    +0.000 A 
ATOM     21  C   UNK     1       7.065   5.292  17.210  0.00  0.00    +0.000 A 
ATOM     22  C   UNK     1       6.023   5.989  17.830  0.00  0.00    +0.000 A 
ENDBRANCH  10  17
BRANCH   1  23
ATOM     23  N   UNK     1       3.769   8.814  17.405  0.00  0.00    +0.000 N 
ATOM     24  H   UNK     1       3.810   8.848  16.391  0.00  0.00    +0.000 HD
ATOM     25  H   UNK     1       4.280   9.560  17.867  0.00  0.00    +0.000 HD
ENDBRANCH   1  23
BRANCH   7  26
ATOM     26  C   UNK     1       4.563   1.511  19.926  0.00  0.00    +0.000 C 
ATOM     27  O   UNK     1       5.373   1.499  20.842  0.00  0.00    +0.000 OA
BRANCH  26  28
ATOM     28  O   UNK     1       4.554   0.587  18.928  0.00  0.00    +0.000 OA
ATOM     29  H   UNK     1       5.147   0.908  18.207  0.00  0.00    +0.000 HD
ENDBRANCH  26  28
ENDBRANCH   7  26
TORSDOF 5
ENDMDL
MODEL 9
REMARK VINA RESULT:      -6.6      7.476     10.648
REMARK  Name = 
REMARK  5 active torsions:
REMARK  status: ('A' for Active; 'I' for Inactive)
REMARK    1  A    between atoms: N_1  and  C_2
REMARK    2  A    between atoms: C_3  and  C_4
REMARK    3  A    between atoms: C_14  and  C_15
REMARK    4  A    between atoms: C_15  and  O_17
REMARK    5  A    between atoms: C_20  and  C_21
REMARK                            x       y       z     vdW  Elec       q    Type
REMARK                         _______ _______ _______ _____ _____    ______ ____
ROOT
ATOM      1  C   UNK     1      -2.864  12.039  18.733  0.00  0.00    +0.000 A 
ATOM      2  C   UNK     1      -1.667  11.862  19.493  0.00  0.00    +0.000 A 
ATOM      3  N   UNK     1      -1.893  12.148  20.785  0.00  0.00    +0.000 NA
ATOM      4  N   UNK     1      -3.225  12.408  20.865  0.00  0.00    +0.000 N 
ATOM      5  C   UNK     1      -3.799  12.601  22.135  0.00  0.00    +0.000 A 
ATOM      6  N   UNK     1      -5.055  12.314  22.429  0.00  0.00    +0.000 NA
ATOM      7  C   UNK     1      -5.399  12.940  23.632  0.00  0.00    +0.000 A 
ATOM      8  C   UNK     1      -4.388  13.685  24.204  0.00  0.00    +0.000 A 
ATOM      9  S   UNK     1      -2.934  13.501  23.301  0.00  0.00    +0.000 S 
ATOM     10  C   UNK     1      -3.854  12.428  19.618  0.00  0.00    +0.000 A 
ENDROOT
BRANCH   2  11
ATOM     11  C   UNK     1      -0.329  11.454  19.036  0.00  0.00    +0.000 A 
ATOM     12  C   UNK     1       0.736  12.366  18.985  0.00  0.00    +0.000 A 
ATOM     13  C   UNK     1       1.991  11.979  18.506  0.00  0.00    +0.000 A 
ATOM     14  C   UNK     1       2.206  10.666  18.096  0.00  0.00    +0.000 A 
ATOM     15  C   UNK     1       1.169   9.738  18.169  0.00  0.00    +0.000 A 
ATOM     16  C   UNK     1      -0.091  10.129  18.635  0.00  0.00    +0.000 A 
ENDBRANCH   2  11
BRANCH  10  17
ATOM     17  C   UNK     1      -5.264  12.819  19.400  0.00  0.00    +0.000 A 
ATOM     18  C   UNK     1      -6.239  11.872  19.036  0.00  0.00    +0.000 A 
ATOM     19  C   UNK     1      -7.539  12.258  18.702  0.00  0.00    +0.000 A 
ATOM     20  C   UNK     1      -7.916  13.590  18.821  0.00  0.00    +0.000 A 
ATOM     21  C   UNK     1      -6.992  14.531  19.269  0.00  0.00    +0.000 A 
ATOM     22  C   UNK     1      -5.672  14.153  19.533  0.00  0.00    +0.000 A 
ENDBRANCH  10  17
BRANCH   1  23
ATOM     23  N   UNK     1      -3.031  11.878  17.404  0.00  0.00    +0.000 N 
ATOM     24  H   UNK     1      -2.491  12.389  16.712  0.00  0.00    +0.000 HD
ATOM     25  H   UNK     1      -3.753  11.282  17.011  0.00  0.00    +0.000 HD
ENDBRANCH   1  23
BRANCH   7  26
ATOM     26  C   UNK     1      -6.758  12.816  24.153  0.00  0.00    +0.000 C 
ATOM     27  O   UNK     1      -7.405  11.777  24.165  0.00  0.00    +0.000 OA
BRANCH  26  28
ATOM     28  O   UNK     1      -7.236  13.995  24.632  0.00  0.00    +0.000 OA
ATOM     29  H   UNK     1      -7.562  13.843  25.551  0.00  0.00    +0.000 HD
ENDBRANCH  26  28
ENDBRANCH   7  26
TORSDOF 5
ENDMDL
