MODEL 1
REMARK VINA RESULT:      -9.4      0.000      0.000
REMARK  Name = 
REMARK  0 active torsions:
REMARK  status: ('A' for Active; 'I' for Inactive)
REMARK                            x       y       z     vdW  Elec       q    Type
REMARK                         _______ _______ _______ _____ _____    ______ ____
ROOT
ATOM      1  C   UNL     1       1.075   3.486  19.561  0.00  0.00    +0.000 A 
ATOM      2  C   UNL     1       1.791   4.270  20.468  0.00  0.00    +0.000 A 
ATOM      3  C   UNL     1       3.020   4.814  20.103  0.00  0.00    +0.000 A 
ATOM      4  C   UNL     1       3.537   4.560  18.817  0.00  0.00    +0.000 A 
ATOM      5  C   UNL     1       2.809   3.773  17.915  0.00  0.00    +0.000 A 
ATOM      6  C   UNL     1       1.566   3.222  18.272  0.00  0.00    +0.000 A 
ATOM      7  N   UNL     1       3.549   3.708  16.732  0.00  0.00    +0.000 N 
ATOM      8  C   UNL     1       4.681   4.420  16.887  0.00  0.00    +0.000 A 
ATOM      9  C   UNL     1       4.720   4.956  18.155  0.00  0.00    +0.000 A 
ATOM     10  N   UNL     1       5.739   5.733  18.600  0.00  0.00    +0.000 NA
ATOM     11  C   UNL     1       6.742   6.001  17.741  0.00  0.00    +0.000 A 
ATOM     12  C   UNL     1       6.723   5.498  16.449  0.00  0.00    +0.000 A 
ATOM     13  N   UNL     1       7.587   5.646  15.406  0.00  0.00    +0.000 N 
ATOM     14  C   UNL     1       7.122   4.987  14.290  0.00  0.00    +0.000 A 
ATOM     15  C   UNL     1       7.685   4.958  13.009  0.00  0.00    +0.000 A 
ATOM     16  C   UNL     1       7.041   4.201  12.036  0.00  0.00    +0.000 A 
ATOM     17  C   UNL     1       5.892   3.480  12.350  0.00  0.00    +0.000 A 
ATOM     18  C   UNL     1       5.329   3.522  13.641  0.00  0.00    +0.000 A 
ATOM     19  C   UNL     1       5.937   4.312  14.640  0.00  0.00    +0.000 A 
ATOM     20  C   UNL     1       5.695   4.683  16.008  0.00  0.00    +0.000 A 
ATOM     21  H   UNL     1       3.250   3.216  15.904  0.00  0.00    +0.000 HD
ATOM     22  H   UNL     1       8.439   6.190  15.430  0.00  0.00    +0.000 HD
ENDROOT
TORSDOF 0
ENDMDL
MODEL 2
REMARK VINA RESULT:      -8.4      0.856      6.023
REMARK  Name = 
REMARK  0 active torsions:
REMARK  status: ('A' for Active; 'I' for Inactive)
REMARK                            x       y       z     vdW  Elec       q    Type
REMARK                         _______ _______ _______ _____ _____    ______ ____
ROOT
ATOM      1  C   UNL     1       6.737   3.805  11.850  0.00  0.00    +0.000 A 
ATOM      2  C   UNL     1       7.796   4.614  12.267  0.00  0.00    +0.000 A 
ATOM      3  C   UNL     1       7.792   5.169  13.543  0.00  0.00    +0.000 A 
ATOM      4  C   UNL     1       6.707   4.915  14.406  0.00  0.00    +0.000 A 
ATOM      5  C   UNL     1       5.650   4.101  13.979  0.00  0.00    +0.000 A 
ATOM      6  C   UNL     1       5.647   3.533  12.693  0.00  0.00    +0.000 A 
ATOM      7  N   UNL     1       4.740   4.014  15.035  0.00  0.00    +0.000 N 
ATOM      8  C   UNL     1       5.206   4.737  16.071  0.00  0.00    +0.000 A 
ATOM      9  C   UNL     1       6.409   5.314  15.728  0.00  0.00    +0.000 A 
ATOM     10  N   UNL     1       7.126   6.094  16.577  0.00  0.00    +0.000 NA
ATOM     11  C   UNL     1       6.633   6.285  17.816  0.00  0.00    +0.000 A 
ATOM     12  C   UNL     1       5.438   5.699  18.203  0.00  0.00    +0.000 A 
ATOM     13  N   UNL     1       4.759   5.719  19.385  0.00  0.00    +0.000 N 
ATOM     14  C   UNL     1       3.624   4.943  19.308  0.00  0.00    +0.000 A 
ATOM     15  C   UNL     1       2.707   4.655  20.325  0.00  0.00    +0.000 A 
ATOM     16  C   UNL     1       1.615   3.855  20.004  0.00  0.00    +0.000 A 
ATOM     17  C   UNL     1       1.441   3.388  18.704  0.00  0.00    +0.000 A 
ATOM     18  C   UNL     1       2.374   3.678  17.690  0.00  0.00    +0.000 A 
ATOM     19  C   UNL     1       3.513   4.455  17.993  0.00  0.00    +0.000 A 
ATOM     20  C   UNL     1       4.697   4.927  17.326  0.00  0.00    +0.000 A 
ATOM     21  H   UNL     1       3.889   3.475  15.006  0.00  0.00    +0.000 HD
ATOM     22  H   UNL     1       5.058   6.207  20.218  0.00  0.00    +0.000 HD
ENDROOT
TORSDOF 0
ENDMDL
MODEL 3
REMARK VINA RESULT:      -8.1      4.796      8.167
REMARK  Name = 
REMARK  0 active torsions:
REMARK  status: ('A' for Active; 'I' for Inactive)
REMARK                            x       y       z     vdW  Elec       q    Type
REMARK                         _______ _______ _______ _____ _____    ______ ____
ROOT
ATOM      1  C   UNL     1       4.162   3.791  19.036  0.00  0.00    +0.000 A 
ATOM      2  C   UNL     1       4.456   4.376  17.802  0.00  0.00    +0.000 A 
ATOM      3  C   UNL     1       3.967   5.643  17.495  0.00  0.00    +0.000 A 
ATOM      4  C   UNL     1       3.168   6.325  18.435  0.00  0.00    +0.000 A 
ATOM      5  C   UNL     1       2.881   5.730  19.670  0.00  0.00    +0.000 A 
ATOM      6  C   UNL     1       3.372   4.452  19.991  0.00  0.00    +0.000 A 
ATOM      7  N   UNL     1       2.096   6.631  20.392  0.00  0.00    +0.000 N 
ATOM      8  C   UNL     1       1.904   7.736  19.646  0.00  0.00    +0.000 A 
ATOM      9  C   UNL     1       2.539   7.590  18.432  0.00  0.00    +0.000 A 
ATOM     10  N   UNL     1       2.532   8.548  17.472  0.00  0.00    +0.000 NA
ATOM     11  C   UNL     1       1.885   9.698  17.742  0.00  0.00    +0.000 A 
ATOM     12  C   UNL     1       1.256   9.889  18.963  0.00  0.00    +0.000 A 
ATOM     13  N   UNL     1       0.573  10.952  19.475  0.00  0.00    +0.000 N 
ATOM     14  C   UNL     1       0.161  10.691  20.763  0.00  0.00    +0.000 A 
ATOM     15  C   UNL     1      -0.503  11.551  21.645  0.00  0.00    +0.000 A 
ATOM     16  C   UNL     1      -0.839  11.056  22.901  0.00  0.00    +0.000 A 
ATOM     17  C   UNL     1      -0.542   9.739  23.242  0.00  0.00    +0.000 A 
ATOM     18  C   UNL     1       0.133   8.885  22.349  0.00  0.00    +0.000 A 
ATOM     19  C   UNL     1       0.522   9.369  21.082  0.00  0.00    +0.000 A 
ATOM     20  C   UNL     1       1.243   8.899  19.929  0.00  0.00    +0.000 A 
ATOM     21  H   UNL     1       1.758   6.464  21.328  0.00  0.00    +0.000 HD
ATOM     22  H   UNL     1       0.416  11.827  18.994  0.00  0.00    +0.000 HD
ENDROOT
TORSDOF 0
ENDMDL
MODEL 4
REMARK VINA RESULT:      -7.9      2.982      4.107
REMARK  Name = 
REMARK  0 active torsions:
REMARK  status: ('A' for Active; 'I' for Inactive)
REMARK                            x       y       z     vdW  Elec       q    Type
REMARK                         _______ _______ _______ _____ _____    ______ ____
ROOT
ATOM      1  C   UNL     1       0.754  10.205  19.835  0.00  0.00    +0.000 A 
ATOM      2  C   UNL     1       0.505   9.371  20.927  0.00  0.00    +0.000 A 
ATOM      3  C   UNL     1       1.041   8.086  20.962  0.00  0.00    +0.000 A 
ATOM      4  C   UNL     1       1.828   7.634  19.884  0.00  0.00    +0.000 A 
ATOM      5  C   UNL     1       2.073   8.480  18.795  0.00  0.00    +0.000 A 
ATOM      6  C   UNL     1       1.539   9.779  18.751  0.00  0.00    +0.000 A 
ATOM      7  N   UNL     1       2.885   7.779  17.900  0.00  0.00    +0.000 N 
ATOM      8  C   UNL     1       3.137   6.557  18.407  0.00  0.00    +0.000 A 
ATOM      9  C   UNL     1       2.502   6.420  19.622  0.00  0.00    +0.000 A 
ATOM     10  N   UNL     1       2.581   5.296  20.377  0.00  0.00    +0.000 NA
ATOM     11  C   UNL     1       3.337   4.283  19.912  0.00  0.00    +0.000 A 
ATOM     12  C   UNL     1       4.010   4.395  18.704  0.00  0.00    +0.000 A 
ATOM     13  N   UNL     1       4.842   3.539  18.047  0.00  0.00    +0.000 N 
ATOM     14  C   UNL     1       5.311   4.111  16.886  0.00  0.00    +0.000 A 
ATOM     15  C   UNL     1       6.236   3.582  15.978  0.00  0.00    +0.000 A 
ATOM     16  C   UNL     1       6.547   4.343  14.856  0.00  0.00    +0.000 A 
ATOM     17  C   UNL     1       5.931   5.573  14.644  0.00  0.00    +0.000 A 
ATOM     18  C   UNL     1       5.009   6.100  15.569  0.00  0.00    +0.000 A 
ATOM     19  C   UNL     1       4.701   5.370  16.738  0.00  0.00    +0.000 A 
ATOM     20  C   UNL     1       3.905   5.533  17.925  0.00  0.00    +0.000 A 
ATOM     21  H   UNL     1       3.229   8.158  17.031  0.00  0.00    +0.000 HD
ATOM     22  H   UNL     1       5.107   2.620  18.375  0.00  0.00    +0.000 HD
ENDROOT
TORSDOF 0
ENDMDL
MODEL 5
REMARK VINA RESULT:      -7.8      4.411      6.769
REMARK  Name = 
REMARK  0 active torsions:
REMARK  status: ('A' for Active; 'I' for Inactive)
REMARK                            x       y       z     vdW  Elec       q    Type
REMARK                         _______ _______ _______ _____ _____    ______ ____
ROOT
ATOM      1  C   UNL     1      -0.635  10.861  22.806  0.00  0.00    +0.000 A 
ATOM      2  C   UNL     1      -0.394  11.633  21.668  0.00  0.00    +0.000 A 
ATOM      3  C   UNL     1       0.291  11.088  20.586  0.00  0.00    +0.000 A 
ATOM      4  C   UNL     1       0.747   9.756  20.653  0.00  0.00    +0.000 A 
ATOM      5  C   UNL     1       0.499   8.990  21.799  0.00  0.00    +0.000 A 
ATOM      6  C   UNL     1      -0.195   9.530  22.896  0.00  0.00    +0.000 A 
ATOM      7  N   UNL     1       1.043   7.723  21.577  0.00  0.00    +0.000 N 
ATOM      8  C   UNL     1       1.602   7.698  20.351  0.00  0.00    +0.000 A 
ATOM      9  C   UNL     1       1.450   8.928  19.749  0.00  0.00    +0.000 A 
ATOM     10  N   UNL     1       1.903   9.203  18.501  0.00  0.00    +0.000 NA
ATOM     11  C   UNL     1       2.511   8.209  17.824  0.00  0.00    +0.000 A 
ATOM     12  C   UNL     1       2.659   6.952  18.390  0.00  0.00    +0.000 A 
ATOM     13  N   UNL     1       3.202   5.799  17.907  0.00  0.00    +0.000 N 
ATOM     14  C   UNL     1       3.082   4.782  18.827  0.00  0.00    +0.000 A 
ATOM     15  C   UNL     1       3.451   3.439  18.681  0.00  0.00    +0.000 A 
ATOM     16  C   UNL     1       3.250   2.591  19.765  0.00  0.00    +0.000 A 
ATOM     17  C   UNL     1       2.724   3.083  20.957  0.00  0.00    +0.000 A 
ATOM     18  C   UNL     1       2.349   4.434  21.091  0.00  0.00    +0.000 A 
ATOM     19  C   UNL     1       2.504   5.312  19.996  0.00  0.00    +0.000 A 
ATOM     20  C   UNL     1       2.219   6.684  19.674  0.00  0.00    +0.000 A 
ATOM     21  H   UNL     1       0.994   6.962  22.237  0.00  0.00    +0.000 HD
ATOM     22  H   UNL     1       3.609   5.689  16.988  0.00  0.00    +0.000 HD
ENDROOT
TORSDOF 0
ENDMDL
MODEL 6
REMARK VINA RESULT:      -7.5      4.193      6.930
REMARK  Name = 
REMARK  0 active torsions:
REMARK  status: ('A' for Active; 'I' for Inactive)
REMARK                            x       y       z     vdW  Elec       q    Type
REMARK                         _______ _______ _______ _____ _____    ______ ____
ROOT
ATOM      1  C   UNL     1       2.970   2.570  21.335  0.00  0.00    +0.000 A 
ATOM      2  C   UNL     1       3.799   2.493  20.214  0.00  0.00    +0.000 A 
ATOM      3  C   UNL     1       3.897   3.574  19.341  0.00  0.00    +0.000 A 
ATOM      4  C   UNL     1       3.147   4.741  19.595  0.00  0.00    +0.000 A 
ATOM      5  C   UNL     1       2.320   4.807  20.723  0.00  0.00    +0.000 A 
ATOM      6  C   UNL     1       2.216   3.723  21.612  0.00  0.00    +0.000 A 
ATOM      7  N   UNL     1       1.723   6.070  20.726  0.00  0.00    +0.000 N 
ATOM      8  C   UNL     1       2.158   6.759  19.653  0.00  0.00    +0.000 A 
ATOM      9  C   UNL     1       3.030   5.978  18.926  0.00  0.00    +0.000 A 
ATOM     10  N   UNL     1       3.640   6.409  17.793  0.00  0.00    +0.000 NA
ATOM     11  C   UNL     1       3.386   7.668  17.386  0.00  0.00    +0.000 A 
ATOM     12  C   UNL     1       2.533   8.489  18.108  0.00  0.00    +0.000 A 
ATOM     13  N   UNL     1       2.147   9.782  17.921  0.00  0.00    +0.000 N 
ATOM     14  C   UNL     1       1.309  10.191  18.935  0.00  0.00    +0.000 A 
ATOM     15  C   UNL     1       0.758  11.462  19.137  0.00  0.00    +0.000 A 
ATOM     16  C   UNL     1      -0.083  11.636  20.231  0.00  0.00    +0.000 A 
ATOM     17  C   UNL     1      -0.379  10.565  21.070  0.00  0.00    +0.000 A 
ATOM     18  C   UNL     1       0.187   9.292  20.862  0.00  0.00    +0.000 A 
ATOM     19  C   UNL     1       1.075   9.093  19.783  0.00  0.00    +0.000 A 
ATOM     20  C   UNL     1       1.892   8.037  19.248  0.00  0.00    +0.000 A 
ATOM     21  H   UNL     1       1.088   6.395  21.439  0.00  0.00    +0.000 HD
ATOM     22  H   UNL     1       2.453  10.376  17.163  0.00  0.00    +0.000 HD
ENDROOT
TORSDOF 0
ENDMDL
MODEL 7
REMARK VINA RESULT:      -7.4      3.219      6.699
REMARK  Name = 
REMARK  0 active torsions:
REMARK  status: ('A' for Active; 'I' for Inactive)
REMARK                            x       y       z     vdW  Elec       q    Type
REMARK                         _______ _______ _______ _____ _____    ______ ____
ROOT
ATOM      1  C   UNL     1       6.287   4.756  14.461  0.00  0.00    +0.000 A 
ATOM      2  C   UNL     1       6.325   3.638  15.298  0.00  0.00    +0.000 A 
ATOM      3  C   UNL     1       5.654   3.655  16.518  0.00  0.00    +0.000 A 
ATOM      4  C   UNL     1       4.943   4.809  16.903  0.00  0.00    +0.000 A 
ATOM      5  C   UNL     1       4.910   5.924  16.055  0.00  0.00    +0.000 A 
ATOM      6  C   UNL     1       5.582   5.916  14.821  0.00  0.00    +0.000 A 
ATOM      7  N   UNL     1       4.128   6.898  16.681  0.00  0.00    +0.000 N 
ATOM      8  C   UNL     1       3.694   6.414  17.861  0.00  0.00    +0.000 A 
ATOM      9  C   UNL     1       4.176   5.136  18.042  0.00  0.00    +0.000 A 
ATOM     10  N   UNL     1       3.895   4.388  19.138  0.00  0.00    +0.000 NA
ATOM     11  C   UNL     1       3.089   4.926  20.074  0.00  0.00    +0.000 A 
ATOM     12  C   UNL     1       2.566   6.201  19.912  0.00  0.00    +0.000 A 
ATOM     13  N   UNL     1       1.723   6.940  20.686  0.00  0.00    +0.000 N 
ATOM     14  C   UNL     1       1.446   8.148  20.088  0.00  0.00    +0.000 A 
ATOM     15  C   UNL     1       0.573   9.149  20.532  0.00  0.00    +0.000 A 
ATOM     16  C   UNL     1       0.468  10.303  19.762  0.00  0.00    +0.000 A 
ATOM     17  C   UNL     1       1.232  10.453  18.608  0.00  0.00    +0.000 A 
ATOM     18  C   UNL     1       2.101   9.436  18.166  0.00  0.00    +0.000 A 
ATOM     19  C   UNL     1       2.201   8.237  18.904  0.00  0.00    +0.000 A 
ATOM     20  C   UNL     1       2.877   6.971  18.805  0.00  0.00    +0.000 A 
ATOM     21  H   UNL     1       3.923   7.801  16.283  0.00  0.00    +0.000 HD
ATOM     22  H   UNL     1       1.327   6.637  21.566  0.00  0.00    +0.000 HD
ENDROOT
TORSDOF 0
ENDMDL
MODEL 8
REMARK VINA RESULT:      -7.4      3.503      5.032
REMARK  Name = 
REMARK  0 active torsions:
REMARK  status: ('A' for Active; 'I' for Inactive)
REMARK                            x       y       z     vdW  Elec       q    Type
REMARK                         _______ _______ _______ _____ _____    ______ ____
ROOT
ATOM      1  C   UNL     1       0.162  10.726  20.848  0.00  0.00    +0.000 A 
ATOM      2  C   UNL     1      -0.193   9.820  21.850  0.00  0.00    +0.000 A 
ATOM      3  C   UNL     1       0.270   8.508  21.802  0.00  0.00    +0.000 A 
ATOM      4  C   UNL     1       1.091   8.101  20.731  0.00  0.00    +0.000 A 
ATOM      5  C   UNL     1       1.442   9.018  19.733  0.00  0.00    +0.000 A 
ATOM      6  C   UNL     1       0.983  10.346  19.773  0.00  0.00    +0.000 A 
ATOM      7  N   UNL     1       2.265   8.347  18.824  0.00  0.00    +0.000 N 
ATOM      8  C   UNL     1       2.421   7.075  19.237  0.00  0.00    +0.000 A 
ATOM      9  C   UNL     1       1.712   6.876  20.401  0.00  0.00    +0.000 A 
ATOM     10  N   UNL     1       1.688   5.690  21.060  0.00  0.00    +0.000 NA
ATOM     11  C   UNL     1       2.413   4.676  20.549  0.00  0.00    +0.000 A 
ATOM     12  C   UNL     1       3.158   4.849  19.393  0.00  0.00    +0.000 A 
ATOM     13  N   UNL     1       3.978   4.002  18.708  0.00  0.00    +0.000 N 
ATOM     14  C   UNL     1       4.543   4.640  17.626  0.00  0.00    +0.000 A 
ATOM     15  C   UNL     1       5.487   4.135  16.724  0.00  0.00    +0.000 A 
ATOM     16  C   UNL     1       5.902   4.967  15.689  0.00  0.00    +0.000 A 
ATOM     17  C   UNL     1       5.366   6.244  15.553  0.00  0.00    +0.000 A 
ATOM     18  C   UNL     1       4.422   6.746  16.471  0.00  0.00    +0.000 A 
ATOM     19  C   UNL     1       4.010   5.941  17.555  0.00  0.00    +0.000 A 
ATOM     20  C   UNL     1       3.158   6.051  18.709  0.00  0.00    +0.000 A 
ATOM     21  H   UNL     1       2.677   8.776  18.010  0.00  0.00    +0.000 HD
ATOM     22  H   UNL     1       4.174   3.046  18.969  0.00  0.00    +0.000 HD
ENDROOT
TORSDOF 0
ENDMDL
MODEL 9
REMARK VINA RESULT:      -7.1      4.023      5.396
REMARK  Name = 
REMARK  0 active torsions:
REMARK  status: ('A' for Active; 'I' for Inactive)
REMARK                            x       y       z     vdW  Elec       q    Type
REMARK                         _______ _______ _______ _____ _____    ______ ____
ROOT
ATOM      1  C   UNL     1       0.430  11.776  19.392  0.00  0.00    +0.000 A 
ATOM      2  C   UNL     1      -0.084  11.127  20.517  0.00  0.00    +0.000 A 
ATOM      3  C   UNL     1       0.251   9.800  20.772  0.00  0.00    +0.000 A 
ATOM      4  C   UNL     1       1.106   9.117  19.883  0.00  0.00    +0.000 A 
ATOM      5  C   UNL     1       1.617   9.779  18.760  0.00  0.00    +0.000 A 
ATOM      6  C   UNL     1       1.287  11.119  18.494  0.00  0.00    +0.000 A 
ATOM      7  N   UNL     1       2.436   8.872  18.081  0.00  0.00    +0.000 N 
ATOM      8  C   UNL     1       2.437   7.703  18.750  0.00  0.00    +0.000 A 
ATOM      9  C   UNL     1       1.628   7.805  19.860  0.00  0.00    +0.000 A 
ATOM     10  N   UNL     1       1.440   6.786  20.736  0.00  0.00    +0.000 NA
ATOM     11  C   UNL     1       2.099   5.634  20.505  0.00  0.00    +0.000 A 
ATOM     12  C   UNL     1       2.940   5.505  19.410  0.00  0.00    +0.000 A 
ATOM     13  N   UNL     1       3.723   4.473  18.985  0.00  0.00    +0.000 N 
ATOM     14  C   UNL     1       4.425   4.828  17.855  0.00  0.00    +0.000 A 
ATOM     15  C   UNL     1       5.379   4.074  17.162  0.00  0.00    +0.000 A 
ATOM     16  C   UNL     1       5.949   4.639  16.025  0.00  0.00    +0.000 A 
ATOM     17  C   UNL     1       5.551   5.900  15.590  0.00  0.00    +0.000 A 
ATOM     18  C   UNL     1       4.595   6.654  16.300  0.00  0.00    +0.000 A 
ATOM     19  C   UNL     1       4.028   6.125  17.479  0.00  0.00    +0.000 A 
ATOM     20  C   UNL     1       3.108   6.537  18.505  0.00  0.00    +0.000 A 
ATOM     21  H   UNL     1       2.947   9.091  17.240  0.00  0.00    +0.000 HD
ATOM     22  H   UNL     1       3.805   3.578  19.448  0.00  0.00    +0.000 HD
ENDROOT
TORSDOF 0
ENDMDL
