MODEL 1
REMARK VINA RESULT:      -7.1      0.000      0.000
REMARK  Name = 
REMARK  10 active torsions:
REMARK  status: ('A' for Active; 'I' for Inactive)
REMARK    1  A    between atoms: C_1  and  C_2
REMARK    2  A    between atoms: C_7  and  C_8
REMARK    3  A    between atoms: C_13  and  C_14
REMARK    4  A    between atoms: C_17  and  O_18
REMARK    5  A    between atoms: O_18  and  C_19
REMARK    6  A    between atoms: C_21  and  C_22
REMARK    7  A    between atoms: C_22  and  O_23
REMARK    8  A    between atoms: C_24  and  O_25
REMARK    9  A    between atoms: C_26  and  O_27
REMARK   10  A    between atoms: C_28  and  O_29
REMARK                            x       y       z     vdW  Elec       q    Type
REMARK                         _______ _______ _______ _____ _____    ______ ____
ROOT
ATOM      1  C   UNL     1       2.982   8.192  17.875  0.00  0.00    +0.000 C 
ATOM      2  C   UNL     1       2.072   8.525  19.026  0.00  0.00    +0.000 C 
ATOM      3  C   UNL     1       1.499   9.741  19.205  0.00  0.00    +0.000 C 
ATOM      4  C   UNL     1       1.720  11.012  18.453  0.00  0.00    +0.000 C 
ATOM      5  O   UNL     1       2.211  11.148  17.348  0.00  0.00    +0.000 OA
ATOM      6  O   UNL     1       1.255  12.037  19.227  0.00  0.00    +0.000 OA
ATOM      7  C   UNL     1       0.904  11.538  20.533  0.00  0.00    +0.000 C 
ATOM      8  C   UNL     1       0.511  10.076  20.279  0.00  0.00    +0.000 C 
ATOM      9  C   UNL     1      -0.898   9.953  19.650  0.00  0.00    +0.000 C 
ATOM     10  C   UNL     1       0.695   9.183  21.514  0.00  0.00    +0.000 C 
ATOM     11  C   UNL     1       0.915   7.705  21.185  0.00  0.00    +0.000 C 
ATOM     12  C   UNL     1       1.929   7.420  20.061  0.00  0.00    +0.000 C 
ENDROOT
BRANCH   7  13
ATOM     13  C   UNL     1      -0.124  12.393  21.219  0.00  0.00    +0.000 A 
ATOM     14  C   UNL     1      -0.666  12.231  22.532  0.00  0.00    +0.000 A 
ATOM     15  C   UNL     1      -1.552  13.264  22.730  0.00  0.00    +0.000 A 
ATOM     16  O   UNL     1      -1.592  14.063  21.636  0.00  0.00    +0.000 OA
ATOM     17  C   UNL     1      -0.726  13.539  20.733  0.00  0.00    +0.000 A 
ENDBRANCH   7  13
BRANCH  12  18
ATOM     18  O   UNL     1       1.568   6.192  19.413  0.00  0.00    +0.000 OA
BRANCH  18  19
ATOM     19  C   UNL     1       2.299   5.031  19.858  0.00  0.00    +0.000 C 
ATOM     20  O   UNL     1       3.604   5.087  19.303  0.00  0.00    +0.000 OA
ATOM     21  C   UNL     1       4.398   3.892  19.356  0.00  0.00    +0.000 C 
ATOM     22  C   UNL     1       3.665   2.692  18.742  0.00  0.00    +0.000 C 
ATOM     23  C   UNL     1       2.348   2.504  19.495  0.00  0.00    +0.000 C 
ATOM     24  C   UNL     1       1.503   3.776  19.403  0.00  0.00    +0.000 C 
BRANCH  22  25
ATOM     25  O   UNL     1       4.457   1.501  18.789  0.00  0.00    +0.000 OA
ATOM     26  H   UNL     1       4.535   1.190  19.706  0.00  0.00    +0.000 HD
ENDBRANCH  22  25
BRANCH  23  27
ATOM     27  O   UNL     1       1.601   1.383  18.990  0.00  0.00    +0.000 OA
ATOM     28  H   UNL     1       1.933   1.172  18.097  0.00  0.00    +0.000 HD
ENDBRANCH  23  27
BRANCH  24  29
ATOM     29  O   UNL     1       0.320   3.649  20.213  0.00  0.00    +0.000 OA
ATOM     30  H   UNL     1      -0.239   4.433  20.060  0.00  0.00    +0.000 HD
ENDBRANCH  24  29
BRANCH  21  31
ATOM     31  C   UNL     1       5.661   4.222  18.550  0.00  0.00    +0.000 C 
BRANCH  31  32
ATOM     32  O   UNL     1       5.568   3.599  17.266  0.00  0.00    +0.000 OA
ATOM     33  H   UNL     1       4.609   3.541  17.079  0.00  0.00    +0.000 HD
ENDBRANCH  31  32
ENDBRANCH  21  31
ENDBRANCH  18  19
ENDBRANCH  12  18
TORSDOF 8
ENDMDL
MODEL 2
REMARK VINA RESULT:      -7.1      2.109      8.810
REMARK  Name = 
REMARK  10 active torsions:
REMARK  status: ('A' for Active; 'I' for Inactive)
REMARK    1  A    between atoms: C_1  and  C_2
REMARK    2  A    between atoms: C_7  and  C_8
REMARK    3  A    between atoms: C_13  and  C_14
REMARK    4  A    between atoms: C_17  and  O_18
REMARK    5  A    between atoms: O_18  and  C_19
REMARK    6  A    between atoms: C_21  and  C_22
REMARK    7  A    between atoms: C_22  and  O_23
REMARK    8  A    between atoms: C_24  and  O_25
REMARK    9  A    between atoms: C_26  and  O_27
REMARK   10  A    between atoms: C_28  and  O_29
REMARK                            x       y       z     vdW  Elec       q    Type
REMARK                         _______ _______ _______ _____ _____    ______ ____
ROOT
ATOM      1  C   UNL     1       1.105   7.531  21.603  0.00  0.00    +0.000 C 
ATOM      2  C   UNL     1       1.655   7.562  20.202  0.00  0.00    +0.000 C 
ATOM      3  C   UNL     1       2.389   6.559  19.660  0.00  0.00    +0.000 C 
ATOM      4  C   UNL     1       2.929   5.324  20.303  0.00  0.00    +0.000 C 
ATOM      5  O   UNL     1       2.569   4.810  21.346  0.00  0.00    +0.000 OA
ATOM      6  O   UNL     1       3.921   4.839  19.500  0.00  0.00    +0.000 OA
ATOM      7  C   UNL     1       4.199   5.785  18.448  0.00  0.00    +0.000 C 
ATOM      8  C   UNL     1       2.864   6.513  18.240  0.00  0.00    +0.000 C 
ATOM      9  C   UNL     1       1.847   5.652  17.452  0.00  0.00    +0.000 C 
ATOM     10  C   UNL     1       3.035   7.923  17.657  0.00  0.00    +0.000 C 
ATOM     11  C   UNL     1       1.888   8.877  17.992  0.00  0.00    +0.000 C 
ATOM     12  C   UNL     1       1.429   8.871  19.463  0.00  0.00    +0.000 C 
ENDROOT
BRANCH   7  13
ATOM     13  C   UNL     1       4.796   5.133  17.232  0.00  0.00    +0.000 A 
ATOM     14  C   UNL     1       5.332   5.769  16.069  0.00  0.00    +0.000 A 
ATOM     15  C   UNL     1       5.784   4.770  15.238  0.00  0.00    +0.000 A 
ATOM     16  O   UNL     1       5.575   3.558  15.807  0.00  0.00    +0.000 OA
ATOM     17  C   UNL     1       4.986   3.782  17.008  0.00  0.00    +0.000 A 
ENDBRANCH   7  13
BRANCH  12  18
ATOM     18  O   UNL     1       0.040   9.224  19.515  0.00  0.00    +0.000 OA
BRANCH  18  19
ATOM     19  C   UNL     1      -0.237  10.633  19.367  0.00  0.00    +0.000 C 
ATOM     20  O   UNL     1      -0.390  11.194  20.660  0.00  0.00    +0.000 OA
ATOM     21  C   UNL     1      -0.971  12.505  20.750  0.00  0.00    +0.000 C 
ATOM     22  C   UNL     1      -2.323  12.578  20.029  0.00  0.00    +0.000 C 
ATOM     23  C   UNL     1      -2.108  12.176  18.570  0.00  0.00    +0.000 C 
ATOM     24  C   UNL     1      -1.515  10.768  18.495  0.00  0.00    +0.000 C 
BRANCH  22  25
ATOM     25  O   UNL     1      -2.907  13.881  20.121  0.00  0.00    +0.000 OA
ATOM     26  H   UNL     1      -3.547  13.908  20.852  0.00  0.00    +0.000 HD
ENDBRANCH  22  25
BRANCH  23  27
ATOM     27  O   UNL     1      -3.331  12.234  17.816  0.00  0.00    +0.000 OA
ATOM     28  H   UNL     1      -3.254  11.620  17.062  0.00  0.00    +0.000 HD
ENDBRANCH  23  27
BRANCH  24  29
ATOM     29  O   UNL     1      -1.195  10.434  17.132  0.00  0.00    +0.000 OA
ATOM     30  H   UNL     1      -1.927  10.740  16.564  0.00  0.00    +0.000 HD
ENDBRANCH  24  29
BRANCH  21  31
ATOM     31  C   UNL     1      -1.145  12.758  22.253  0.00  0.00    +0.000 C 
BRANCH  31  32
ATOM     32  O   UNL     1      -0.503  11.706  22.977  0.00  0.00    +0.000 OA
ATOM     33  H   UNL     1      -1.156  11.422  23.649  0.00  0.00    +0.000 HD
ENDBRANCH  31  32
ENDBRANCH  21  31
ENDBRANCH  18  19
ENDBRANCH  12  18
TORSDOF 8
ENDMDL
MODEL 3
REMARK VINA RESULT:      -6.6      1.779      3.335
REMARK  Name = 
REMARK  10 active torsions:
REMARK  status: ('A' for Active; 'I' for Inactive)
REMARK    1  A    between atoms: C_1  and  C_2
REMARK    2  A    between atoms: C_7  and  C_8
REMARK    3  A    between atoms: C_13  and  C_14
REMARK    4  A    between atoms: C_17  and  O_18
REMARK    5  A    between atoms: O_18  and  C_19
REMARK    6  A    between atoms: C_21  and  C_22
REMARK    7  A    between atoms: C_22  and  O_23
REMARK    8  A    between atoms: C_24  and  O_25
REMARK    9  A    between atoms: C_26  and  O_27
REMARK   10  A    between atoms: C_28  and  O_29
REMARK                            x       y       z     vdW  Elec       q    Type
REMARK                         _______ _______ _______ _____ _____    ______ ____
ROOT
ATOM      1  C   UNL     1       1.127   7.201  21.214  0.00  0.00    +0.000 C 
ATOM      2  C   UNL     1       1.190   8.377  20.276  0.00  0.00    +0.000 C 
ATOM      3  C   UNL     1       0.682   9.600  20.568  0.00  0.00    +0.000 C 
ATOM      4  C   UNL     1      -0.139  10.031  21.740  0.00  0.00    +0.000 C 
ATOM      5  O   UNL     1      -0.257   9.468  22.813  0.00  0.00    +0.000 OA
ATOM      6  O   UNL     1      -0.749  11.207  21.407  0.00  0.00    +0.000 OA
ATOM      7  C   UNL     1      -0.527  11.490  20.011  0.00  0.00    +0.000 C 
ATOM      8  C   UNL     1       0.816  10.815  19.703  0.00  0.00    +0.000 C 
ATOM      9  C   UNL     1       2.015  11.627  20.249  0.00  0.00    +0.000 C 
ATOM     10  C   UNL     1       0.971  10.439  18.223  0.00  0.00    +0.000 C 
ATOM     11  C   UNL     1       1.937   9.278  17.975  0.00  0.00    +0.000 C 
ATOM     12  C   UNL     1       1.765   8.062  18.904  0.00  0.00    +0.000 C 
ENDROOT
BRANCH   7  13
ATOM     13  C   UNL     1      -0.620  12.958  19.700  0.00  0.00    +0.000 A 
ATOM     14  C   UNL     1      -0.936  14.027  20.595  0.00  0.00    +0.000 A 
ATOM     15  C   UNL     1      -0.877  15.192  19.866  0.00  0.00    +0.000 A 
ATOM     16  O   UNL     1      -0.535  14.923  18.583  0.00  0.00    +0.000 OA
ATOM     17  C   UNL     1      -0.376  13.579  18.489  0.00  0.00    +0.000 A 
ENDBRANCH   7  13
BRANCH  12  18
ATOM     18  O   UNL     1       3.032   7.408  19.049  0.00  0.00    +0.000 OA
BRANCH  18  19
ATOM     19  C   UNL     1       3.193   6.210  18.260  0.00  0.00    +0.000 C 
ATOM     20  O   UNL     1       2.244   5.254  18.703  0.00  0.00    +0.000 OA
ATOM     21  C   UNL     1       2.423   3.895  18.278  0.00  0.00    +0.000 C 
ATOM     22  C   UNL     1       3.826   3.373  18.616  0.00  0.00    +0.000 C 
ATOM     23  C   UNL     1       4.849   4.292  17.948  0.00  0.00    +0.000 C 
ATOM     24  C   UNL     1       4.660   5.730  18.435  0.00  0.00    +0.000 C 
BRANCH  22  25
ATOM     25  O   UNL     1       4.006   2.016  18.197  0.00  0.00    +0.000 OA
ATOM     26  H   UNL     1       4.508   1.989  17.365  0.00  0.00    +0.000 HD
ENDBRANCH  22  25
BRANCH  23  27
ATOM     27  O   UNL     1       6.198   3.861  18.202  0.00  0.00    +0.000 OA
ATOM     28  H   UNL     1       6.797   4.382  17.635  0.00  0.00    +0.000 HD
ENDBRANCH  23  27
BRANCH  24  29
ATOM     29  O   UNL     1       5.537   6.618  17.719  0.00  0.00    +0.000 OA
ATOM     30  H   UNL     1       6.117   6.079  17.148  0.00  0.00    +0.000 HD
ENDBRANCH  24  29
BRANCH  21  31
ATOM     31  C   UNL     1       1.354   3.099  19.037  0.00  0.00    +0.000 C 
BRANCH  31  32
ATOM     32  O   UNL     1       1.301   1.772  18.507  0.00  0.00    +0.000 OA
ATOM     33  H   UNL     1       0.873   1.234  19.205  0.00  0.00    +0.000 HD
ENDBRANCH  31  32
ENDBRANCH  21  31
ENDBRANCH  18  19
ENDBRANCH  12  18
TORSDOF 8
ENDMDL
MODEL 4
REMARK VINA RESULT:      -6.5      1.438      2.548
REMARK  Name = 
REMARK  10 active torsions:
REMARK  status: ('A' for Active; 'I' for Inactive)
REMARK    1  A    between atoms: C_1  and  C_2
REMARK    2  A    between atoms: C_7  and  C_8
REMARK    3  A    between atoms: C_13  and  C_14
REMARK    4  A    between atoms: C_17  and  O_18
REMARK    5  A    between atoms: O_18  and  C_19
REMARK    6  A    between atoms: C_21  and  C_22
REMARK    7  A    between atoms: C_22  and  O_23
REMARK    8  A    between atoms: C_24  and  O_25
REMARK    9  A    between atoms: C_26  and  O_27
REMARK   10  A    between atoms: C_28  and  O_29
REMARK                            x       y       z     vdW  Elec       q    Type
REMARK                         _______ _______ _______ _____ _____    ______ ____
ROOT
ATOM      1  C   UNL     1       3.175   8.457  17.326  0.00  0.00    +0.000 C 
ATOM      2  C   UNL     1       2.277   8.353  18.530  0.00  0.00    +0.000 C 
ATOM      3  C   UNL     1       1.683   9.420  19.120  0.00  0.00    +0.000 C 
ATOM      4  C   UNL     1       1.865  10.877  18.847  0.00  0.00    +0.000 C 
ATOM      5  O   UNL     1       2.335  11.395  17.850  0.00  0.00    +0.000 OA
ATOM      6  O   UNL     1       1.393  11.563  19.929  0.00  0.00    +0.000 OA
ATOM      7  C   UNL     1       1.074  10.638  20.988  0.00  0.00    +0.000 C 
ATOM      8  C   UNL     1       0.706   9.343  20.252  0.00  0.00    +0.000 C 
ATOM      9  C   UNL     1      -0.710   9.408  19.631  0.00  0.00    +0.000 C 
ATOM     10  C   UNL     1       0.930   8.086  21.105  0.00  0.00    +0.000 C 
ATOM     11  C   UNL     1       1.174   6.816  20.287  0.00  0.00    +0.000 C 
ATOM     12  C   UNL     1       2.175   6.957  19.125  0.00  0.00    +0.000 C 
ENDROOT
BRANCH   7  13
ATOM     13  C   UNL     1       0.040  11.181  21.935  0.00  0.00    +0.000 A 
ATOM     14  C   UNL     1      -0.509  12.500  21.972  0.00  0.00    +0.000 A 
ATOM     15  C   UNL     1      -1.434  12.521  22.990  0.00  0.00    +0.000 A 
ATOM     16  O   UNL     1      -1.507  11.303  23.581  0.00  0.00    +0.000 OA
ATOM     17  C   UNL     1      -0.623  10.499  22.939  0.00  0.00    +0.000 A 
ENDBRANCH   7  13
BRANCH  12  18
ATOM     18  O   UNL     1       1.828   6.018  18.099  0.00  0.00    +0.000 OA
BRANCH  18  19
ATOM     19  C   UNL     1       2.440   4.717  18.232  0.00  0.00    +0.000 C 
ATOM     20  O   UNL     1       1.865   4.068  19.354  0.00  0.00    +0.000 OA
ATOM     21  C   UNL     1       2.533   2.901  19.858  0.00  0.00    +0.000 C 
ATOM     22  C   UNL     1       4.010   3.178  20.165  0.00  0.00    +0.000 C 
ATOM     23  C   UNL     1       4.678   3.675  18.882  0.00  0.00    +0.000 C 
ATOM     24  C   UNL     1       3.971   4.935  18.378  0.00  0.00    +0.000 C 
BRANCH  22  25
ATOM     25  O   UNL     1       4.677   2.017  20.672  0.00  0.00    +0.000 OA
ATOM     26  H   UNL     1       5.436   2.282  21.219  0.00  0.00    +0.000 HD
ENDBRANCH  22  25
BRANCH  23  27
ATOM     27  O   UNL     1       6.077   3.944  19.080  0.00  0.00    +0.000 OA
ATOM     28  H   UNL     1       6.589   3.291  18.567  0.00  0.00    +0.000 HD
ENDBRANCH  23  27
BRANCH  24  29
ATOM     29  O   UNL     1       4.515   5.336  17.106  0.00  0.00    +0.000 OA
ATOM     30  H   UNL     1       5.473   5.480  17.217  0.00  0.00    +0.000 HD
ENDBRANCH  24  29
BRANCH  21  31
ATOM     31  C   UNL     1       1.775   2.535  21.141  0.00  0.00    +0.000 C 
BRANCH  31  32
ATOM     32  O   UNL     1       2.484   3.062  22.265  0.00  0.00    +0.000 OA
ATOM     33  H   UNL     1       3.122   3.702  21.888  0.00  0.00    +0.000 HD
ENDBRANCH  31  32
ENDBRANCH  21  31
ENDBRANCH  18  19
ENDBRANCH  12  18
TORSDOF 8
ENDMDL
MODEL 5
REMARK VINA RESULT:      -6.5      1.907      8.527
REMARK  Name = 
REMARK  10 active torsions:
REMARK  status: ('A' for Active; 'I' for Inactive)
REMARK    1  A    between atoms: C_1  and  C_2
REMARK    2  A    between atoms: C_7  and  C_8
REMARK    3  A    between atoms: C_13  and  C_14
REMARK    4  A    between atoms: C_17  and  O_18
REMARK    5  A    between atoms: O_18  and  C_19
REMARK    6  A    between atoms: C_21  and  C_22
REMARK    7  A    between atoms: C_22  and  O_23
REMARK    8  A    between atoms: C_24  and  O_25
REMARK    9  A    between atoms: C_26  and  O_27
REMARK   10  A    between atoms: C_28  and  O_29
REMARK                            x       y       z     vdW  Elec       q    Type
REMARK                         _______ _______ _______ _____ _____    ______ ____
ROOT
ATOM      1  C   UNL     1       1.037   7.950  21.560  0.00  0.00    +0.000 C 
ATOM      2  C   UNL     1       1.608   7.905  20.168  0.00  0.00    +0.000 C 
ATOM      3  C   UNL     1       2.288   6.843  19.668  0.00  0.00    +0.000 C 
ATOM      4  C   UNL     1       2.743   5.599  20.357  0.00  0.00    +0.000 C 
ATOM      5  O   UNL     1       2.338   5.140  21.409  0.00  0.00    +0.000 OA
ATOM      6  O   UNL     1       3.715   5.030  19.585  0.00  0.00    +0.000 OA
ATOM      7  C   UNL     1       4.065   5.924  18.509  0.00  0.00    +0.000 C 
ATOM      8  C   UNL     1       2.780   6.724  18.258  0.00  0.00    +0.000 C 
ATOM      9  C   UNL     1       1.724   5.902  17.481  0.00  0.00    +0.000 C 
ATOM     10  C   UNL     1       3.044   8.102  17.635  0.00  0.00    +0.000 C 
ATOM     11  C   UNL     1       1.952   9.134  17.924  0.00  0.00    +0.000 C 
ATOM     12  C   UNL     1       1.473   9.201  19.386  0.00  0.00    +0.000 C 
ENDROOT
BRANCH   7  13
ATOM     13  C   UNL     1       4.638   5.200  17.323  0.00  0.00    +0.000 A 
ATOM     14  C   UNL     1       5.193   5.766  16.133  0.00  0.00    +0.000 A 
ATOM     15  C   UNL     1       5.611   4.718  15.347  0.00  0.00    +0.000 A 
ATOM     16  O   UNL     1       5.363   3.539  15.969  0.00  0.00    +0.000 OA
ATOM     17  C   UNL     1       4.784   3.835  17.160  0.00  0.00    +0.000 A 
ENDBRANCH   7  13
BRANCH  12  18
ATOM     18  O   UNL     1       0.107   9.639  19.405  0.00  0.00    +0.000 OA
BRANCH  18  19
ATOM     19  C   UNL     1      -0.075  11.064  19.540  0.00  0.00    +0.000 C 
ATOM     20  O   UNL     1       0.965  11.714  18.827  0.00  0.00    +0.000 OA
ATOM     21  C   UNL     1       1.164  13.114  19.076  0.00  0.00    +0.000 C 
ATOM     22  C   UNL     1       1.347  13.407  20.570  0.00  0.00    +0.000 C 
ATOM     23  C   UNL     1       0.112  12.893  21.311  0.00  0.00    +0.000 C 
ATOM     24  C   UNL     1      -0.066  11.394  21.057  0.00  0.00    +0.000 C 
BRANCH  22  25
ATOM     25  O   UNL     1       1.550  14.801  20.820  0.00  0.00    +0.000 OA
ATOM     26  H   UNL     1       2.245  14.922  21.489  0.00  0.00    +0.000 HD
ENDBRANCH  22  25
BRANCH  23  27
ATOM     27  O   UNL     1       0.197  13.144  22.725  0.00  0.00    +0.000 OA
ATOM     28  H   UNL     1       0.720  13.956  22.860  0.00  0.00    +0.000 HD
ENDBRANCH  23  27
BRANCH  24  29
ATOM     29  O   UNL     1      -1.293  10.931  21.650  0.00  0.00    +0.000 OA
ATOM     30  H   UNL     1      -1.106  10.666  22.569  0.00  0.00    +0.000 HD
ENDBRANCH  24  29
BRANCH  21  31
ATOM     31  C   UNL     1       2.433  13.478  18.295  0.00  0.00    +0.000 C 
BRANCH  31  32
ATOM     32  O   UNL     1       2.653  12.492  17.282  0.00  0.00    +0.000 OA
ATOM     33  H   UNL     1       2.798  11.654  17.767  0.00  0.00    +0.000 HD
ENDBRANCH  31  32
ENDBRANCH  21  31
ENDBRANCH  18  19
ENDBRANCH  12  18
TORSDOF 8
ENDMDL
MODEL 6
REMARK VINA RESULT:      -6.5      1.780      3.597
REMARK  Name = 
REMARK  10 active torsions:
REMARK  status: ('A' for Active; 'I' for Inactive)
REMARK    1  A    between atoms: C_1  and  C_2
REMARK    2  A    between atoms: C_7  and  C_8
REMARK    3  A    between atoms: C_13  and  C_14
REMARK    4  A    between atoms: C_17  and  O_18
REMARK    5  A    between atoms: O_18  and  C_19
REMARK    6  A    between atoms: C_21  and  C_22
REMARK    7  A    between atoms: C_22  and  O_23
REMARK    8  A    between atoms: C_24  and  O_25
REMARK    9  A    between atoms: C_26  and  O_27
REMARK   10  A    between atoms: C_28  and  O_29
REMARK                            x       y       z     vdW  Elec       q    Type
REMARK                         _______ _______ _______ _____ _____    ______ ____
ROOT
ATOM      1  C   UNL     1       0.166   8.201  22.086  0.00  0.00    +0.000 C 
ATOM      2  C   UNL     1       0.457   9.238  21.034  0.00  0.00    +0.000 C 
ATOM      3  C   UNL     1       0.146  10.551  21.166  0.00  0.00    +0.000 C 
ATOM      4  C   UNL     1      -0.638  11.236  22.237  0.00  0.00    +0.000 C 
ATOM      5  O   UNL     1      -0.888  10.825  23.355  0.00  0.00    +0.000 OA
ATOM      6  O   UNL     1      -1.033  12.449  21.749  0.00  0.00    +0.000 OA
ATOM      7  C   UNL     1      -0.714  12.534  20.345  0.00  0.00    +0.000 C 
ATOM      8  C   UNL     1       0.511  11.623  20.187  0.00  0.00    +0.000 C 
ATOM      9  C   UNL     1       1.805  12.291  20.711  0.00  0.00    +0.000 C 
ATOM     10  C   UNL     1       0.660  11.062  18.766  0.00  0.00    +0.000 C 
ATOM     11  C   UNL     1       1.431   9.743  18.697  0.00  0.00    +0.000 C 
ATOM     12  C   UNL     1       1.026   8.682  19.738  0.00  0.00    +0.000 C 
ENDROOT
BRANCH   7  13
ATOM     13  C   UNL     1      -0.553  13.953  19.877  0.00  0.00    +0.000 A 
ATOM     14  C   UNL     1      -0.207  14.411  18.568  0.00  0.00    +0.000 A 
ATOM     15  C   UNL     1      -0.203  15.786  18.612  0.00  0.00    +0.000 A 
ATOM     16  O   UNL     1      -0.531  16.215  19.855  0.00  0.00    +0.000 OA
ATOM     17  C   UNL     1      -0.747  15.109  20.611  0.00  0.00    +0.000 A 
ENDBRANCH   7  13
BRANCH  12  18
ATOM     18  O   UNL     1       2.163   7.855  20.022  0.00  0.00    +0.000 OA
BRANCH  18  19
ATOM     19  C   UNL     1       2.146   6.558  19.391  0.00  0.00    +0.000 C 
ATOM     20  O   UNL     1       1.694   5.607  20.341  0.00  0.00    +0.000 OA
ATOM     21  C   UNL     1       1.891   4.218  20.033  0.00  0.00    +0.000 C 
ATOM     22  C   UNL     1       3.357   3.910  19.701  0.00  0.00    +0.000 C 
ATOM     23  C   UNL     1       3.774   4.793  18.525  0.00  0.00    +0.000 C 
ATOM     24  C   UNL     1       3.585   6.268  18.883  0.00  0.00    +0.000 C 
BRANCH  22  25
ATOM     25  O   UNL     1       3.556   2.526  19.399  0.00  0.00    +0.000 OA
ATOM     26  H   UNL     1       3.688   2.410  18.443  0.00  0.00    +0.000 HD
ENDBRANCH  22  25
BRANCH  23  27
ATOM     27  O   UNL     1       5.139   4.554  18.138  0.00  0.00    +0.000 OA
ATOM     28  H   UNL     1       5.722   4.936  18.821  0.00  0.00    +0.000 HD
ENDBRANCH  23  27
BRANCH  24  29
ATOM     29  O   UNL     1       3.858   7.097  17.738  0.00  0.00    +0.000 OA
ATOM     30  H   UNL     1       3.013   7.285  17.290  0.00  0.00    +0.000 HD
ENDBRANCH  24  29
BRANCH  21  31
ATOM     31  C   UNL     1       1.454   3.467  21.297  0.00  0.00    +0.000 C 
BRANCH  31  32
ATOM     32  O   UNL     1       2.619   3.023  21.998  0.00  0.00    +0.000 OA
ATOM     33  H   UNL     1       2.709   3.633  22.758  0.00  0.00    +0.000 HD
ENDBRANCH  31  32
ENDBRANCH  21  31
ENDBRANCH  18  19
ENDBRANCH  12  18
TORSDOF 8
ENDMDL
MODEL 7
REMARK VINA RESULT:      -6.5      1.625      2.313
REMARK  Name = 
REMARK  10 active torsions:
REMARK  status: ('A' for Active; 'I' for Inactive)
REMARK    1  A    between atoms: C_1  and  C_2
REMARK    2  A    between atoms: C_7  and  C_8
REMARK    3  A    between atoms: C_13  and  C_14
REMARK    4  A    between atoms: C_17  and  O_18
REMARK    5  A    between atoms: O_18  and  C_19
REMARK    6  A    between atoms: C_21  and  C_22
REMARK    7  A    between atoms: C_22  and  O_23
REMARK    8  A    between atoms: C_24  and  O_25
REMARK    9  A    between atoms: C_26  and  O_27
REMARK   10  A    between atoms: C_28  and  O_29
REMARK                            x       y       z     vdW  Elec       q    Type
REMARK                         _______ _______ _______ _____ _____    ______ ____
ROOT
ATOM      1  C   UNL     1       3.286   8.044  17.530  0.00  0.00    +0.000 C 
ATOM      2  C   UNL     1       2.409   8.102  18.752  0.00  0.00    +0.000 C 
ATOM      3  C   UNL     1       1.690   9.194  19.110  0.00  0.00    +0.000 C 
ATOM      4  C   UNL     1       1.691  10.566  18.519  0.00  0.00    +0.000 C 
ATOM      5  O   UNL     1       2.092  10.902  17.420  0.00  0.00    +0.000 OA
ATOM      6  O   UNL     1       1.139  11.413  19.437  0.00  0.00    +0.000 OA
ATOM      7  C   UNL     1       0.938  10.714  20.682  0.00  0.00    +0.000 C 
ATOM      8  C   UNL     1       0.731   9.253  20.260  0.00  0.00    +0.000 C 
ATOM      9  C   UNL     1      -0.683   9.009  19.680  0.00  0.00    +0.000 C 
ATOM     10  C   UNL     1       1.109   8.252  21.360  0.00  0.00    +0.000 C 
ATOM     11  C   UNL     1       1.506   6.871  20.835  0.00  0.00    +0.000 C 
ATOM     12  C   UNL     1       2.480   6.871  19.642  0.00  0.00    +0.000 C 
ENDROOT
BRANCH   7  13
ATOM     13  C   UNL     1      -0.153  11.325  21.515  0.00  0.00    +0.000 A 
ATOM     14  C   UNL     1      -0.977  12.449  21.196  0.00  0.00    +0.000 A 
ATOM     15  C   UNL     1      -1.845  12.622  22.249  0.00  0.00    +0.000 A 
ATOM     16  O   UNL     1      -1.626  11.678  23.196  0.00  0.00    +0.000 OA
ATOM     17  C   UNL     1      -0.612  10.896  22.748  0.00  0.00    +0.000 A 
ENDBRANCH   7  13
BRANCH  12  18
ATOM     18  O   UNL     1       2.250   5.693  18.857  0.00  0.00    +0.000 OA
BRANCH  18  19
ATOM     19  C   UNL     1       3.383   4.806  18.743  0.00  0.00    +0.000 C 
ATOM     20  O   UNL     1       4.532   5.488  19.221  0.00  0.00    +0.000 OA
ATOM     21  C   UNL     1       5.815   4.918  18.917  0.00  0.00    +0.000 C 
ATOM     22  C   UNL     1       5.989   4.677  17.413  0.00  0.00    +0.000 C 
ATOM     23  C   UNL     1       4.861   3.757  16.944  0.00  0.00    +0.000 C 
ATOM     24  C   UNL     1       3.504   4.394  17.250  0.00  0.00    +0.000 C 
BRANCH  22  25
ATOM     25  O   UNL     1       7.269   4.114  17.107  0.00  0.00    +0.000 OA
ATOM     26  H   UNL     1       7.320   3.202  17.442  0.00  0.00    +0.000 HD
ENDBRANCH  22  25
BRANCH  23  27
ATOM     27  O   UNL     1       4.960   3.465  15.539  0.00  0.00    +0.000 OA
ATOM     28  H   UNL     1       5.334   2.569  15.439  0.00  0.00    +0.000 HD
ENDBRANCH  23  27
BRANCH  24  29
ATOM     29  O   UNL     1       2.440   3.480  16.925  0.00  0.00    +0.000 OA
ATOM     30  H   UNL     1       2.611   2.638  17.386  0.00  0.00    +0.000 HD
ENDBRANCH  24  29
BRANCH  21  31
ATOM     31  C   UNL     1       6.833   5.949  19.420  0.00  0.00    +0.000 C 
BRANCH  31  32
ATOM     32  O   UNL     1       7.693   5.324  20.375  0.00  0.00    +0.000 OA
ATOM     33  H   UNL     1       7.426   4.382  20.383  0.00  0.00    +0.000 HD
ENDBRANCH  31  32
ENDBRANCH  21  31
ENDBRANCH  18  19
ENDBRANCH  12  18
TORSDOF 8
ENDMDL
MODEL 8
REMARK VINA RESULT:      -6.4      2.136      8.750
REMARK  Name = 
REMARK  10 active torsions:
REMARK  status: ('A' for Active; 'I' for Inactive)
REMARK    1  A    between atoms: C_1  and  C_2
REMARK    2  A    between atoms: C_7  and  C_8
REMARK    3  A    between atoms: C_13  and  C_14
REMARK    4  A    between atoms: C_17  and  O_18
REMARK    5  A    between atoms: O_18  and  C_19
REMARK    6  A    between atoms: C_21  and  C_22
REMARK    7  A    between atoms: C_22  and  O_23
REMARK    8  A    between atoms: C_24  and  O_25
REMARK    9  A    between atoms: C_26  and  O_27
REMARK   10  A    between atoms: C_28  and  O_29
REMARK                            x       y       z     vdW  Elec       q    Type
REMARK                         _______ _______ _______ _____ _____    ______ ____
ROOT
ATOM      1  C   UNL     1       1.119   7.737  21.524  0.00  0.00    +0.000 C 
ATOM      2  C   UNL     1       1.712   7.744  20.140  0.00  0.00    +0.000 C 
ATOM      3  C   UNL     1       2.437   6.719  19.628  0.00  0.00    +0.000 C 
ATOM      4  C   UNL     1       2.928   5.477  20.296  0.00  0.00    +0.000 C 
ATOM      5  O   UNL     1       2.524   4.980  21.331  0.00  0.00    +0.000 OA
ATOM      6  O   UNL     1       3.931   4.962  19.526  0.00  0.00    +0.000 OA
ATOM      7  C   UNL     1       4.263   5.891  18.476  0.00  0.00    +0.000 C 
ATOM      8  C   UNL     1       2.953   6.650  18.223  0.00  0.00    +0.000 C 
ATOM      9  C   UNL     1       1.940   5.808  17.411  0.00  0.00    +0.000 C 
ATOM     10  C   UNL     1       3.176   8.051  17.635  0.00  0.00    +0.000 C 
ATOM     11  C   UNL     1       2.043   9.035  17.929  0.00  0.00    +0.000 C 
ATOM     12  C   UNL     1       1.540   9.052  19.385  0.00  0.00    +0.000 C 
ENDROOT
BRANCH   7  13
ATOM     13  C   UNL     1       4.880   5.216  17.283  0.00  0.00    +0.000 A 
ATOM     14  C   UNL     1       4.860   3.825  16.954  0.00  0.00    +0.000 A 
ATOM     15  C   UNL     1       5.532   3.685  15.762  0.00  0.00    +0.000 A 
ATOM     16  O   UNL     1       5.960   4.894  15.322  0.00  0.00    +0.000 OA
ATOM     17  C   UNL     1       5.560   5.812  16.237  0.00  0.00    +0.000 A 
ENDBRANCH   7  13
BRANCH  12  18
ATOM     18  O   UNL     1       0.160   9.439  19.393  0.00  0.00    +0.000 OA
BRANCH  18  19
ATOM     19  C   UNL     1      -0.109  10.752  18.858  0.00  0.00    +0.000 C 
ATOM     20  O   UNL     1       0.782  11.672  19.468  0.00  0.00    +0.000 OA
ATOM     21  C   UNL     1       0.494  13.071  19.321  0.00  0.00    +0.000 C 
ATOM     22  C   UNL     1      -0.932  13.409  19.774  0.00  0.00    +0.000 C 
ATOM     23  C   UNL     1      -1.905  12.564  18.952  0.00  0.00    +0.000 C 
ATOM     24  C   UNL     1      -1.601  11.077  19.144  0.00  0.00    +0.000 C 
BRANCH  22  25
ATOM     25  O   UNL     1      -1.220  14.804  19.634  0.00  0.00    +0.000 OA
ATOM     26  H   UNL     1      -1.307  15.032  18.693  0.00  0.00    +0.000 HD
ENDBRANCH  22  25
BRANCH  23  27
ATOM     27  O   UNL     1      -3.273  12.833  19.305  0.00  0.00    +0.000 OA
ATOM     28  H   UNL     1      -3.536  12.210  20.009  0.00  0.00    +0.000 HD
ENDBRANCH  23  27
BRANCH  24  29
ATOM     29  O   UNL     1      -2.432  10.282  18.278  0.00  0.00    +0.000 OA
ATOM     30  H   UNL     1      -2.413   9.362  18.600  0.00  0.00    +0.000 HD
ENDBRANCH  24  29
BRANCH  21  31
ATOM     31  C   UNL     1       1.525  13.781  20.208  0.00  0.00    +0.000 C 
BRANCH  31  32
ATOM     32  O   UNL     1       1.214  13.521  21.579  0.00  0.00    +0.000 OA
ATOM     33  H   UNL     1       1.301  14.386  22.030  0.00  0.00    +0.000 HD
ENDBRANCH  31  32
ENDBRANCH  21  31
ENDBRANCH  18  19
ENDBRANCH  12  18
TORSDOF 8
ENDMDL
MODEL 9
REMARK VINA RESULT:      -6.4      1.886      8.922
REMARK  Name = 
REMARK  10 active torsions:
REMARK  status: ('A' for Active; 'I' for Inactive)
REMARK    1  A    between atoms: C_1  and  C_2
REMARK    2  A    between atoms: C_7  and  C_8
REMARK    3  A    between atoms: C_13  and  C_14
REMARK    4  A    between atoms: C_17  and  O_18
REMARK    5  A    between atoms: O_18  and  C_19
REMARK    6  A    between atoms: C_21  and  C_22
REMARK    7  A    between atoms: C_22  and  O_23
REMARK    8  A    between atoms: C_24  and  O_25
REMARK    9  A    between atoms: C_26  and  O_27
REMARK   10  A    between atoms: C_28  and  O_29
REMARK                            x       y       z     vdW  Elec       q    Type
REMARK                         _______ _______ _______ _____ _____    ______ ____
ROOT
ATOM      1  C   UNL     1       1.282   7.781  21.565  0.00  0.00    +0.000 C 
ATOM      2  C   UNL     1       1.857   7.720  20.175  0.00  0.00    +0.000 C 
ATOM      3  C   UNL     1       2.426   6.609  19.644  0.00  0.00    +0.000 C 
ATOM      4  C   UNL     1       2.742   5.303  20.295  0.00  0.00    +0.000 C 
ATOM      5  O   UNL     1       2.281   4.856  21.329  0.00  0.00    +0.000 OA
ATOM      6  O   UNL     1       3.656   4.660  19.510  0.00  0.00    +0.000 OA
ATOM      7  C   UNL     1       4.107   5.546  18.465  0.00  0.00    +0.000 C 
ATOM      8  C   UNL     1       2.915   6.484  18.234  0.00  0.00    +0.000 C 
ATOM      9  C   UNL     1       1.786   5.803  17.424  0.00  0.00    +0.000 C 
ATOM     10  C   UNL     1       3.328   7.846  17.658  0.00  0.00    +0.000 C 
ATOM     11  C   UNL     1       2.348   8.978  17.974  0.00  0.00    +0.000 C 
ATOM     12  C   UNL     1       1.866   9.048  19.435  0.00  0.00    +0.000 C 
ENDROOT
BRANCH   7  13
ATOM     13  C   UNL     1       4.612   4.804  17.260  0.00  0.00    +0.000 A 
ATOM     14  C   UNL     1       5.219   5.347  16.085  0.00  0.00    +0.000 A 
ATOM     15  C   UNL     1       5.537   4.286  15.270  0.00  0.00    +0.000 A 
ATOM     16  O   UNL     1       5.179   3.119  15.860  0.00  0.00    +0.000 OA
ATOM     17  C   UNL     1       4.629   3.436  17.059  0.00  0.00    +0.000 A 
ENDBRANCH   7  13
BRANCH  12  18
ATOM     18  O   UNL     1       0.554   9.626  19.461  0.00  0.00    +0.000 OA
BRANCH  18  19
ATOM     19  C   UNL     1       0.462  10.899  20.134  0.00  0.00    +0.000 C 
ATOM     20  O   UNL     1      -0.304  10.723  21.315  0.00  0.00    +0.000 OA
ATOM     21  C   UNL     1      -0.784  11.904  21.976  0.00  0.00    +0.000 C 
ATOM     22  C   UNL     1      -1.571  12.811  21.022  0.00  0.00    +0.000 C 
ATOM     23  C   UNL     1      -0.659  13.176  19.850  0.00  0.00    +0.000 C 
ATOM     24  C   UNL     1      -0.182  11.906  19.142  0.00  0.00    +0.000 C 
BRANCH  22  25
ATOM     25  O   UNL     1      -2.054  13.987  21.680  0.00  0.00    +0.000 OA
ATOM     26  H   UNL     1      -2.833  14.333  21.212  0.00  0.00    +0.000 HD
ENDBRANCH  22  25
BRANCH  23  27
ATOM     27  O   UNL     1      -1.319  14.043  18.911  0.00  0.00    +0.000 OA
ATOM     28  H   UNL     1      -2.281  13.977  19.059  0.00  0.00    +0.000 HD
ENDBRANCH  23  27
BRANCH  24  29
ATOM     29  O   UNL     1       0.774  12.237  18.117  0.00  0.00    +0.000 OA
ATOM     30  H   UNL     1       1.661  12.253  18.523  0.00  0.00    +0.000 HD
ENDBRANCH  24  29
BRANCH  21  31
ATOM     31  C   UNL     1      -1.690  11.387  23.100  0.00  0.00    +0.000 C 
BRANCH  31  32
ATOM     32  O   UNL     1      -1.264  10.074  23.473  0.00  0.00    +0.000 OA
ATOM     33  H   UNL     1      -0.722  10.200  24.279  0.00  0.00    +0.000 HD
ENDBRANCH  31  32
ENDBRANCH  21  31
ENDBRANCH  18  19
ENDBRANCH  12  18
TORSDOF 8
ENDMDL
