MODEL 1
REMARK VINA RESULT:      -6.2      0.000      0.000
REMARK  Name = 
REMARK  7 active torsions:
REMARK  status: ('A' for Active; 'I' for Inactive)
REMARK    1  A    between atoms: C_1  and  C_2
REMARK    2  A    between atoms: C_2  and  N_3
REMARK    3  A    between atoms: N_3  and  C_15
REMARK    4  A    between atoms: C_4  and  C_6
REMARK    5  A    between atoms: C_8  and  N_9
REMARK    6  A    between atoms: C_10  and  C_11
REMARK    7  A    between atoms: C_13  and  C_14
REMARK                            x       y       z     vdW  Elec       q    Type
REMARK                         _______ _______ _______ _____ _____    ______ ____
ROOT
ATOM      1  N   UNL     1       2.950   5.550  19.230  0.00  0.00    +0.000 N 
ATOM      2  C   UNL     1       3.773   6.493  18.520  0.00  0.00    +0.000 C 
ATOM      3  O   UNL     1       3.341   7.635  18.327  0.00  0.00    +0.000 OA
ENDROOT
BRANCH   2   4
ATOM      4  C   UNL     1       5.062   6.100  17.909  0.00  0.00    +0.000 A 
ATOM      5  S   UNL     1       6.448   5.673  18.819  0.00  0.00    +0.000 S 
ATOM      6  C   UNL     1       7.214   4.949  17.499  0.00  0.00    +0.000 A 
ATOM      7  C   UNL     1       6.662   5.439  16.338  0.00  0.00    +0.000 A 
ATOM      8  C   UNL     1       5.466   6.221  16.572  0.00  0.00    +0.000 A 
ATOM      9  C   UNL     1       4.734   6.978  15.500  0.00  0.00    +0.000 C 
BRANCH   6  10
ATOM     10  N   UNL     1       8.247   4.107  17.703  0.00  0.00    +0.000 N 
ATOM     11  H   UNL     1       9.111   4.443  18.118  0.00  0.00    +0.000 HD
ATOM     12  H   UNL     1       8.206   3.109  17.531  0.00  0.00    +0.000 HD
ENDBRANCH   6  10
BRANCH   7  13
ATOM     13  C   UNL     1       7.214   5.168  15.052  0.00  0.00    +0.000 C 
ATOM     14  N   UNL     1       7.637   4.946  13.999  0.00  0.00    +0.000 NA
ENDBRANCH   7  13
ENDBRANCH   2   4
BRANCH   1  15
ATOM     15  C   UNL     1       3.369   4.159  19.559  0.00  0.00    +0.000 C 
ATOM     16  C   UNL     1       2.544   3.539  20.702  0.00  0.00    +0.000 C 
ATOM     17  C   UNL     1       1.234   2.893  20.308  0.00  0.00    +0.000 C 
ATOM     18  C   UNL     1       1.340   1.971  19.107  0.00  0.00    +0.000 C 
ATOM     19  C   UNL     1       2.228   2.464  17.968  0.00  0.00    +0.000 C 
ATOM     20  C   UNL     1       3.518   3.140  18.416  0.00  0.00    +0.000 C 
ENDBRANCH   1  15
BRANCH   1  22
ATOM     21  C   UNL     1       1.503   6.895  20.820  0.00  0.00    +0.000 C 
ATOM     22  C   UNL     1       1.590   6.010  19.584  0.00  0.00    +0.000 C 
ENDBRANCH   1  22
TORSDOF 5
ENDMDL
MODEL 2
REMARK VINA RESULT:      -6.1      2.316      5.881
REMARK  Name = 
REMARK  7 active torsions:
REMARK  status: ('A' for Active; 'I' for Inactive)
REMARK    1  A    between atoms: C_1  and  C_2
REMARK    2  A    between atoms: C_2  and  N_3
REMARK    3  A    between atoms: N_3  and  C_15
REMARK    4  A    between atoms: C_4  and  C_6
REMARK    5  A    between atoms: C_8  and  N_9
REMARK    6  A    between atoms: C_10  and  C_11
REMARK    7  A    between atoms: C_13  and  C_14
REMARK                            x       y       z     vdW  Elec       q    Type
REMARK                         _______ _______ _______ _____ _____    ______ ____
ROOT
ATOM      1  N   UNL     1       4.576   5.965  17.176  0.00  0.00    +0.000 N 
ATOM      2  C   UNL     1       3.300   6.169  17.811  0.00  0.00    +0.000 C 
ATOM      3  O   UNL     1       2.871   7.321  17.928  0.00  0.00    +0.000 OA
ENDROOT
BRANCH   2   4
ATOM      4  C   UNL     1       2.550   5.056  18.433  0.00  0.00    +0.000 A 
ATOM      5  S   UNL     1       1.670   3.892  17.538  0.00  0.00    +0.000 S 
ATOM      6  C   UNL     1       1.570   2.820  18.839  0.00  0.00    +0.000 A 
ATOM      7  C   UNL     1       1.764   3.518  20.009  0.00  0.00    +0.000 A 
ATOM      8  C   UNL     1       2.222   4.874  19.784  0.00  0.00    +0.000 A 
ATOM      9  C   UNL     1       2.392   5.895  20.872  0.00  0.00    +0.000 C 
BRANCH   6  10
ATOM     10  N   UNL     1       1.257   1.527  18.621  0.00  0.00    +0.000 N 
ATOM     11  H   UNL     1       0.507   1.280  17.982  0.00  0.00    +0.000 HD
ATOM     12  H   UNL     1       1.775   0.746  19.006  0.00  0.00    +0.000 HD
ENDBRANCH   6  10
BRANCH   7  13
ATOM     13  C   UNL     1       1.556   2.936  21.293  0.00  0.00    +0.000 C 
ATOM     14  N   UNL     1       1.364   2.479  22.338  0.00  0.00    +0.000 NA
ENDBRANCH   7  13
ENDBRANCH   2   4
BRANCH   1  15
ATOM     15  C   UNL     1       5.185   4.626  16.941  0.00  0.00    +0.000 C 
ATOM     16  C   UNL     1       4.692   3.964  15.640  0.00  0.00    +0.000 C 
ATOM     17  C   UNL     1       5.421   4.355  14.373  0.00  0.00    +0.000 C 
ATOM     18  C   UNL     1       6.933   4.324  14.499  0.00  0.00    +0.000 C 
ATOM     19  C   UNL     1       7.501   4.865  15.807  0.00  0.00    +0.000 C 
ATOM     20  C   UNL     1       6.712   4.475  17.052  0.00  0.00    +0.000 C 
ENDBRANCH   1  15
BRANCH   1  22
ATOM     21  C   UNL     1       6.461   7.563  17.745  0.00  0.00    +0.000 C 
ATOM     22  C   UNL     1       5.322   7.186  16.806  0.00  0.00    +0.000 C 
ENDBRANCH   1  22
TORSDOF 5
ENDMDL
MODEL 3
REMARK VINA RESULT:      -5.9      2.648      6.087
REMARK  Name = 
REMARK  7 active torsions:
REMARK  status: ('A' for Active; 'I' for Inactive)
REMARK    1  A    between atoms: C_1  and  C_2
REMARK    2  A    between atoms: C_2  and  N_3
REMARK    3  A    between atoms: N_3  and  C_15
REMARK    4  A    between atoms: C_4  and  C_6
REMARK    5  A    between atoms: C_8  and  N_9
REMARK    6  A    between atoms: C_10  and  C_11
REMARK    7  A    between atoms: C_13  and  C_14
REMARK                            x       y       z     vdW  Elec       q    Type
REMARK                         _______ _______ _______ _____ _____    ______ ____
ROOT
ATOM      1  N   UNL     1       3.620   5.033  17.423  0.00  0.00    +0.000 N 
ATOM      2  C   UNL     1       2.445   5.479  18.124  0.00  0.00    +0.000 C 
ATOM      3  O   UNL     1       1.531   4.673  18.328  0.00  0.00    +0.000 OA
ENDROOT
BRANCH   2   4
ATOM      4  C   UNL     1       2.248   6.897  18.496  0.00  0.00    +0.000 A 
ATOM      5  S   UNL     1       2.762   8.210  17.525  0.00  0.00    +0.000 S 
ATOM      6  C   UNL     1       1.795   9.326  18.345  0.00  0.00    +0.000 A 
ATOM      7  C   UNL     1       1.482   8.819  19.586  0.00  0.00    +0.000 A 
ATOM      8  C   UNL     1       1.854   7.427  19.734  0.00  0.00    +0.000 A 
ATOM      9  C   UNL     1       1.746   6.660  21.020  0.00  0.00    +0.000 C 
BRANCH   6  10
ATOM     10  N   UNL     1       1.524  10.520  17.782  0.00  0.00    +0.000 N 
ATOM     11  H   UNL     1       0.963  11.207  18.276  0.00  0.00    +0.000 HD
ATOM     12  H   UNL     1       1.908  10.828  16.896  0.00  0.00    +0.000 HD
ENDBRANCH   6  10
BRANCH   7  13
ATOM     13  C   UNL     1       0.836   9.595  20.591  0.00  0.00    +0.000 C 
ATOM     14  N   UNL     1       0.324  10.248  21.397  0.00  0.00    +0.000 NA
ENDBRANCH   7  13
ENDBRANCH   2   4
BRANCH   1  15
ATOM     15  C   UNL     1       4.804   5.894  17.149  0.00  0.00    +0.000 C 
ATOM     16  C   UNL     1       5.810   5.919  18.316  0.00  0.00    +0.000 C 
ATOM     17  C   UNL     1       6.821   4.795  18.352  0.00  0.00    +0.000 C 
ATOM     18  C   UNL     1       7.493   4.529  17.018  0.00  0.00    +0.000 C 
ATOM     19  C   UNL     1       6.585   4.591  15.793  0.00  0.00    +0.000 C 
ATOM     20  C   UNL     1       5.559   5.717  15.820  0.00  0.00    +0.000 C 
ENDBRANCH   1  15
BRANCH   1  22
ATOM     21  C   UNL     1       3.912   2.565  17.928  0.00  0.00    +0.000 C 
ATOM     22  C   UNL     1       3.584   3.648  16.908  0.00  0.00    +0.000 C 
ENDBRANCH   1  22
TORSDOF 5
ENDMDL
MODEL 4
REMARK VINA RESULT:      -5.7      2.635      6.454
REMARK  Name = 
REMARK  7 active torsions:
REMARK  status: ('A' for Active; 'I' for Inactive)
REMARK    1  A    between atoms: C_1  and  C_2
REMARK    2  A    between atoms: C_2  and  N_3
REMARK    3  A    between atoms: N_3  and  C_15
REMARK    4  A    between atoms: C_4  and  C_6
REMARK    5  A    between atoms: C_8  and  N_9
REMARK    6  A    between atoms: C_10  and  C_11
REMARK    7  A    between atoms: C_13  and  C_14
REMARK                            x       y       z     vdW  Elec       q    Type
REMARK                         _______ _______ _______ _____ _____    ______ ____
ROOT
ATOM      1  N   UNL     1       5.517   4.475  17.125  0.00  0.00    +0.000 N 
ATOM      2  C   UNL     1       4.619   3.363  17.292  0.00  0.00    +0.000 C 
ATOM      3  O   UNL     1       4.736   2.385  16.546  0.00  0.00    +0.000 OA
ENDROOT
BRANCH   2   4
ATOM      4  C   UNL     1       3.487   3.409  18.243  0.00  0.00    +0.000 A 
ATOM      5  S   UNL     1       1.997   4.181  17.904  0.00  0.00    +0.000 S 
ATOM      6  C   UNL     1       1.190   3.400  19.166  0.00  0.00    +0.000 A 
ATOM      7  C   UNL     1       2.116   2.960  20.083  0.00  0.00    +0.000 A 
ATOM      8  C   UNL     1       3.478   3.073  19.605  0.00  0.00    +0.000 A 
ATOM      9  C   UNL     1       4.691   2.786  20.444  0.00  0.00    +0.000 C 
BRANCH   6  10
ATOM     10  N   UNL     1      -0.157   3.366  19.180  0.00  0.00    +0.000 N 
ATOM     11  H   UNL     1      -0.650   2.750  19.819  0.00  0.00    +0.000 HD
ATOM     12  H   UNL     1      -0.745   3.982  18.629  0.00  0.00    +0.000 HD
ENDBRANCH   6  10
BRANCH   7  13
ATOM     13  C   UNL     1       1.745   2.428  21.352  0.00  0.00    +0.000 C 
ATOM     14  N   UNL     1       1.466   2.008  22.393  0.00  0.00    +0.000 NA
ENDBRANCH   7  13
ENDBRANCH   2   4
BRANCH   1  15
ATOM     15  C   UNL     1       5.504   5.693  17.982  0.00  0.00    +0.000 C 
ATOM     16  C   UNL     1       6.311   5.520  19.282  0.00  0.00    +0.000 C 
ATOM     17  C   UNL     1       7.798   5.782  19.187  0.00  0.00    +0.000 C 
ATOM     18  C   UNL     1       8.150   7.065  18.457  0.00  0.00    +0.000 C 
ATOM     19  C   UNL     1       7.322   7.369  17.211  0.00  0.00    +0.000 C 
ATOM     20  C   UNL     1       5.837   7.053  17.343  0.00  0.00    +0.000 C 
ENDBRANCH   1  15
BRANCH   1  22
ATOM     21  C   UNL     1       5.871   4.776  14.631  0.00  0.00    +0.000 C 
ATOM     22  C   UNL     1       6.454   4.389  15.984  0.00  0.00    +0.000 C 
ENDBRANCH   1  22
TORSDOF 5
ENDMDL
MODEL 5
REMARK VINA RESULT:      -5.7      2.466      6.111
REMARK  Name = 
REMARK  7 active torsions:
REMARK  status: ('A' for Active; 'I' for Inactive)
REMARK    1  A    between atoms: C_1  and  C_2
REMARK    2  A    between atoms: C_2  and  N_3
REMARK    3  A    between atoms: N_3  and  C_15
REMARK    4  A    between atoms: C_4  and  C_6
REMARK    5  A    between atoms: C_8  and  N_9
REMARK    6  A    between atoms: C_10  and  C_11
REMARK    7  A    between atoms: C_13  and  C_14
REMARK                            x       y       z     vdW  Elec       q    Type
REMARK                         _______ _______ _______ _____ _____    ______ ____
ROOT
ATOM      1  N   UNL     1       5.361   4.577  17.306  0.00  0.00    +0.000 N 
ATOM      2  C   UNL     1       4.396   3.565  17.648  0.00  0.00    +0.000 C 
ATOM      3  O   UNL     1       4.359   2.527  16.980  0.00  0.00    +0.000 OA
ENDROOT
BRANCH   2   4
ATOM      4  C   UNL     1       3.372   3.783  18.693  0.00  0.00    +0.000 A 
ATOM      5  S   UNL     1       2.789   2.544  19.720  0.00  0.00    +0.000 S 
ATOM      6  C   UNL     1       2.116   3.634  20.821  0.00  0.00    +0.000 A 
ATOM      7  C   UNL     1       1.921   4.842  20.191  0.00  0.00    +0.000 A 
ATOM      8  C   UNL     1       2.548   4.902  18.887  0.00  0.00    +0.000 A 
ATOM      9  C   UNL     1       2.390   6.050  17.931  0.00  0.00    +0.000 C 
BRANCH   6  10
ATOM     10  N   UNL     1       1.793   3.220  22.062  0.00  0.00    +0.000 N 
ATOM     11  H   UNL     1       0.907   2.757  22.237  0.00  0.00    +0.000 HD
ATOM     12  H   UNL     1       2.419   3.274  22.858  0.00  0.00    +0.000 HD
ENDBRANCH   6  10
BRANCH   7  13
ATOM     13  C   UNL     1       1.198   5.912  20.792  0.00  0.00    +0.000 C 
ATOM     14  N   UNL     1       0.626   6.799  21.266  0.00  0.00    +0.000 NA
ENDBRANCH   7  13
ENDBRANCH   2   4
BRANCH   1  15
ATOM     15  C   UNL     1       5.532   5.853  18.056  0.00  0.00    +0.000 C 
ATOM     16  C   UNL     1       6.313   5.674  19.372  0.00  0.00    +0.000 C 
ATOM     17  C   UNL     1       7.821   5.707  19.264  0.00  0.00    +0.000 C 
ATOM     18  C   UNL     1       8.354   6.857  18.430  0.00  0.00    +0.000 C 
ATOM     19  C   UNL     1       7.572   7.171  17.158  0.00  0.00    +0.000 C 
ATOM     20  C   UNL     1       6.057   7.089  17.306  0.00  0.00    +0.000 C 
ENDBRANCH   1  15
BRANCH   1  22
ATOM     21  C   UNL     1       5.527   4.750  14.782  0.00  0.00    +0.000 C 
ATOM     22  C   UNL     1       6.169   4.322  16.095  0.00  0.00    +0.000 C 
ENDBRANCH   1  22
TORSDOF 5
ENDMDL
MODEL 6
REMARK VINA RESULT:      -5.6      2.322      3.092
REMARK  Name = 
REMARK  7 active torsions:
REMARK  status: ('A' for Active; 'I' for Inactive)
REMARK    1  A    between atoms: C_1  and  C_2
REMARK    2  A    between atoms: C_2  and  N_3
REMARK    3  A    between atoms: N_3  and  C_15
REMARK    4  A    between atoms: C_4  and  C_6
REMARK    5  A    between atoms: C_8  and  N_9
REMARK    6  A    between atoms: C_10  and  C_11
REMARK    7  A    between atoms: C_13  and  C_14
REMARK                            x       y       z     vdW  Elec       q    Type
REMARK                         _______ _______ _______ _____ _____    ______ ____
ROOT
ATOM      1  N   UNL     1       3.431   3.656  18.008  0.00  0.00    +0.000 N 
ATOM      2  C   UNL     1       4.663   3.971  17.334  0.00  0.00    +0.000 C 
ATOM      3  O   UNL     1       4.997   3.294  16.356  0.00  0.00    +0.000 OA
ENDROOT
BRANCH   2   4
ATOM      4  C   UNL     1       5.595   4.999  17.849  0.00  0.00    +0.000 A 
ATOM      5  S   UNL     1       6.441   4.850  19.329  0.00  0.00    +0.000 S 
ATOM      6  C   UNL     1       7.540   6.072  18.939  0.00  0.00    +0.000 A 
ATOM      7  C   UNL     1       6.993   6.869  17.960  0.00  0.00    +0.000 A 
ATOM      8  C   UNL     1       5.781   6.312  17.395  0.00  0.00    +0.000 A 
ATOM      9  C   UNL     1       4.910   7.029  16.403  0.00  0.00    +0.000 C 
BRANCH   6  10
ATOM     10  N   UNL     1       8.697   6.176  19.623  0.00  0.00    +0.000 N 
ATOM     11  H   UNL     1       9.367   5.413  19.622  0.00  0.00    +0.000 HD
ATOM     12  H   UNL     1       8.997   7.017  20.103  0.00  0.00    +0.000 HD
ENDBRANCH   6  10
BRANCH   7  13
ATOM     13  C   UNL     1       7.591   8.094  17.545  0.00  0.00    +0.000 C 
ATOM     14  N   UNL     1       8.065   9.102  17.230  0.00  0.00    +0.000 NA
ENDBRANCH   7  13
ENDBRANCH   2   4
BRANCH   1  15
ATOM     15  C   UNL     1       2.899   4.419  19.172  0.00  0.00    +0.000 C 
ATOM     16  C   UNL     1       1.361   4.503  19.179  0.00  0.00    +0.000 C 
ATOM     17  C   UNL     1       0.630   3.333  19.800  0.00  0.00    +0.000 C 
ATOM     18  C   UNL     1       1.190   2.900  21.142  0.00  0.00    +0.000 C 
ATOM     19  C   UNL     1       2.711   2.891  21.254  0.00  0.00    +0.000 C 
ATOM     20  C   UNL     1       3.405   4.070  20.582  0.00  0.00    +0.000 C 
ENDBRANCH   1  15
BRANCH   1  22
ATOM     21  C   UNL     1       3.133   1.142  18.166  0.00  0.00    +0.000 C 
ATOM     22  C   UNL     1       2.712   2.458  17.524  0.00  0.00    +0.000 C 
ENDBRANCH   1  22
TORSDOF 5
ENDMDL
MODEL 7
REMARK VINA RESULT:      -5.5      1.835      2.264
REMARK  Name = 
REMARK  7 active torsions:
REMARK  status: ('A' for Active; 'I' for Inactive)
REMARK    1  A    between atoms: C_1  and  C_2
REMARK    2  A    between atoms: C_2  and  N_3
REMARK    3  A    between atoms: N_3  and  C_15
REMARK    4  A    between atoms: C_4  and  C_6
REMARK    5  A    between atoms: C_8  and  N_9
REMARK    6  A    between atoms: C_10  and  C_11
REMARK    7  A    between atoms: C_13  and  C_14
REMARK                            x       y       z     vdW  Elec       q    Type
REMARK                         _______ _______ _______ _____ _____    ______ ____
ROOT
ATOM      1  N   UNL     1       3.292   5.026  17.975  0.00  0.00    +0.000 N 
ATOM      2  C   UNL     1       4.196   5.856  17.223  0.00  0.00    +0.000 C 
ATOM      3  O   UNL     1       4.100   7.083  17.322  0.00  0.00    +0.000 OA
ENDROOT
BRANCH   2   4
ATOM      4  C   UNL     1       5.151   5.286  16.247  0.00  0.00    +0.000 A 
ATOM      5  S   UNL     1       4.980   3.729  15.556  0.00  0.00    +0.000 S 
ATOM      6  C   UNL     1       6.079   4.051  14.313  0.00  0.00    +0.000 A 
ATOM      7  C   UNL     1       6.886   5.099  14.691  0.00  0.00    +0.000 A 
ATOM      8  C   UNL     1       6.423   5.758  15.895  0.00  0.00    +0.000 A 
ATOM      9  C   UNL     1       7.179   6.848  16.600  0.00  0.00    +0.000 C 
BRANCH   6  10
ATOM     10  N   UNL     1       6.101   3.265  13.218  0.00  0.00    +0.000 N 
ATOM     11  H   UNL     1       5.634   2.364  13.221  0.00  0.00    +0.000 HD
ATOM     12  H   UNL     1       6.506   3.542  12.331  0.00  0.00    +0.000 HD
ENDBRANCH   6  10
BRANCH   7  13
ATOM     13  C   UNL     1       8.034   5.491  13.943  0.00  0.00    +0.000 C 
ATOM     14  N   UNL     1       8.957   5.835  13.338  0.00  0.00    +0.000 NA
ENDBRANCH   7  13
ENDBRANCH   2   4
BRANCH   1  15
ATOM     15  C   UNL     1       3.330   3.537  17.973  0.00  0.00    +0.000 C 
ATOM     16  C   UNL     1       4.070   2.955  19.191  0.00  0.00    +0.000 C 
ATOM     17  C   UNL     1       3.253   2.785  20.453  0.00  0.00    +0.000 C 
ATOM     18  C   UNL     1       1.905   2.125  20.228  0.00  0.00    +0.000 C 
ATOM     19  C   UNL     1       1.149   2.569  18.980  0.00  0.00    +0.000 C 
ATOM     20  C   UNL     1       2.020   2.762  17.744  0.00  0.00    +0.000 C 
ENDBRANCH   1  15
BRANCH   1  22
ATOM     21  C   UNL     1       2.612   6.119  20.160  0.00  0.00    +0.000 C 
ATOM     22  C   UNL     1       2.239   5.733  18.735  0.00  0.00    +0.000 C 
ENDBRANCH   1  22
TORSDOF 5
ENDMDL
MODEL 8
REMARK VINA RESULT:      -5.5      2.217      3.590
REMARK  Name = 
REMARK  7 active torsions:
REMARK  status: ('A' for Active; 'I' for Inactive)
REMARK    1  A    between atoms: C_1  and  C_2
REMARK    2  A    between atoms: C_2  and  N_3
REMARK    3  A    between atoms: N_3  and  C_15
REMARK    4  A    between atoms: C_4  and  C_6
REMARK    5  A    between atoms: C_8  and  N_9
REMARK    6  A    between atoms: C_10  and  C_11
REMARK    7  A    between atoms: C_13  and  C_14
REMARK                            x       y       z     vdW  Elec       q    Type
REMARK                         _______ _______ _______ _____ _____    ______ ____
ROOT
ATOM      1  N   UNL     1       3.193   3.653  19.703  0.00  0.00    +0.000 N 
ATOM      2  C   UNL     1       4.562   3.437  19.315  0.00  0.00    +0.000 C 
ATOM      3  O   UNL     1       5.229   2.596  19.926  0.00  0.00    +0.000 OA
ENDROOT
BRANCH   2   4
ATOM      4  C   UNL     1       5.227   4.275  18.292  0.00  0.00    +0.000 A 
ATOM      5  S   UNL     1       5.058   4.023  16.608  0.00  0.00    +0.000 S 
ATOM      6  C   UNL     1       5.652   5.556  16.217  0.00  0.00    +0.000 A 
ATOM      7  C   UNL     1       6.388   6.033  17.278  0.00  0.00    +0.000 A 
ATOM      8  C   UNL     1       6.246   5.222  18.469  0.00  0.00    +0.000 A 
ATOM      9  C   UNL     1       7.033   5.437  19.731  0.00  0.00    +0.000 C 
BRANCH   6  10
ATOM     10  N   UNL     1       5.432   6.067  14.990  0.00  0.00    +0.000 N 
ATOM     11  H   UNL     1       5.573   7.057  14.812  0.00  0.00    +0.000 HD
ATOM     12  H   UNL     1       5.193   5.509  14.178  0.00  0.00    +0.000 HD
ENDBRANCH   6  10
BRANCH   7  13
ATOM     13  C   UNL     1       7.177   7.217  17.193  0.00  0.00    +0.000 C 
ATOM     14  N   UNL     1       7.838   8.164  17.134  0.00  0.00    +0.000 NA
ENDBRANCH   7  13
ENDBRANCH   2   4
BRANCH   1  15
ATOM     15  C   UNL     1       2.275   4.609  19.022  0.00  0.00    +0.000 C 
ATOM     16  C   UNL     1       1.090   5.035  19.909  0.00  0.00    +0.000 C 
ATOM     17  C   UNL     1       1.344   6.185  20.858  0.00  0.00    +0.000 C 
ATOM     18  C   UNL     1       2.039   7.371  20.216  0.00  0.00    +0.000 C 
ATOM     19  C   UNL     1       3.160   7.033  19.238  0.00  0.00    +0.000 C 
ATOM     20  C   UNL     1       2.873   5.845  18.328  0.00  0.00    +0.000 C 
ENDBRANCH   1  15
BRANCH   1  22
ATOM     21  C   UNL     1       1.359   2.253  20.754  0.00  0.00    +0.000 C 
ATOM     22  C   UNL     1       2.728   2.907  20.891  0.00  0.00    +0.000 C 
ENDBRANCH   1  22
TORSDOF 5
ENDMDL
MODEL 9
REMARK VINA RESULT:      -5.4      9.692     11.586
REMARK  Name = 
REMARK  7 active torsions:
REMARK  status: ('A' for Active; 'I' for Inactive)
REMARK    1  A    between atoms: C_1  and  C_2
REMARK    2  A    between atoms: C_2  and  N_3
REMARK    3  A    between atoms: N_3  and  C_15
REMARK    4  A    between atoms: C_4  and  C_6
REMARK    5  A    between atoms: C_8  and  N_9
REMARK    6  A    between atoms: C_10  and  C_11
REMARK    7  A    between atoms: C_13  and  C_14
REMARK                            x       y       z     vdW  Elec       q    Type
REMARK                         _______ _______ _______ _____ _____    ______ ____
ROOT
ATOM      1  N   UNL     1       9.113  14.567  18.348  0.00  0.00    +0.000 N 
ATOM      2  C   UNL     1       8.167  15.642  18.487  0.00  0.00    +0.000 C 
ATOM      3  O   UNL     1       8.476  16.766  18.076  0.00  0.00    +0.000 OA
ENDROOT
BRANCH   2   4
ATOM      4  C   UNL     1       6.890  15.470  19.214  0.00  0.00    +0.000 A 
ATOM      5  S   UNL     1       5.359  15.467  18.449  0.00  0.00    +0.000 S 
ATOM      6  C   UNL     1       4.583  14.775  19.781  0.00  0.00    +0.000 A 
ATOM      7  C   UNL     1       5.347  14.991  20.905  0.00  0.00    +0.000 A 
ATOM      8  C   UNL     1       6.662  15.516  20.597  0.00  0.00    +0.000 A 
ATOM      9  C   UNL     1       7.653  15.961  21.635  0.00  0.00    +0.000 C 
BRANCH   6  10
ATOM     10  N   UNL     1       3.370  14.209  19.630  0.00  0.00    +0.000 N 
ATOM     11  H   UNL     1       2.535  14.785  19.585  0.00  0.00    +0.000 HD
ATOM     12  H   UNL     1       3.222  13.217  19.484  0.00  0.00    +0.000 HD
ENDBRANCH   6  10
BRANCH   7  13
ATOM     13  C   UNL     1       4.880  14.695  22.218  0.00  0.00    +0.000 C 
ATOM     14  N   UNL     1       4.484  14.438  23.273  0.00  0.00    +0.000 NA
ENDBRANCH   7  13
ENDBRANCH   2   4
BRANCH   1  15
ATOM     15  C   UNL     1       8.847  13.163  18.767  0.00  0.00    +0.000 C 
ATOM     16  C   UNL     1       9.430  12.125  17.790  0.00  0.00    +0.000 C 
ATOM     17  C   UNL     1      10.882  11.755  17.994  0.00  0.00    +0.000 C 
ATOM     18  C   UNL     1      11.243  11.453  19.437  0.00  0.00    +0.000 C 
ATOM     19  C   UNL     1      10.619  12.373  20.483  0.00  0.00    +0.000 C 
ATOM     20  C   UNL     1       9.167  12.747  20.214  0.00  0.00    +0.000 C 
ENDBRANCH   1  15
BRANCH   1  22
ATOM     21  C   UNL     1      11.463  15.384  18.843  0.00  0.00    +0.000 C 
ATOM     22  C   UNL     1      10.440  14.934  17.808  0.00  0.00    +0.000 C 
ENDBRANCH   1  22
TORSDOF 5
ENDMDL
