MODEL 1
REMARK VINA RESULT:      -7.7      0.000      0.000
REMARK  Name = 
REMARK  11 active torsions:
REMARK  status: ('A' for Active; 'I' for Inactive)
REMARK    1  A    between atoms: C_1  and  C_2
REMARK    2  A    between atoms: N_4  and  C_5
REMARK    3  A    between atoms: C_8  and  S_9
REMARK    4  A    between atoms: S_9  and  N_12
REMARK    5  A    between atoms: N_12  and  C_13
REMARK    6  A    between atoms: N_12  and  C_14
REMARK    7  A    between atoms: C_14  and  C_15
REMARK    8  A    between atoms: C_15  and  O_17
REMARK    9  A    between atoms: O_17  and  C_18
REMARK   10  A    between atoms: C_18  and  C_19
REMARK   11  A    between atoms: N_21  and  C_22
REMARK                            x       y       z     vdW  Elec       q    Type
REMARK                         _______ _______ _______ _____ _____    ______ ____
ROOT
ATOM      1  N   UNL     1       1.808   5.107  20.435  0.00  0.00    +0.000 NA
ATOM      2  C   UNL     1       0.693   4.283  19.905  0.00  0.00    +0.000 C 
ENDROOT
BRANCH   1   3
ATOM      3  S   UNL     1       2.678   5.964  19.229  0.00  0.00    +0.000 S 
ATOM      4  O   UNL     1       2.363   5.341  17.960  0.00  0.00    +0.000 OA
ATOM      5  O   UNL     1       4.050   6.089  19.678  0.00  0.00    +0.000 OA
BRANCH   3   9
ATOM      6  C   UNL     1       0.962  10.204  19.398  0.00  0.00    +0.000 A 
ATOM      7  C   UNL     1       0.960   9.377  20.526  0.00  0.00    +0.000 A 
ATOM      8  C   UNL     1       1.461   8.074  20.461  0.00  0.00    +0.000 A 
ATOM      9  C   UNL     1       1.961   7.587  19.257  0.00  0.00    +0.000 A 
ATOM     10  C   UNL     1       1.953   8.389  18.111  0.00  0.00    +0.000 A 
ATOM     11  C   UNL     1       1.441   9.693  18.183  0.00  0.00    +0.000 A 
BRANCH   6  15
ATOM     12  C   UNL     1       0.496  13.953  19.463  0.00  0.00    +0.000 C 
ATOM     13  C   UNL     1       1.285  12.678  19.320  0.00  0.00    +0.000 C 
ATOM     14  O   UNL     1       2.495  12.717  19.128  0.00  0.00    +0.000 OA
ATOM     15  N   UNL     1       0.499  11.541  19.426  0.00  0.00    +0.000 N 
ATOM     16  H   UNL     1      -0.505  11.674  19.419  0.00  0.00    +0.000 HD
ENDBRANCH   6  15
ENDBRANCH   3   9
ENDBRANCH   1   3
BRANCH   1  17
ATOM     17  C   UNL     1       2.736   4.322  21.312  0.00  0.00    +0.000 C 
BRANCH  17  18
ATOM     18  C   UNL     1       2.341   2.878  21.519  0.00  0.00    +0.000 C 
ATOM     19  O   UNL     1       1.586   2.486  22.403  0.00  0.00    +0.000 OA
BRANCH  18  20
ATOM     20  O   UNL     1       2.974   2.052  20.645  0.00  0.00    +0.000 OA
BRANCH  20  21
ATOM     21  C   UNL     1       4.312   2.423  20.318  0.00  0.00    +0.000 C 
BRANCH  21  22
ATOM     22  C   UNL     1       4.519   2.785  18.840  0.00  0.00    +0.000 C 
ATOM     23  O   UNL     1       3.779   2.311  17.983  0.00  0.00    +0.000 OA
ATOM     24  N   UNL     1       5.597   3.618  18.596  0.00  0.00    +0.000 N 
ATOM     25  H   UNL     1       6.243   3.794  19.370  0.00  0.00    +0.000 HD
BRANCH  24  26
ATOM     26  C   UNL     1       5.967   4.151  17.331  0.00  0.00    +0.000 A 
ATOM     27  C   UNL     1       5.422   3.701  16.129  0.00  0.00    +0.000 A 
ATOM     28  C   UNL     1       5.836   4.253  14.916  0.00  0.00    +0.000 A 
ATOM     29  C   UNL     1       6.784   5.259  14.936  0.00  0.00    +0.000 A 
ATOM     30  N   UNL     1       7.321   5.753  16.068  0.00  0.00    +0.000 NA
ATOM     31  C   UNL     1       6.901   5.192  17.230  0.00  0.00    +0.000 A 
ATOM     32 CL   UNL     1       7.658   5.869  18.620  0.00  0.00    +0.000 Cl
ENDBRANCH  24  26
ENDBRANCH  21  22
ENDBRANCH  20  21
ENDBRANCH  18  20
ENDBRANCH  17  18
ENDBRANCH   1  17
TORSDOF 9
ENDMDL
MODEL 2
REMARK VINA RESULT:      -7.1      1.550      1.643
REMARK  Name = 
REMARK  11 active torsions:
REMARK  status: ('A' for Active; 'I' for Inactive)
REMARK    1  A    between atoms: C_1  and  C_2
REMARK    2  A    between atoms: N_4  and  C_5
REMARK    3  A    between atoms: C_8  and  S_9
REMARK    4  A    between atoms: S_9  and  N_12
REMARK    5  A    between atoms: N_12  and  C_13
REMARK    6  A    between atoms: N_12  and  C_14
REMARK    7  A    between atoms: C_14  and  C_15
REMARK    8  A    between atoms: C_15  and  O_17
REMARK    9  A    between atoms: O_17  and  C_18
REMARK   10  A    between atoms: C_18  and  C_19
REMARK   11  A    between atoms: N_21  and  C_22
REMARK                            x       y       z     vdW  Elec       q    Type
REMARK                         _______ _______ _______ _____ _____    ______ ____
ROOT
ATOM      1  N   UNL     1       1.489   5.276  18.778  0.00  0.00    +0.000 NA
ATOM      2  C   UNL     1       1.603   4.462  17.543  0.00  0.00    +0.000 C 
ENDROOT
BRANCH   1   3
ATOM      3  S   UNL     1       2.740   6.437  18.968  0.00  0.00    +0.000 S 
ATOM      4  O   UNL     1       3.412   6.544  17.690  0.00  0.00    +0.000 OA
ATOM      5  O   UNL     1       3.473   6.103  20.172  0.00  0.00    +0.000 OA
BRANCH   3   9
ATOM      6  C   UNL     1       0.635  10.400  19.870  0.00  0.00    +0.000 A 
ATOM      7  C   UNL     1       0.777   9.417  20.854  0.00  0.00    +0.000 A 
ATOM      8  C   UNL     1       1.397   8.198  20.565  0.00  0.00    +0.000 A 
ATOM      9  C   UNL     1       1.872   7.953  19.279  0.00  0.00    +0.000 A 
ATOM     10  C   UNL     1       1.721   8.914  18.275  0.00  0.00    +0.000 A 
ATOM     11  C   UNL     1       1.090  10.131  18.571  0.00  0.00    +0.000 A 
BRANCH   6  15
ATOM     12  C   UNL     1      -1.528  13.489  20.114  0.00  0.00    +0.000 C 
ATOM     13  C   UNL     1      -1.230  12.056  19.759  0.00  0.00    +0.000 C 
ATOM     14  O   UNL     1      -2.079  11.367  19.205  0.00  0.00    +0.000 OA
ATOM     15  N   UNL     1       0.047  11.662  20.126  0.00  0.00    +0.000 N 
ATOM     16  H   UNL     1       0.570  12.293  20.721  0.00  0.00    +0.000 HD
ENDBRANCH   6  15
ENDBRANCH   3   9
ENDBRANCH   1   3
BRANCH   1  17
ATOM     17  C   UNL     1       1.345   4.435  20.009  0.00  0.00    +0.000 C 
BRANCH  17  18
ATOM     18  C   UNL     1       1.099   2.967  19.748  0.00  0.00    +0.000 C 
ATOM     19  O   UNL     1       0.194   2.530  19.045  0.00  0.00    +0.000 OA
BRANCH  18  20
ATOM     20  O   UNL     1       1.967   2.180  20.438  0.00  0.00    +0.000 OA
BRANCH  20  21
ATOM     21  C   UNL     1       3.277   2.721  20.603  0.00  0.00    +0.000 C 
BRANCH  21  22
ATOM     22  C   UNL     1       4.149   2.650  19.341  0.00  0.00    +0.000 C 
ATOM     23  O   UNL     1       4.367   1.566  18.806  0.00  0.00    +0.000 OA
ATOM     24  N   UNL     1       4.665   3.865  18.928  0.00  0.00    +0.000 N 
ATOM     25  H   UNL     1       4.561   4.663  19.562  0.00  0.00    +0.000 HD
BRANCH  24  26
ATOM     26  C   UNL     1       5.445   4.085  17.760  0.00  0.00    +0.000 A 
ATOM     27  C   UNL     1       5.038   3.680  16.489  0.00  0.00    +0.000 A 
ATOM     28  C   UNL     1       5.854   3.909  15.381  0.00  0.00    +0.000 A 
ATOM     29  C   UNL     1       7.061   4.555  15.570  0.00  0.00    +0.000 A 
ATOM     30  N   UNL     1       7.490   4.995  16.769  0.00  0.00    +0.000 NA
ATOM     31  C   UNL     1       6.676   4.752  17.826  0.00  0.00    +0.000 A 
ATOM     32 CL   UNL     1       7.316   5.327  19.318  0.00  0.00    +0.000 Cl
ENDBRANCH  24  26
ENDBRANCH  21  22
ENDBRANCH  20  21
ENDBRANCH  18  20
ENDBRANCH  17  18
ENDBRANCH   1  17
TORSDOF 9
ENDMDL
MODEL 3
REMARK VINA RESULT:      -6.9      2.960      8.584
REMARK  Name = 
REMARK  11 active torsions:
REMARK  status: ('A' for Active; 'I' for Inactive)
REMARK    1  A    between atoms: C_1  and  C_2
REMARK    2  A    between atoms: N_4  and  C_5
REMARK    3  A    between atoms: C_8  and  S_9
REMARK    4  A    between atoms: S_9  and  N_12
REMARK    5  A    between atoms: N_12  and  C_13
REMARK    6  A    between atoms: N_12  and  C_14
REMARK    7  A    between atoms: C_14  and  C_15
REMARK    8  A    between atoms: C_15  and  O_17
REMARK    9  A    between atoms: O_17  and  C_18
REMARK   10  A    between atoms: C_18  and  C_19
REMARK   11  A    between atoms: N_21  and  C_22
REMARK                            x       y       z     vdW  Elec       q    Type
REMARK                         _______ _______ _______ _____ _____    ______ ____
ROOT
ATOM      1  N   UNL     1       2.414   4.276  18.677  0.00  0.00    +0.000 NA
ATOM      2  C   UNL     1       1.140   3.575  18.977  0.00  0.00    +0.000 C 
ENDROOT
BRANCH   1   3
ATOM      3  S   UNL     1       3.787   3.246  18.641  0.00  0.00    +0.000 S 
ATOM      4  O   UNL     1       3.346   1.975  18.105  0.00  0.00    +0.000 OA
ATOM      5  O   UNL     1       4.433   3.327  19.935  0.00  0.00    +0.000 OA
BRANCH   3   9
ATOM      6  C   UNL     1       6.669   5.083  15.596  0.00  0.00    +0.000 A 
ATOM      7  C   UNL     1       7.051   4.887  16.926  0.00  0.00    +0.000 A 
ATOM      8  C   UNL     1       6.158   4.350  17.858  0.00  0.00    +0.000 A 
ATOM      9  C   UNL     1       4.867   4.014  17.461  0.00  0.00    +0.000 A 
ATOM     10  C   UNL     1       4.456   4.222  16.140  0.00  0.00    +0.000 A 
ATOM     11  C   UNL     1       5.357   4.769  15.214  0.00  0.00    +0.000 A 
BRANCH   6  15
ATOM     12  C   UNL     1       8.766   5.818  12.540  0.00  0.00    +0.000 C 
ATOM     13  C   UNL     1       7.687   5.112  13.317  0.00  0.00    +0.000 C 
ATOM     14  O   UNL     1       7.032   4.217  12.793  0.00  0.00    +0.000 OA
ATOM     15  N   UNL     1       7.550   5.589  14.611  0.00  0.00    +0.000 N 
ATOM     16  H   UNL     1       8.050   6.439  14.843  0.00  0.00    +0.000 HD
ENDBRANCH   6  15
ENDBRANCH   3   9
ENDBRANCH   1   3
BRANCH   1  17
ATOM     17  C   UNL     1       2.647   5.452  19.575  0.00  0.00    +0.000 C 
BRANCH  17  18
ATOM     18  C   UNL     1       2.752   6.782  18.864  0.00  0.00    +0.000 C 
ATOM     19  O   UNL     1       3.511   7.009  17.928  0.00  0.00    +0.000 OA
BRANCH  18  20
ATOM     20  O   UNL     1       1.947   7.720  19.428  0.00  0.00    +0.000 OA
BRANCH  20  21
ATOM     21  C   UNL     1       1.621   8.826  18.589  0.00  0.00    +0.000 C 
BRANCH  21  22
ATOM     22  C   UNL     1       1.093  10.054  19.345  0.00  0.00    +0.000 C 
ATOM     23  O   UNL     1       1.574  11.162  19.126  0.00  0.00    +0.000 OA
ATOM     24  N   UNL     1       0.108   9.778  20.277  0.00  0.00    +0.000 N 
ATOM     25  H   UNL     1      -0.074   8.794  20.495  0.00  0.00    +0.000 HD
BRANCH  24  26
ATOM     26  C   UNL     1      -0.590  10.738  21.060  0.00  0.00    +0.000 A 
ATOM     27  C   UNL     1      -1.315  11.790  20.501  0.00  0.00    +0.000 A 
ATOM     28  C   UNL     1      -1.967  12.710  21.322  0.00  0.00    +0.000 A 
ATOM     29  C   UNL     1      -1.889  12.548  22.693  0.00  0.00    +0.000 A 
ATOM     30  N   UNL     1      -1.228  11.534  23.285  0.00  0.00    +0.000 NA
ATOM     31  C   UNL     1      -0.602  10.659  22.459  0.00  0.00    +0.000 A 
ATOM     32 CL   UNL     1       0.235   9.413  23.305  0.00  0.00    +0.000 Cl
ENDBRANCH  24  26
ENDBRANCH  21  22
ENDBRANCH  20  21
ENDBRANCH  18  20
ENDBRANCH  17  18
ENDBRANCH   1  17
TORSDOF 9
ENDMDL
MODEL 4
REMARK VINA RESULT:      -6.8      2.343      3.872
REMARK  Name = 
REMARK  11 active torsions:
REMARK  status: ('A' for Active; 'I' for Inactive)
REMARK    1  A    between atoms: C_1  and  C_2
REMARK    2  A    between atoms: N_4  and  C_5
REMARK    3  A    between atoms: C_8  and  S_9
REMARK    4  A    between atoms: S_9  and  N_12
REMARK    5  A    between atoms: N_12  and  C_13
REMARK    6  A    between atoms: N_12  and  C_14
REMARK    7  A    between atoms: C_14  and  C_15
REMARK    8  A    between atoms: C_15  and  O_17
REMARK    9  A    between atoms: O_17  and  C_18
REMARK   10  A    between atoms: C_18  and  C_19
REMARK   11  A    between atoms: N_21  and  C_22
REMARK                            x       y       z     vdW  Elec       q    Type
REMARK                         _______ _______ _______ _____ _____    ______ ____
ROOT
ATOM      1  N   UNL     1       4.287   3.712  19.479  0.00  0.00    +0.000 NA
ATOM      2  C   UNL     1       4.681   2.474  20.197  0.00  0.00    +0.000 C 
ENDROOT
BRANCH   1   3
ATOM      3  S   UNL     1       2.605   3.826  19.154  0.00  0.00    +0.000 S 
ATOM      4  O   UNL     1       1.917   3.230  20.280  0.00  0.00    +0.000 OA
ATOM      5  O   UNL     1       2.383   3.347  17.805  0.00  0.00    +0.000 OA
BRANCH   3   9
ATOM      6  C   UNL     1       1.920   8.351  19.264  0.00  0.00    +0.000 A 
ATOM      7  C   UNL     1       1.649   7.551  20.379  0.00  0.00    +0.000 A 
ATOM      8  C   UNL     1       1.836   6.166  20.331  0.00  0.00    +0.000 A 
ATOM      9  C   UNL     1       2.287   5.572  19.155  0.00  0.00    +0.000 A 
ATOM     10  C   UNL     1       2.542   6.350  18.022  0.00  0.00    +0.000 A 
ATOM     11  C   UNL     1       2.345   7.738  18.076  0.00  0.00    +0.000 A 
BRANCH   6  15
ATOM     12  C   UNL     1       0.904  11.969  18.869  0.00  0.00    +0.000 C 
ATOM     13  C   UNL     1       0.715  10.478  18.762  0.00  0.00    +0.000 C 
ATOM     14  O   UNL     1      -0.305  10.019  18.259  0.00  0.00    +0.000 OA
ATOM     15  N   UNL     1       1.781   9.759  19.279  0.00  0.00    +0.000 N 
ATOM     16  H   UNL     1       2.473  10.277  19.807  0.00  0.00    +0.000 HD
ENDBRANCH   6  15
ENDBRANCH   3   9
ENDBRANCH   1   3
BRANCH   1  17
ATOM     17  C   UNL     1       5.092   3.936  18.235  0.00  0.00    +0.000 C 
BRANCH  17  18
ATOM     18  C   UNL     1       6.338   4.769  18.428  0.00  0.00    +0.000 C 
ATOM     19  O   UNL     1       7.473   4.310  18.504  0.00  0.00    +0.000 OA
BRANCH  18  20
ATOM     20  O   UNL     1       6.045   6.088  18.569  0.00  0.00    +0.000 OA
BRANCH  20  21
ATOM     21  C   UNL     1       6.520   6.932  17.521  0.00  0.00    +0.000 C 
BRANCH  21  22
ATOM     22  C   UNL     1       6.184   6.429  16.110  0.00  0.00    +0.000 C 
ATOM     23  O   UNL     1       5.130   6.761  15.575  0.00  0.00    +0.000 OA
ATOM     24  N   UNL     1       7.126   5.576  15.562  0.00  0.00    +0.000 N 
ATOM     25  H   UNL     1       7.868   5.233  16.179  0.00  0.00    +0.000 HD
BRANCH  24  26
ATOM     26  C   UNL     1       7.089   5.025  14.252  0.00  0.00    +0.000 A 
ATOM     27  C   UNL     1       7.826   5.544  13.189  0.00  0.00    +0.000 A 
ATOM     28  C   UNL     1       7.737   4.970  11.921  0.00  0.00    +0.000 A 
ATOM     29  C   UNL     1       6.915   3.872  11.748  0.00  0.00    +0.000 A 
ATOM     30  N   UNL     1       6.204   3.311  12.745  0.00  0.00    +0.000 NA
ATOM     31  C   UNL     1       6.309   3.896  13.964  0.00  0.00    +0.000 A 
ATOM     32 CL   UNL     1       5.348   3.126  15.169  0.00  0.00    +0.000 Cl
ENDBRANCH  24  26
ENDBRANCH  21  22
ENDBRANCH  20  21
ENDBRANCH  18  20
ENDBRANCH  17  18
ENDBRANCH   1  17
TORSDOF 9
ENDMDL
MODEL 5
REMARK VINA RESULT:      -6.8      5.728      8.651
REMARK  Name = 
REMARK  11 active torsions:
REMARK  status: ('A' for Active; 'I' for Inactive)
REMARK    1  A    between atoms: C_1  and  C_2
REMARK    2  A    between atoms: N_4  and  C_5
REMARK    3  A    between atoms: C_8  and  S_9
REMARK    4  A    between atoms: S_9  and  N_12
REMARK    5  A    between atoms: N_12  and  C_13
REMARK    6  A    between atoms: N_12  and  C_14
REMARK    7  A    between atoms: C_14  and  C_15
REMARK    8  A    between atoms: C_15  and  O_17
REMARK    9  A    between atoms: O_17  and  C_18
REMARK   10  A    between atoms: C_18  and  C_19
REMARK   11  A    between atoms: N_21  and  C_22
REMARK                            x       y       z     vdW  Elec       q    Type
REMARK                         _______ _______ _______ _____ _____    ______ ____
ROOT
ATOM      1  N   UNL     1       6.298   6.643  16.131  0.00  0.00    +0.000 NA
ATOM      2  C   UNL     1       5.308   7.119  17.129  0.00  0.00    +0.000 C 
ENDROOT
BRANCH   1   3
ATOM      3  S   UNL     1       6.291   4.942  15.896  0.00  0.00    +0.000 S 
ATOM      4  O   UNL     1       7.635   4.474  16.163  0.00  0.00    +0.000 OA
ATOM      5  O   UNL     1       5.646   4.674  14.627  0.00  0.00    +0.000 OA
BRANCH   3   9
ATOM      6  C   UNL     1       3.535   3.228  19.125  0.00  0.00    +0.000 A 
ATOM      7  C   UNL     1       3.110   3.343  17.798  0.00  0.00    +0.000 A 
ATOM      8  C   UNL     1       3.946   3.892  16.821  0.00  0.00    +0.000 A 
ATOM      9  C   UNL     1       5.217   4.339  17.174  0.00  0.00    +0.000 A 
ATOM     10  C   UNL     1       5.654   4.254  18.499  0.00  0.00    +0.000 A 
ATOM     11  C   UNL     1       4.805   3.710  19.474  0.00  0.00    +0.000 A 
BRANCH   6  15
ATOM     12  C   UNL     1       1.257   2.424  22.030  0.00  0.00    +0.000 C 
ATOM     13  C   UNL     1       1.918   3.329  21.023  0.00  0.00    +0.000 C 
ATOM     14  O   UNL     1       1.703   4.536  21.041  0.00  0.00    +0.000 OA
ATOM     15  N   UNL     1       2.737   2.646  20.138  0.00  0.00    +0.000 N 
ATOM     16  H   UNL     1       2.682   1.634  20.147  0.00  0.00    +0.000 HD
ENDBRANCH   6  15
ENDBRANCH   3   9
ENDBRANCH   1   3
BRANCH   1  17
ATOM     17  C   UNL     1       7.683   7.140  16.414  0.00  0.00    +0.000 C 
BRANCH  17  18
ATOM     18  C   UNL     1       7.924   7.561  17.845  0.00  0.00    +0.000 C 
ATOM     19  O   UNL     1       8.000   6.785  18.792  0.00  0.00    +0.000 OA
BRANCH  18  20
ATOM     20  O   UNL     1       7.987   8.913  17.969  0.00  0.00    +0.000 OA
BRANCH  20  21
ATOM     21  C   UNL     1       8.887   9.391  18.967  0.00  0.00    +0.000 C 
BRANCH  21  22
ATOM     22  C   UNL     1       9.335  10.845  18.764  0.00  0.00    +0.000 C 
ATOM     23  O   UNL     1       8.862  11.510  17.847  0.00  0.00    +0.000 OA
ATOM     24  N   UNL     1      10.305  11.279  19.651  0.00  0.00    +0.000 N 
ATOM     25  H   UNL     1      10.748  10.575  20.249  0.00  0.00    +0.000 HD
BRANCH  24  26
ATOM     26  C   UNL     1      10.842  12.594  19.720  0.00  0.00    +0.000 A 
ATOM     27  C   UNL     1      11.830  13.056  18.852  0.00  0.00    +0.000 A 
ATOM     28  C   UNL     1      12.329  14.353  18.978  0.00  0.00    +0.000 A 
ATOM     29  C   UNL     1      11.815  15.167  19.970  0.00  0.00    +0.000 A 
ATOM     30  N   UNL     1      10.839  14.783  20.815  0.00  0.00    +0.000 NA
ATOM     31  C   UNL     1      10.379  13.515  20.669  0.00  0.00    +0.000 A 
ATOM     32 CL   UNL     1       9.153  13.106  21.808  0.00  0.00    +0.000 Cl
ENDBRANCH  24  26
ENDBRANCH  21  22
ENDBRANCH  20  21
ENDBRANCH  18  20
ENDBRANCH  17  18
ENDBRANCH   1  17
TORSDOF 9
ENDMDL
MODEL 6
REMARK VINA RESULT:      -6.7      5.260      8.188
REMARK  Name = 
REMARK  11 active torsions:
REMARK  status: ('A' for Active; 'I' for Inactive)
REMARK    1  A    between atoms: C_1  and  C_2
REMARK    2  A    between atoms: N_4  and  C_5
REMARK    3  A    between atoms: C_8  and  S_9
REMARK    4  A    between atoms: S_9  and  N_12
REMARK    5  A    between atoms: N_12  and  C_13
REMARK    6  A    between atoms: N_12  and  C_14
REMARK    7  A    between atoms: C_14  and  C_15
REMARK    8  A    between atoms: C_15  and  O_17
REMARK    9  A    between atoms: O_17  and  C_18
REMARK   10  A    between atoms: C_18  and  C_19
REMARK   11  A    between atoms: N_21  and  C_22
REMARK                            x       y       z     vdW  Elec       q    Type
REMARK                         _______ _______ _______ _____ _____    ______ ____
ROOT
ATOM      1  N   UNL     1       6.238   6.475  15.914  0.00  0.00    +0.000 NA
ATOM      2  C   UNL     1       5.121   7.021  15.102  0.00  0.00    +0.000 C 
ENDROOT
BRANCH   1   3
ATOM      3  S   UNL     1       6.359   4.763  15.873  0.00  0.00    +0.000 S 
ATOM      4  O   UNL     1       7.711   4.427  16.266  0.00  0.00    +0.000 OA
ATOM      5  O   UNL     1       5.815   4.312  14.608  0.00  0.00    +0.000 OA
BRANCH   3   9
ATOM      6  C   UNL     1       3.483   3.224  19.085  0.00  0.00    +0.000 A 
ATOM      7  C   UNL     1       3.034   3.519  17.793  0.00  0.00    +0.000 A 
ATOM      8  C   UNL     1       3.912   4.014  16.824  0.00  0.00    +0.000 A 
ATOM      9  C   UNL     1       5.249   4.226  17.149  0.00  0.00    +0.000 A 
ATOM     10  C   UNL     1       5.714   3.959  18.440  0.00  0.00    +0.000 A 
ATOM     11  C   UNL     1       4.824   3.470  19.409  0.00  0.00    +0.000 A 
BRANCH   6  15
ATOM     12  C   UNL     1       1.147   2.547  21.976  0.00  0.00    +0.000 C 
ATOM     13  C   UNL     1       1.881   3.416  20.989  0.00  0.00    +0.000 C 
ATOM     14  O   UNL     1       1.770   4.636  21.038  0.00  0.00    +0.000 OA
ATOM     15  N   UNL     1       2.639   2.688  20.085  0.00  0.00    +0.000 N 
ATOM     16  H   UNL     1       2.497   1.685  20.070  0.00  0.00    +0.000 HD
ENDBRANCH   6  15
ENDBRANCH   3   9
ENDBRANCH   1   3
BRANCH   1  17
ATOM     17  C   UNL     1       6.221   6.979  17.325  0.00  0.00    +0.000 C 
BRANCH  17  18
ATOM     18  C   UNL     1       7.583   7.115  17.965  0.00  0.00    +0.000 C 
ATOM     19  O   UNL     1       8.222   6.183  18.441  0.00  0.00    +0.000 OA
BRANCH  18  20
ATOM     20  O   UNL     1       7.993   8.411  18.006  0.00  0.00    +0.000 OA
BRANCH  20  21
ATOM     21  C   UNL     1       8.836   8.747  19.107  0.00  0.00    +0.000 C 
BRANCH  21  22
ATOM     22  C   UNL     1       9.252  10.224  19.151  0.00  0.00    +0.000 C 
ATOM     23  O   UNL     1       9.032  10.894  20.156  0.00  0.00    +0.000 OA
ATOM     24  N   UNL     1       9.826  10.696  17.983  0.00  0.00    +0.000 N 
ATOM     25  H   UNL     1       9.786  10.091  17.158  0.00  0.00    +0.000 HD
BRANCH  24  26
ATOM     26  C   UNL     1      10.355  12.001  17.784  0.00  0.00    +0.000 A 
ATOM     27  C   UNL     1      11.719  12.285  17.850  0.00  0.00    +0.000 A 
ATOM     28  C   UNL     1      12.177  13.588  17.661  0.00  0.00    +0.000 A 
ATOM     29  C   UNL     1      11.255  14.583  17.394  0.00  0.00    +0.000 A 
ATOM     30  N   UNL     1       9.930  14.360  17.288  0.00  0.00    +0.000 NA
ATOM     31  C   UNL     1       9.516  13.083  17.483  0.00  0.00    +0.000 A 
ATOM     32 CL   UNL     1       7.809  12.899  17.352  0.00  0.00    +0.000 Cl
ENDBRANCH  24  26
ENDBRANCH  21  22
ENDBRANCH  20  21
ENDBRANCH  18  20
ENDBRANCH  17  18
ENDBRANCH   1  17
TORSDOF 9
ENDMDL
MODEL 7
REMARK VINA RESULT:      -6.7      5.204      8.412
REMARK  Name = 
REMARK  11 active torsions:
REMARK  status: ('A' for Active; 'I' for Inactive)
REMARK    1  A    between atoms: C_1  and  C_2
REMARK    2  A    between atoms: N_4  and  C_5
REMARK    3  A    between atoms: C_8  and  S_9
REMARK    4  A    between atoms: S_9  and  N_12
REMARK    5  A    between atoms: N_12  and  C_13
REMARK    6  A    between atoms: N_12  and  C_14
REMARK    7  A    between atoms: C_14  and  C_15
REMARK    8  A    between atoms: C_15  and  O_17
REMARK    9  A    between atoms: O_17  and  C_18
REMARK   10  A    between atoms: C_18  and  C_19
REMARK   11  A    between atoms: N_21  and  C_22
REMARK                            x       y       z     vdW  Elec       q    Type
REMARK                         _______ _______ _______ _____ _____    ______ ____
ROOT
ATOM      1  N   UNL     1       6.368   6.921  16.434  0.00  0.00    +0.000 NA
ATOM      2  C   UNL     1       5.371   7.362  17.441  0.00  0.00    +0.000 C 
ENDROOT
BRANCH   1   3
ATOM      3  S   UNL     1       6.230   5.268  15.992  0.00  0.00    +0.000 S 
ATOM      4  O   UNL     1       7.541   4.677  16.161  0.00  0.00    +0.000 OA
ATOM      5  O   UNL     1       5.542   5.207  14.720  0.00  0.00    +0.000 OA
BRANCH   3   9
ATOM      6  C   UNL     1       3.404   3.372  19.054  0.00  0.00    +0.000 A 
ATOM      7  C   UNL     1       2.931   3.834  17.821  0.00  0.00    +0.000 A 
ATOM      8  C   UNL     1       3.794   4.435  16.901  0.00  0.00    +0.000 A 
ATOM      9  C   UNL     1       5.141   4.588  17.217  0.00  0.00    +0.000 A 
ATOM     10  C   UNL     1       5.631   4.153  18.452  0.00  0.00    +0.000 A 
ATOM     11  C   UNL     1       4.756   3.558  19.374  0.00  0.00    +0.000 A 
BRANCH   6  15
ATOM     12  C   UNL     1       1.263   2.316  21.983  0.00  0.00    +0.000 C 
ATOM     13  C   UNL     1       2.045   3.294  21.146  0.00  0.00    +0.000 C 
ATOM     14  O   UNL     1       2.159   4.462  21.503  0.00  0.00    +0.000 OA
ATOM     15  N   UNL     1       2.574   2.724  19.999  0.00  0.00    +0.000 N 
ATOM     16  H   UNL     1       2.256   1.792  19.760  0.00  0.00    +0.000 HD
ENDBRANCH   6  15
ENDBRANCH   3   9
ENDBRANCH   1   3
BRANCH   1  17
ATOM     17  C   UNL     1       7.773   7.256  16.833  0.00  0.00    +0.000 C 
BRANCH  17  18
ATOM     18  C   UNL     1       8.048   7.168  18.317  0.00  0.00    +0.000 C 
ATOM     19  O   UNL     1       7.874   6.161  18.995  0.00  0.00    +0.000 OA
BRANCH  18  20
ATOM     20  O   UNL     1       8.455   8.361  18.825  0.00  0.00    +0.000 OA
BRANCH  20  21
ATOM     21  C   UNL     1       8.486   9.440  17.892  0.00  0.00    +0.000 C 
BRANCH  21  22
ATOM     22  C   UNL     1       8.975  10.769  18.486  0.00  0.00    +0.000 C 
ATOM     23  O   UNL     1       9.603  10.775  19.541  0.00  0.00    +0.000 OA
ATOM     24  N   UNL     1       8.611  11.892  17.764  0.00  0.00    +0.000 N 
ATOM     25  H   UNL     1       7.934  11.767  17.005  0.00  0.00    +0.000 HD
BRANCH  24  26
ATOM     26  C   UNL     1       8.989  13.230  18.059  0.00  0.00    +0.000 A 
ATOM     27  C   UNL     1       8.159  14.119  18.742  0.00  0.00    +0.000 A 
ATOM     28  C   UNL     1       8.578  15.427  18.989  0.00  0.00    +0.000 A 
ATOM     29  C   UNL     1       9.833  15.813  18.556  0.00  0.00    +0.000 A 
ATOM     30  N   UNL     1      10.687  14.987  17.920  0.00  0.00    +0.000 NA
ATOM     31  C   UNL     1      10.247  13.725  17.691  0.00  0.00    +0.000 A 
ATOM     32 CL   UNL     1      11.395  12.752  16.852  0.00  0.00    +0.000 Cl
ENDBRANCH  24  26
ENDBRANCH  21  22
ENDBRANCH  20  21
ENDBRANCH  18  20
ENDBRANCH  17  18
ENDBRANCH   1  17
TORSDOF 9
ENDMDL
MODEL 8
REMARK VINA RESULT:      -6.7      4.568      6.206
REMARK  Name = 
REMARK  11 active torsions:
REMARK  status: ('A' for Active; 'I' for Inactive)
REMARK    1  A    between atoms: C_1  and  C_2
REMARK    2  A    between atoms: N_4  and  C_5
REMARK    3  A    between atoms: C_8  and  S_9
REMARK    4  A    between atoms: S_9  and  N_12
REMARK    5  A    between atoms: N_12  and  C_13
REMARK    6  A    between atoms: N_12  and  C_14
REMARK    7  A    between atoms: C_14  and  C_15
REMARK    8  A    between atoms: C_15  and  O_17
REMARK    9  A    between atoms: O_17  and  C_18
REMARK   10  A    between atoms: C_18  and  C_19
REMARK   11  A    between atoms: N_21  and  C_22
REMARK                            x       y       z     vdW  Elec       q    Type
REMARK                         _______ _______ _______ _____ _____    ______ ____
ROOT
ATOM      1  N   UNL     1      -0.664  10.533  19.631  0.00  0.00    +0.000 NA
ATOM      2  C   UNL     1      -0.995  10.373  18.192  0.00  0.00    +0.000 C 
ENDROOT
BRANCH   1   3
ATOM      3  S   UNL     1      -0.665  12.163  20.170  0.00  0.00    +0.000 S 
ATOM      4  O   UNL     1      -0.642  12.998  18.988  0.00  0.00    +0.000 OA
ATOM      5  O   UNL     1       0.351  12.290  21.194  0.00  0.00    +0.000 OA
BRANCH   3   9
ATOM      6  C   UNL     1      -4.680  12.795  22.278  0.00  0.00    +0.000 A 
ATOM      7  C   UNL     1      -3.517  12.515  23.004  0.00  0.00    +0.000 A 
ATOM      8  C   UNL     1      -2.300  12.297  22.353  0.00  0.00    +0.000 A 
ATOM      9  C   UNL     1      -2.242  12.349  20.963  0.00  0.00    +0.000 A 
ATOM     10  C   UNL     1      -3.396  12.605  20.217  0.00  0.00    +0.000 A 
ATOM     11  C   UNL     1      -4.616  12.815  20.878  0.00  0.00    +0.000 A 
BRANCH   6  15
ATOM     12  C   UNL     1      -7.642  14.151  24.192  0.00  0.00    +0.000 C 
ATOM     13  C   UNL     1      -6.263  14.211  23.588  0.00  0.00    +0.000 C 
ATOM     14  O   UNL     1      -5.568  15.211  23.730  0.00  0.00    +0.000 OA
ATOM     15  N   UNL     1      -5.924  13.058  22.896  0.00  0.00    +0.000 N 
ATOM     16  H   UNL     1      -6.666  12.388  22.729  0.00  0.00    +0.000 HD
ENDBRANCH   6  15
ENDBRANCH   3   9
ENDBRANCH   1   3
BRANCH   1  17
ATOM     17  C   UNL     1       0.612   9.844  20.006  0.00  0.00    +0.000 C 
BRANCH  17  18
ATOM     18  C   UNL     1       0.485   8.845  21.133  0.00  0.00    +0.000 C 
ATOM     19  O   UNL     1      -0.498   8.740  21.859  0.00  0.00    +0.000 OA
BRANCH  18  20
ATOM     20  O   UNL     1       1.620   8.114  21.289  0.00  0.00    +0.000 OA
BRANCH  20  21
ATOM     21  C   UNL     1       1.584   6.807  20.719  0.00  0.00    +0.000 C 
BRANCH  21  22
ATOM     22  C   UNL     1       2.597   6.588  19.585  0.00  0.00    +0.000 C 
ATOM     23  O   UNL     1       2.519   7.254  18.556  0.00  0.00    +0.000 OA
ATOM     24  N   UNL     1       3.522   5.587  19.824  0.00  0.00    +0.000 N 
ATOM     25  H   UNL     1       3.367   4.984  20.637  0.00  0.00    +0.000 HD
BRANCH  24  26
ATOM     26  C   UNL     1       4.601   5.229  18.970  0.00  0.00    +0.000 A 
ATOM     27  C   UNL     1       5.924   5.586  19.228  0.00  0.00    +0.000 A 
ATOM     28  C   UNL     1       6.939   5.219  18.345  0.00  0.00    +0.000 A 
ATOM     29  C   UNL     1       6.606   4.487  17.221  0.00  0.00    +0.000 A 
ATOM     30  N   UNL     1       5.351   4.089  16.937  0.00  0.00    +0.000 NA
ATOM     31  C   UNL     1       4.386   4.466  17.814  0.00  0.00    +0.000 A 
ATOM     32 CL   UNL     1       2.813   3.934  17.357  0.00  0.00    +0.000 Cl
ENDBRANCH  24  26
ENDBRANCH  21  22
ENDBRANCH  20  21
ENDBRANCH  18  20
ENDBRANCH  17  18
ENDBRANCH   1  17
TORSDOF 9
ENDMDL
MODEL 9
REMARK VINA RESULT:      -6.7      2.576      8.152
REMARK  Name = 
REMARK  11 active torsions:
REMARK  status: ('A' for Active; 'I' for Inactive)
REMARK    1  A    between atoms: C_1  and  C_2
REMARK    2  A    between atoms: N_4  and  C_5
REMARK    3  A    between atoms: C_8  and  S_9
REMARK    4  A    between atoms: S_9  and  N_12
REMARK    5  A    between atoms: N_12  and  C_13
REMARK    6  A    between atoms: N_12  and  C_14
REMARK    7  A    between atoms: C_14  and  C_15
REMARK    8  A    between atoms: C_15  and  O_17
REMARK    9  A    between atoms: O_17  and  C_18
REMARK   10  A    between atoms: C_18  and  C_19
REMARK   11  A    between atoms: N_21  and  C_22
REMARK                            x       y       z     vdW  Elec       q    Type
REMARK                         _______ _______ _______ _____ _____    ______ ____
ROOT
ATOM      1  N   UNL     1       2.719   4.373  19.243  0.00  0.00    +0.000 NA
ATOM      2  C   UNL     1       1.651   4.030  20.214  0.00  0.00    +0.000 C 
ENDROOT
BRANCH   1   3
ATOM      3  S   UNL     1       3.868   3.121  18.996  0.00  0.00    +0.000 S 
ATOM      4  O   UNL     1       3.141   1.978  18.483  0.00  0.00    +0.000 OA
ATOM      5  O   UNL     1       4.672   3.016  20.196  0.00  0.00    +0.000 OA
BRANCH   3   9
ATOM      6  C   UNL     1       6.476   4.888  15.675  0.00  0.00    +0.000 A 
ATOM      7  C   UNL     1       5.164   4.474  15.422  0.00  0.00    +0.000 A 
ATOM      8  C   UNL     1       4.382   3.911  16.434  0.00  0.00    +0.000 A 
ATOM      9  C   UNL     1       4.916   3.750  17.709  0.00  0.00    +0.000 A 
ATOM     10  C   UNL     1       6.232   4.137  17.979  0.00  0.00    +0.000 A 
ATOM     11  C   UNL     1       7.013   4.694  16.956  0.00  0.00    +0.000 A 
BRANCH   6  15
ATOM     12  C   UNL     1       8.465   5.877  12.618  0.00  0.00    +0.000 C 
ATOM     13  C   UNL     1       7.475   5.047  13.394  0.00  0.00    +0.000 C 
ATOM     14  O   UNL     1       6.924   4.087  12.865  0.00  0.00    +0.000 OA
ATOM     15  N   UNL     1       7.291   5.497  14.692  0.00  0.00    +0.000 N 
ATOM     16  H   UNL     1       7.692   6.397  14.928  0.00  0.00    +0.000 HD
ENDBRANCH   6  15
ENDBRANCH   3   9
ENDBRANCH   1   3
BRANCH   1  17
ATOM     17  C   UNL     1       3.398   5.668  19.570  0.00  0.00    +0.000 C 
BRANCH  17  18
ATOM     18  C   UNL     1       2.906   6.859  18.780  0.00  0.00    +0.000 C 
ATOM     19  O   UNL     1       3.520   7.378  17.854  0.00  0.00    +0.000 OA
BRANCH  18  20
ATOM     20  O   UNL     1       1.724   7.328  19.260  0.00  0.00    +0.000 OA
BRANCH  20  21
ATOM     21  C   UNL     1       1.762   7.813  20.600  0.00  0.00    +0.000 C 
BRANCH  21  22
ATOM     22  C   UNL     1       1.217   9.239  20.767  0.00  0.00    +0.000 C 
ATOM     23  O   UNL     1       1.319   9.811  21.849  0.00  0.00    +0.000 OA
ATOM     24  N   UNL     1       0.598   9.755  19.643  0.00  0.00    +0.000 N 
ATOM     25  H   UNL     1       0.416   9.113  18.866  0.00  0.00    +0.000 HD
BRANCH  24  26
ATOM     26  C   UNL     1       0.070  11.069  19.512  0.00  0.00    +0.000 A 
ATOM     27  C   UNL     1      -1.178  11.438  20.012  0.00  0.00    +0.000 A 
ATOM     28  C   UNL     1      -1.651  12.739  19.840  0.00  0.00    +0.000 A 
ATOM     29  C   UNL     1      -0.851  13.651  19.177  0.00  0.00    +0.000 A 
ATOM     30  N   UNL     1       0.375  13.358  18.701  0.00  0.00    +0.000 NA
ATOM     31  C   UNL     1       0.803  12.084  18.881  0.00  0.00    +0.000 A 
ATOM     32 CL   UNL     1       2.367  11.796  18.219  0.00  0.00    +0.000 Cl
ENDBRANCH  24  26
ENDBRANCH  21  22
ENDBRANCH  20  21
ENDBRANCH  18  20
ENDBRANCH  17  18
ENDBRANCH   1  17
TORSDOF 9
ENDMDL
