MODEL 1
REMARK VINA RESULT:      -8.4      0.000      0.000
REMARK  Name = 
REMARK  8 active torsions:
REMARK  status: ('A' for Active; 'I' for Inactive)
REMARK    1  A    between atoms: C_1  and  O_2
REMARK    2  A    between atoms: O_2  and  C_3
REMARK    3  A    between atoms: C_5  and  C_6
REMARK    4  A    between atoms: N_10  and  C_11
REMARK    5  A    between atoms: C_11  and  C_12
REMARK    6  A    between atoms: C_11  and  C_13
REMARK    7  A    between atoms: C_24  and  N_25
REMARK    8  A    between atoms: C_28  and  C_29
REMARK                            x       y       z     vdW  Elec       q    Type
REMARK                         _______ _______ _______ _____ _____    ______ ____
ROOT
ATOM      1  C   UNL     1       0.689  10.011  20.025  0.00  0.00    +0.000 A 
ATOM      2  C   UNL     1      -0.219  10.778  19.326  0.00  0.00    +0.000 A 
ATOM      3  N   UNL     1      -0.968  11.765  19.870  0.00  0.00    +0.000 NA
ATOM      4  C   UNL     1      -0.870  11.939  21.192  0.00  0.00    +0.000 A 
ATOM      5  N   UNL     1      -1.683  12.885  21.741  0.00  0.00    +0.000 N 
ATOM      6  N   UNL     1      -0.033  11.252  21.973  0.00  0.00    +0.000 NA
ATOM      7  C   UNL     1       0.746  10.333  21.369  0.00  0.00    +0.000 A 
ATOM      8  H   UNL     1      -1.886  13.663  21.137  0.00  0.00    +0.000 HD
ENDROOT
BRANCH   1  11
ATOM      9  C   UNL     1       2.484   6.689  19.597  0.00  0.00    +0.000 A 
ATOM     10  C   UNL     1       1.808   7.781  20.161  0.00  0.00    +0.000 A 
ATOM     11  C   UNL     1       1.503   8.943  19.430  0.00  0.00    +0.000 A 
ATOM     12  C   UNL     1       1.968   9.021  18.112  0.00  0.00    +0.000 A 
ATOM     13  C   UNL     1       2.702   7.975  17.551  0.00  0.00    +0.000 A 
ATOM     14  C   UNL     1       2.959   6.801  18.274  0.00  0.00    +0.000 A 
BRANCH  14  15
ATOM     15  N   UNL     1       3.685   5.761  17.631  0.00  0.00    +0.000 N 
ATOM     16  C   UNL     1       3.310   4.454  17.417  0.00  0.00    +0.000 A 
ATOM     17  N   UNL     1       4.233   3.758  16.788  0.00  0.00    +0.000 NA
ATOM     18  C   UNL     1       5.266   4.636  16.581  0.00  0.00    +0.000 A 
ATOM     19  C   UNL     1       6.528   4.200  15.941  0.00  0.00    +0.000 C 
ATOM     20  C   UNL     1       4.935   5.880  17.060  0.00  0.00    +0.000 A 
ENDBRANCH  14  15
BRANCH   9  22
ATOM     21  C   UNL     1       1.670   4.746  20.685  0.00  0.00    +0.000 C 
ATOM     22  O   UNL     1       2.779   5.573  20.328  0.00  0.00    +0.000 OA
ENDBRANCH   9  22
ENDBRANCH   1  11
BRANCH   5  23
ATOM     23  C   UNL     1      -2.004  12.903  23.146  0.00  0.00    +0.000 C 
ATOM     24  C   UNL     1      -1.457  14.155  23.828  0.00  0.00    +0.000 C 
BRANCH  23  25
ATOM     25  C   UNL     1      -3.519  12.793  23.286  0.00  0.00    +0.000 A 
ATOM     26  C   UNL     1      -4.347  13.007  22.171  0.00  0.00    +0.000 A 
ATOM     27  C   UNL     1      -5.738  12.961  22.299  0.00  0.00    +0.000 A 
ATOM     28  C   UNL     1      -6.305  12.707  23.541  0.00  0.00    +0.000 A 
ATOM     29  F   UNL     1      -7.638  12.678  23.665  0.00  0.00    +0.000 F 
ATOM     30  C   UNL     1      -5.510  12.490  24.658  0.00  0.00    +0.000 A 
ATOM     31  C   UNL     1      -4.121  12.530  24.532  0.00  0.00    +0.000 A 
ENDBRANCH  23  25
ENDBRANCH   5  23
TORSDOF 5
ENDMDL
MODEL 2
REMARK VINA RESULT:      -8.3      7.850     11.511
REMARK  Name = 
REMARK  8 active torsions:
REMARK  status: ('A' for Active; 'I' for Inactive)
REMARK    1  A    between atoms: C_1  and  O_2
REMARK    2  A    between atoms: O_2  and  C_3
REMARK    3  A    between atoms: C_5  and  C_6
REMARK    4  A    between atoms: N_10  and  C_11
REMARK    5  A    between atoms: C_11  and  C_12
REMARK    6  A    between atoms: C_11  and  C_13
REMARK    7  A    between atoms: C_24  and  N_25
REMARK    8  A    between atoms: C_28  and  C_29
REMARK                            x       y       z     vdW  Elec       q    Type
REMARK                         _______ _______ _______ _____ _____    ______ ____
ROOT
ATOM      1  C   UNL     1       8.421   8.713  18.392  0.00  0.00    +0.000 A 
ATOM      2  C   UNL     1       8.478   7.562  19.149  0.00  0.00    +0.000 A 
ATOM      3  N   UNL     1       7.977   6.365  18.763  0.00  0.00    +0.000 NA
ATOM      4  C   UNL     1       7.312   6.334  17.603  0.00  0.00    +0.000 A 
ATOM      5  N   UNL     1       6.747   5.143  17.260  0.00  0.00    +0.000 N 
ATOM      6  N   UNL     1       7.184   7.386  16.791  0.00  0.00    +0.000 NA
ATOM      7  C   UNL     1       7.768   8.534  17.187  0.00  0.00    +0.000 A 
ATOM      8  H   UNL     1       7.251   4.334  17.582  0.00  0.00    +0.000 HD
ENDROOT
BRANCH   1  11
ATOM      9  C   UNL     1       9.653  12.304  18.236  0.00  0.00    +0.000 A 
ATOM     10  C   UNL     1       9.238  11.016  17.869  0.00  0.00    +0.000 A 
ATOM     11  C   UNL     1       8.969  10.009  18.813  0.00  0.00    +0.000 A 
ATOM     12  C   UNL     1       9.206  10.303  20.161  0.00  0.00    +0.000 A 
ATOM     13  C   UNL     1       9.685  11.557  20.544  0.00  0.00    +0.000 A 
ATOM     14  C   UNL     1       9.904  12.569  19.598  0.00  0.00    +0.000 A 
BRANCH  14  15
ATOM     15  N   UNL     1      10.362  13.834  20.060  0.00  0.00    +0.000 N 
ATOM     16  C   UNL     1      11.641  14.342  20.053  0.00  0.00    +0.000 A 
ATOM     17  N   UNL     1      11.708  15.553  20.563  0.00  0.00    +0.000 NA
ATOM     18  C   UNL     1      10.423  15.861  20.929  0.00  0.00    +0.000 A 
ATOM     19  C   UNL     1      10.101  17.140  21.601  0.00  0.00    +0.000 C 
ATOM     20  C   UNL     1       9.575  14.833  20.595  0.00  0.00    +0.000 A 
ENDBRANCH  14  15
BRANCH   9  22
ATOM     21  C   UNL     1      11.196  13.190  16.667  0.00  0.00    +0.000 C 
ATOM     22  O   UNL     1       9.918  13.265  17.301  0.00  0.00    +0.000 OA
ENDBRANCH   9  22
ENDBRANCH   1  11
BRANCH   5  23
ATOM     23  C   UNL     1       5.678   5.046  16.298  0.00  0.00    +0.000 C 
ATOM     24  C   UNL     1       5.958   3.963  15.259  0.00  0.00    +0.000 C 
BRANCH  23  25
ATOM     25  C   UNL     1       4.381   4.784  17.058  0.00  0.00    +0.000 A 
ATOM     26  C   UNL     1       3.692   5.849  17.664  0.00  0.00    +0.000 A 
ATOM     27  C   UNL     1       2.532   5.614  18.407  0.00  0.00    +0.000 A 
ATOM     28  C   UNL     1       2.061   4.315  18.553  0.00  0.00    +0.000 A 
ATOM     29  F   UNL     1       0.958   4.090  19.277  0.00  0.00    +0.000 F 
ATOM     30  C   UNL     1       2.721   3.246  17.963  0.00  0.00    +0.000 A 
ATOM     31  C   UNL     1       3.877   3.478  17.215  0.00  0.00    +0.000 A 
ENDBRANCH  23  25
ENDBRANCH   5  23
TORSDOF 5
ENDMDL
MODEL 3
REMARK VINA RESULT:      -8.3      8.031     11.421
REMARK  Name = 
REMARK  8 active torsions:
REMARK  status: ('A' for Active; 'I' for Inactive)
REMARK    1  A    between atoms: C_1  and  O_2
REMARK    2  A    between atoms: O_2  and  C_3
REMARK    3  A    between atoms: C_5  and  C_6
REMARK    4  A    between atoms: N_10  and  C_11
REMARK    5  A    between atoms: C_11  and  C_12
REMARK    6  A    between atoms: C_11  and  C_13
REMARK    7  A    between atoms: C_24  and  N_25
REMARK    8  A    between atoms: C_28  and  C_29
REMARK                            x       y       z     vdW  Elec       q    Type
REMARK                         _______ _______ _______ _____ _____    ______ ____
ROOT
ATOM      1  C   UNL     1       8.235   8.647  18.247  0.00  0.00    +0.000 A 
ATOM      2  C   UNL     1       8.383   7.461  18.934  0.00  0.00    +0.000 A 
ATOM      3  N   UNL     1       7.829   6.284  18.560  0.00  0.00    +0.000 NA
ATOM      4  C   UNL     1       7.018   6.309  17.497  0.00  0.00    +0.000 A 
ATOM      5  N   UNL     1       6.405   5.136  17.173  0.00  0.00    +0.000 N 
ATOM      6  N   UNL     1       6.791   7.399  16.759  0.00  0.00    +0.000 NA
ATOM      7  C   UNL     1       7.429   8.527  17.131  0.00  0.00    +0.000 A 
ATOM      8  H   UNL     1       6.943   4.312  17.387  0.00  0.00    +0.000 HD
ENDROOT
BRANCH   1  11
ATOM      9  C   UNL     1       9.103  12.346  18.308  0.00  0.00    +0.000 A 
ATOM     10  C   UNL     1       8.639  11.088  17.897  0.00  0.00    +0.000 A 
ATOM     11  C   UNL     1       8.841   9.921  18.655  0.00  0.00    +0.000 A 
ATOM     12  C   UNL     1       9.604  10.031  19.824  0.00  0.00    +0.000 A 
ATOM     13  C   UNL     1      10.134  11.261  20.218  0.00  0.00    +0.000 A 
ATOM     14  C   UNL     1       9.885  12.427  19.478  0.00  0.00    +0.000 A 
BRANCH  14  15
ATOM     15  N   UNL     1      10.428  13.653  19.953  0.00  0.00    +0.000 N 
ATOM     16  C   UNL     1      11.496  14.368  19.462  0.00  0.00    +0.000 A 
ATOM     17  N   UNL     1      11.729  15.466  20.150  0.00  0.00    +0.000 NA
ATOM     18  C   UNL     1      10.782  15.478  21.141  0.00  0.00    +0.000 A 
ATOM     19  C   UNL     1      10.755  16.545  22.167  0.00  0.00    +0.000 C 
ATOM     20  C   UNL     1       9.951  14.391  21.016  0.00  0.00    +0.000 A 
ENDBRANCH  14  15
BRANCH   9  22
ATOM     21  C   UNL     1       7.670  14.156  17.763  0.00  0.00    +0.000 C 
ATOM     22  O   UNL     1       8.903  13.466  17.551  0.00  0.00    +0.000 OA
ENDBRANCH   9  22
ENDBRANCH   1  11
BRANCH   5  23
ATOM     23  C   UNL     1       5.219   5.086  16.356  0.00  0.00    +0.000 C 
ATOM     24  C   UNL     1       5.461   4.303  15.067  0.00  0.00    +0.000 C 
BRANCH  23  25
ATOM     25  C   UNL     1       4.097   4.476  17.190  0.00  0.00    +0.000 A 
ATOM     26  C   UNL     1       4.007   3.081  17.338  0.00  0.00    +0.000 A 
ATOM     27  C   UNL     1       2.953   2.510  18.056  0.00  0.00    +0.000 A 
ATOM     28  C   UNL     1       1.984   3.328  18.623  0.00  0.00    +0.000 A 
ATOM     29  F   UNL     1       0.966   2.778  19.298  0.00  0.00    +0.000 F 
ATOM     30  C   UNL     1       2.051   4.709  18.493  0.00  0.00    +0.000 A 
ATOM     31  C   UNL     1       3.105   5.283  17.782  0.00  0.00    +0.000 A 
ENDBRANCH  23  25
ENDBRANCH   5  23
TORSDOF 5
ENDMDL
MODEL 4
REMARK VINA RESULT:      -8.2      8.018     11.289
REMARK  Name = 
REMARK  8 active torsions:
REMARK  status: ('A' for Active; 'I' for Inactive)
REMARK    1  A    between atoms: C_1  and  O_2
REMARK    2  A    between atoms: O_2  and  C_3
REMARK    3  A    between atoms: C_5  and  C_6
REMARK    4  A    between atoms: N_10  and  C_11
REMARK    5  A    between atoms: C_11  and  C_12
REMARK    6  A    between atoms: C_11  and  C_13
REMARK    7  A    between atoms: C_24  and  N_25
REMARK    8  A    between atoms: C_28  and  C_29
REMARK                            x       y       z     vdW  Elec       q    Type
REMARK                         _______ _______ _______ _____ _____    ______ ____
ROOT
ATOM      1  C   UNL     1       8.059   8.635  18.104  0.00  0.00    +0.000 A 
ATOM      2  C   UNL     1       8.382   7.569  18.918  0.00  0.00    +0.000 A 
ATOM      3  N   UNL     1       7.953   6.300  18.727  0.00  0.00    +0.000 NA
ATOM      4  C   UNL     1       7.090   6.099  17.724  0.00  0.00    +0.000 A 
ATOM      5  N   UNL     1       6.606   4.833  17.586  0.00  0.00    +0.000 N 
ATOM      6  N   UNL     1       6.698   7.054  16.877  0.00  0.00    +0.000 NA
ATOM      7  C   UNL     1       7.215   8.285  17.067  0.00  0.00    +0.000 A 
ATOM      8  H   UNL     1       7.247   4.109  17.861  0.00  0.00    +0.000 HD
ENDROOT
BRANCH   1  11
ATOM      9  C   UNL     1      10.043  11.575  19.467  0.00  0.00    +0.000 A 
ATOM     10  C   UNL     1       9.483  10.300  19.308  0.00  0.00    +0.000 A 
ATOM     11  C   UNL     1       8.530  10.010  18.314  0.00  0.00    +0.000 A 
ATOM     12  C   UNL     1       8.084  11.069  17.515  0.00  0.00    +0.000 A 
ATOM     13  C   UNL     1       8.578  12.361  17.701  0.00  0.00    +0.000 A 
ATOM     14  C   UNL     1       9.563  12.629  18.664  0.00  0.00    +0.000 A 
BRANCH  14  15
ATOM     15  N   UNL     1      10.046  13.961  18.779  0.00  0.00    +0.000 N 
ATOM     16  C   UNL     1       9.804  14.881  19.774  0.00  0.00    +0.000 A 
ATOM     17  N   UNL     1      10.413  16.029  19.561  0.00  0.00    +0.000 NA
ATOM     18  C   UNL     1      11.081  15.867  18.376  0.00  0.00    +0.000 A 
ATOM     19  C   UNL     1      11.849  16.977  17.768  0.00  0.00    +0.000 C 
ATOM     20  C   UNL     1      10.897  14.592  17.897  0.00  0.00    +0.000 A 
ENDBRANCH  14  15
BRANCH   9  22
ATOM     21  C   UNL     1      12.324  11.914  20.024  0.00  0.00    +0.000 C 
ATOM     22  O   UNL     1      10.961  11.836  20.446  0.00  0.00    +0.000 OA
ENDBRANCH   9  22
ENDBRANCH   1  11
BRANCH   5  23
ATOM     23  C   UNL     1       5.393   4.548  16.862  0.00  0.00    +0.000 C 
ATOM     24  C   UNL     1       5.579   3.375  15.902  0.00  0.00    +0.000 C 
BRANCH  23  25
ATOM     25  C   UNL     1       4.288   4.282  17.879  0.00  0.00    +0.000 A 
ATOM     26  C   UNL     1       4.486   3.343  18.906  0.00  0.00    +0.000 A 
ATOM     27  C   UNL     1       3.462   3.054  19.811  0.00  0.00    +0.000 A 
ATOM     28  C   UNL     1       2.235   3.695  19.690  0.00  0.00    +0.000 A 
ATOM     29  F   UNL     1       1.250   3.405  20.549  0.00  0.00    +0.000 F 
ATOM     30  C   UNL     1       2.014   4.627  18.686  0.00  0.00    +0.000 A 
ATOM     31  C   UNL     1       3.037   4.923  17.784  0.00  0.00    +0.000 A 
ENDBRANCH  23  25
ENDBRANCH   5  23
TORSDOF 5
ENDMDL
MODEL 5
REMARK VINA RESULT:      -8.0      8.381     11.511
REMARK  Name = 
REMARK  8 active torsions:
REMARK  status: ('A' for Active; 'I' for Inactive)
REMARK    1  A    between atoms: C_1  and  O_2
REMARK    2  A    between atoms: O_2  and  C_3
REMARK    3  A    between atoms: C_5  and  C_6
REMARK    4  A    between atoms: N_10  and  C_11
REMARK    5  A    between atoms: C_11  and  C_12
REMARK    6  A    between atoms: C_11  and  C_13
REMARK    7  A    between atoms: C_24  and  N_25
REMARK    8  A    between atoms: C_28  and  C_29
REMARK                            x       y       z     vdW  Elec       q    Type
REMARK                         _______ _______ _______ _____ _____    ______ ____
ROOT
ATOM      1  C   UNL     1       8.223   8.651  18.197  0.00  0.00    +0.000 A 
ATOM      2  C   UNL     1       8.348   7.522  18.980  0.00  0.00    +0.000 A 
ATOM      3  N   UNL     1       7.803   6.319  18.684  0.00  0.00    +0.000 NA
ATOM      4  C   UNL     1       7.024   6.260  17.598  0.00  0.00    +0.000 A 
ATOM      5  N   UNL     1       6.419   5.064  17.351  0.00  0.00    +0.000 N 
ATOM      6  N   UNL     1       6.822   7.288  16.770  0.00  0.00    +0.000 NA
ATOM      7  C   UNL     1       7.450   8.442  17.070  0.00  0.00    +0.000 A 
ATOM      8  H   UNL     1       6.948   4.260  17.645  0.00  0.00    +0.000 HD
ENDROOT
BRANCH   1  11
ATOM      9  C   UNL     1       9.849  11.455  20.179  0.00  0.00    +0.000 A 
ATOM     10  C   UNL     1       9.175  10.272  19.843  0.00  0.00    +0.000 A 
ATOM     11  C   UNL     1       8.820   9.953  18.520  0.00  0.00    +0.000 A 
ATOM     12  C   UNL     1       9.092  10.903  17.528  0.00  0.00    +0.000 A 
ATOM     13  C   UNL     1       9.700  12.117  17.850  0.00  0.00    +0.000 A 
ATOM     14  C   UNL     1      10.093  12.404  19.166  0.00  0.00    +0.000 A 
BRANCH  14  15
ATOM     15  N   UNL     1      10.738  13.646  19.419  0.00  0.00    +0.000 N 
ATOM     16  C   UNL     1      12.085  13.924  19.459  0.00  0.00    +0.000 A 
ATOM     17  N   UNL     1      12.333  15.189  19.726  0.00  0.00    +0.000 NA
ATOM     18  C   UNL     1      11.102  15.773  19.875  0.00  0.00    +0.000 A 
ATOM     19  C   UNL     1      10.968  17.201  20.242  0.00  0.00    +0.000 C 
ATOM     20  C   UNL     1      10.109  14.850  19.655  0.00  0.00    +0.000 A 
ENDBRANCH  14  15
BRANCH   9  22
ATOM     21  C   UNL     1       9.138  12.325  22.268  0.00  0.00    +0.000 C 
ATOM     22  O   UNL     1      10.176  11.749  21.473  0.00  0.00    +0.000 OA
ENDBRANCH   9  22
ENDBRANCH   1  11
BRANCH   5  23
ATOM     23  C   UNL     1       5.258   4.949  16.505  0.00  0.00    +0.000 C 
ATOM     24  C   UNL     1       5.607   4.316  15.160  0.00  0.00    +0.000 C 
BRANCH  23  25
ATOM     25  C   UNL     1       4.204   4.143  17.258  0.00  0.00    +0.000 A 
ATOM     26  C   UNL     1       4.432   2.788  17.555  0.00  0.00    +0.000 A 
ATOM     27  C   UNL     1       3.452   2.027  18.197  0.00  0.00    +0.000 A 
ATOM     28  C   UNL     1       2.240   2.614  18.539  0.00  0.00    +0.000 A 
ATOM     29  F   UNL     1       1.297   1.879  19.142  0.00  0.00    +0.000 F 
ATOM     30  C   UNL     1       1.990   3.950  18.259  0.00  0.00    +0.000 A 
ATOM     31  C   UNL     1       2.970   4.715  17.623  0.00  0.00    +0.000 A 
ENDBRANCH  23  25
ENDBRANCH   5  23
TORSDOF 5
ENDMDL
MODEL 6
REMARK VINA RESULT:      -8.0      4.081     10.835
REMARK  Name = 
REMARK  8 active torsions:
REMARK  status: ('A' for Active; 'I' for Inactive)
REMARK    1  A    between atoms: C_1  and  O_2
REMARK    2  A    between atoms: O_2  and  C_3
REMARK    3  A    between atoms: C_5  and  C_6
REMARK    4  A    between atoms: N_10  and  C_11
REMARK    5  A    between atoms: C_11  and  C_12
REMARK    6  A    between atoms: C_11  and  C_13
REMARK    7  A    between atoms: C_24  and  N_25
REMARK    8  A    between atoms: C_28  and  C_29
REMARK                            x       y       z     vdW  Elec       q    Type
REMARK                         _______ _______ _______ _____ _____    ______ ____
ROOT
ATOM      1  C   UNL     1      -0.162  10.465  21.521  0.00  0.00    +0.000 A 
ATOM      2  C   UNL     1       0.512   9.590  22.346  0.00  0.00    +0.000 A 
ATOM      3  N   UNL     1       1.361   8.628  21.914  0.00  0.00    +0.000 NA
ATOM      4  C   UNL     1       1.477   8.476  20.590  0.00  0.00    +0.000 A 
ATOM      5  N   UNL     1       2.275   7.456  20.166  0.00  0.00    +0.000 N 
ATOM      6  N   UNL     1       0.868   9.256  19.695  0.00  0.00    +0.000 NA
ATOM      7  C   UNL     1       0.094  10.248  20.180  0.00  0.00    +0.000 A 
ATOM      8  H   UNL     1       3.050   7.252  20.774  0.00  0.00    +0.000 HD
ENDROOT
BRANCH   1  11
ATOM      9  C   UNL     1      -2.235  13.649  21.598  0.00  0.00    +0.000 A 
ATOM     10  C   UNL     1      -1.287  12.679  21.242  0.00  0.00    +0.000 A 
ATOM     11  C   UNL     1      -1.079  11.510  21.995  0.00  0.00    +0.000 A 
ATOM     12  C   UNL     1      -1.806  11.366  23.183  0.00  0.00    +0.000 A 
ATOM     13  C   UNL     1      -2.707  12.350  23.593  0.00  0.00    +0.000 A 
ATOM     14  C   UNL     1      -2.940  13.490  22.809  0.00  0.00    +0.000 A 
BRANCH  14  15
ATOM     15  N   UNL     1      -3.894  14.439  23.268  0.00  0.00    +0.000 N 
ATOM     16  C   UNL     1      -5.243  14.503  22.999  0.00  0.00    +0.000 A 
ATOM     17  N   UNL     1      -5.829  15.522  23.592  0.00  0.00    +0.000 NA
ATOM     18  C   UNL     1      -4.831  16.162  24.278  0.00  0.00    +0.000 A 
ATOM     19  C   UNL     1      -5.094  17.407  25.036  0.00  0.00    +0.000 C 
ATOM     20  C   UNL     1      -3.641  15.493  24.121  0.00  0.00    +0.000 A 
ENDBRANCH  14  15
BRANCH   9  22
ATOM     21  C   UNL     1      -1.233  15.355  20.291  0.00  0.00    +0.000 C 
ATOM     22  O   UNL     1      -2.414  14.783  20.856  0.00  0.00    +0.000 OA
ENDBRANCH   9  22
ENDBRANCH   1  11
BRANCH   5  23
ATOM     23  C   UNL     1       2.177   6.903  18.838  0.00  0.00    +0.000 C 
ATOM     24  C   UNL     1       3.394   7.264  17.991  0.00  0.00    +0.000 C 
BRANCH  23  25
ATOM     25  C   UNL     1       2.000   5.394  18.968  0.00  0.00    +0.000 A 
ATOM     26  C   UNL     1       2.175   4.565  17.846  0.00  0.00    +0.000 A 
ATOM     27  C   UNL     1       1.964   3.187  17.941  0.00  0.00    +0.000 A 
ATOM     28  C   UNL     1       1.574   2.633  19.154  0.00  0.00    +0.000 A 
ATOM     29  F   UNL     1       1.358   1.314  19.240  0.00  0.00    +0.000 F 
ATOM     30  C   UNL     1       1.397   3.429  20.278  0.00  0.00    +0.000 A 
ATOM     31  C   UNL     1       1.612   4.805  20.188  0.00  0.00    +0.000 A 
ENDBRANCH  23  25
ENDBRANCH   5  23
TORSDOF 5
ENDMDL
MODEL 7
REMARK VINA RESULT:      -8.0      1.945      2.862
REMARK  Name = 
REMARK  8 active torsions:
REMARK  status: ('A' for Active; 'I' for Inactive)
REMARK    1  A    between atoms: C_1  and  O_2
REMARK    2  A    between atoms: O_2  and  C_3
REMARK    3  A    between atoms: C_5  and  C_6
REMARK    4  A    between atoms: N_10  and  C_11
REMARK    5  A    between atoms: C_11  and  C_12
REMARK    6  A    between atoms: C_11  and  C_13
REMARK    7  A    between atoms: C_24  and  N_25
REMARK    8  A    between atoms: C_28  and  C_29
REMARK                            x       y       z     vdW  Elec       q    Type
REMARK                         _______ _______ _______ _____ _____    ______ ____
ROOT
ATOM      1  C   UNL     1       0.681   9.146  21.010  0.00  0.00    +0.000 A 
ATOM      2  C   UNL     1       0.784   9.283  22.378  0.00  0.00    +0.000 A 
ATOM      3  N   UNL     1       0.031  10.123  23.124  0.00  0.00    +0.000 NA
ATOM      4  C   UNL     1      -0.809  10.929  22.464  0.00  0.00    +0.000 A 
ATOM      5  N   UNL     1      -1.508  11.823  23.217  0.00  0.00    +0.000 N 
ATOM      6  N   UNL     1      -0.988  10.894  21.142  0.00  0.00    +0.000 NA
ATOM      7  C   UNL     1      -0.267   9.985  20.454  0.00  0.00    +0.000 A 
ATOM      8  H   UNL     1      -1.730  11.504  24.145  0.00  0.00    +0.000 HD
ENDROOT
BRANCH   1  11
ATOM      9  C   UNL     1       2.556   6.021  19.933  0.00  0.00    +0.000 A 
ATOM     10  C   UNL     1       1.874   6.971  20.707  0.00  0.00    +0.000 A 
ATOM     11  C   UNL     1       1.499   8.230  20.205  0.00  0.00    +0.000 A 
ATOM     12  C   UNL     1       1.900   8.554  18.903  0.00  0.00    +0.000 A 
ATOM     13  C   UNL     1       2.639   7.651  18.138  0.00  0.00    +0.000 A 
ATOM     14  C   UNL     1       2.966   6.380  18.633  0.00  0.00    +0.000 A 
BRANCH  14  15
ATOM     15  N   UNL     1       3.693   5.496  17.789  0.00  0.00    +0.000 N 
ATOM     16  C   UNL     1       3.345   4.236  17.356  0.00  0.00    +0.000 A 
ATOM     17  N   UNL     1       4.260   3.696  16.581  0.00  0.00    +0.000 NA
ATOM     18  C   UNL     1       5.260   4.630  16.499  0.00  0.00    +0.000 A 
ATOM     19  C   UNL     1       6.507   4.359  15.748  0.00  0.00    +0.000 C 
ATOM     20  C   UNL     1       4.915   5.758  17.205  0.00  0.00    +0.000 A 
ENDBRANCH  14  15
BRANCH   9  22
ATOM     21  C   UNL     1       1.849   3.953  20.854  0.00  0.00    +0.000 C 
ATOM     22  O   UNL     1       2.919   4.807  20.445  0.00  0.00    +0.000 OA
ENDBRANCH   9  22
ENDBRANCH   1  11
BRANCH   5  23
ATOM     23  C   UNL     1      -2.108  13.004  22.650  0.00  0.00    +0.000 C 
ATOM     24  C   UNL     1      -3.567  12.762  22.269  0.00  0.00    +0.000 C 
BRANCH  23  25
ATOM     25  C   UNL     1      -1.964  14.138  23.660  0.00  0.00    +0.000 A 
ATOM     26  C   UNL     1      -2.966  14.357  24.621  0.00  0.00    +0.000 A 
ATOM     27  C   UNL     1      -2.869  15.426  25.517  0.00  0.00    +0.000 A 
ATOM     28  C   UNL     1      -1.776  16.281  25.452  0.00  0.00    +0.000 A 
ATOM     29  F   UNL     1      -1.693  17.312  26.302  0.00  0.00    +0.000 F 
ATOM     30  C   UNL     1      -0.772  16.085  24.513  0.00  0.00    +0.000 A 
ATOM     31  C   UNL     1      -0.863  15.016  23.621  0.00  0.00    +0.000 A 
ENDBRANCH  23  25
ENDBRANCH   5  23
TORSDOF 5
ENDMDL
MODEL 8
REMARK VINA RESULT:      -8.0      4.233     11.040
REMARK  Name = 
REMARK  8 active torsions:
REMARK  status: ('A' for Active; 'I' for Inactive)
REMARK    1  A    between atoms: C_1  and  O_2
REMARK    2  A    between atoms: O_2  and  C_3
REMARK    3  A    between atoms: C_5  and  C_6
REMARK    4  A    between atoms: N_10  and  C_11
REMARK    5  A    between atoms: C_11  and  C_12
REMARK    6  A    between atoms: C_11  and  C_13
REMARK    7  A    between atoms: C_24  and  N_25
REMARK    8  A    between atoms: C_28  and  C_29
REMARK                            x       y       z     vdW  Elec       q    Type
REMARK                         _______ _______ _______ _____ _____    ______ ____
ROOT
ATOM      1  C   UNL     1       0.083  10.089  21.258  0.00  0.00    +0.000 A 
ATOM      2  C   UNL     1       0.643   9.109  22.051  0.00  0.00    +0.000 A 
ATOM      3  N   UNL     1       1.488   8.150  21.603  0.00  0.00    +0.000 NA
ATOM      4  C   UNL     1       1.717   8.115  20.286  0.00  0.00    +0.000 A 
ATOM      5  N   UNL     1       2.508   7.101  19.836  0.00  0.00    +0.000 N 
ATOM      6  N   UNL     1       1.224   9.004  19.420  0.00  0.00    +0.000 NA
ATOM      7  C   UNL     1       0.451   9.984  19.930  0.00  0.00    +0.000 A 
ATOM      8  H   UNL     1       3.216   6.803  20.487  0.00  0.00    +0.000 HD
ENDROOT
BRANCH   1  11
ATOM      9  C   UNL     1      -2.138  13.171  21.315  0.00  0.00    +0.000 A 
ATOM     10  C   UNL     1      -1.185  12.217  20.931  0.00  0.00    +0.000 A 
ATOM     11  C   UNL     1      -0.829  11.130  21.749  0.00  0.00    +0.000 A 
ATOM     12  C   UNL     1      -1.407  11.060  23.022  0.00  0.00    +0.000 A 
ATOM     13  C   UNL     1      -2.307  12.035  23.452  0.00  0.00    +0.000 A 
ATOM     14  C   UNL     1      -2.690  13.090  22.609  0.00  0.00    +0.000 A 
BRANCH  14  15
ATOM     15  N   UNL     1      -3.636  14.032  23.099  0.00  0.00    +0.000 N 
ATOM     16  C   UNL     1      -4.993  14.089  22.869  0.00  0.00    +0.000 A 
ATOM     17  N   UNL     1      -5.567  15.103  23.480  0.00  0.00    +0.000 NA
ATOM     18  C   UNL     1      -4.553  15.748  24.138  0.00  0.00    +0.000 A 
ATOM     19  C   UNL     1      -4.801  16.990  24.905  0.00  0.00    +0.000 C 
ATOM     20  C   UNL     1      -3.365  15.086  23.945  0.00  0.00    +0.000 A 
ENDBRANCH  14  15
BRANCH   9  22
ATOM     21  C   UNL     1      -1.512  15.293  20.458  0.00  0.00    +0.000 C 
ATOM     22  O   UNL     1      -2.462  14.226  20.508  0.00  0.00    +0.000 OA
ENDBRANCH   9  22
ENDBRANCH   1  11
BRANCH   5  23
ATOM     23  C   UNL     1       2.508   6.678  18.458  0.00  0.00    +0.000 C 
ATOM     24  C   UNL     1       3.542   7.446  17.638  0.00  0.00    +0.000 C 
BRANCH  23  25
ATOM     25  C   UNL     1       2.760   5.173  18.427  0.00  0.00    +0.000 A 
ATOM     26  C   UNL     1       3.918   4.640  19.020  0.00  0.00    +0.000 A 
ATOM     27  C   UNL     1       4.185   3.270  18.951  0.00  0.00    +0.000 A 
ATOM     28  C   UNL     1       3.301   2.430  18.286  0.00  0.00    +0.000 A 
ATOM     29  F   UNL     1       3.565   1.120  18.208  0.00  0.00    +0.000 F 
ATOM     30  C   UNL     1       2.149   2.931  17.694  0.00  0.00    +0.000 A 
ATOM     31  C   UNL     1       1.876   4.298  17.766  0.00  0.00    +0.000 A 
ENDBRANCH  23  25
ENDBRANCH   5  23
TORSDOF 5
ENDMDL
MODEL 9
REMARK VINA RESULT:      -8.0      0.763      1.129
REMARK  Name = 
REMARK  8 active torsions:
REMARK  status: ('A' for Active; 'I' for Inactive)
REMARK    1  A    between atoms: C_1  and  O_2
REMARK    2  A    between atoms: O_2  and  C_3
REMARK    3  A    between atoms: C_5  and  C_6
REMARK    4  A    between atoms: N_10  and  C_11
REMARK    5  A    between atoms: C_11  and  C_12
REMARK    6  A    between atoms: C_11  and  C_13
REMARK    7  A    between atoms: C_24  and  N_25
REMARK    8  A    between atoms: C_28  and  C_29
REMARK                            x       y       z     vdW  Elec       q    Type
REMARK                         _______ _______ _______ _____ _____    ______ ____
ROOT
ATOM      1  C   UNL     1       0.396  10.109  19.587  0.00  0.00    +0.000 A 
ATOM      2  C   UNL     1      -0.848  10.304  19.024  0.00  0.00    +0.000 A 
ATOM      3  N   UNL     1      -1.728  11.253  19.419  0.00  0.00    +0.000 NA
ATOM      4  C   UNL     1      -1.388  11.987  20.484  0.00  0.00    +0.000 A 
ATOM      5  N   UNL     1      -2.313  12.887  20.921  0.00  0.00    +0.000 N 
ATOM      6  N   UNL     1      -0.217  11.882  21.117  0.00  0.00    +0.000 NA
ATOM      7  C   UNL     1       0.655  10.974  20.634  0.00  0.00    +0.000 A 
ATOM      8  H   UNL     1      -2.891  13.277  20.195  0.00  0.00    +0.000 HD
ENDROOT
BRANCH   1  11
ATOM      9  C   UNL     1       2.445   6.910  19.546  0.00  0.00    +0.000 A 
ATOM     10  C   UNL     1       1.630   7.970  19.967  0.00  0.00    +0.000 A 
ATOM     11  C   UNL     1       1.350   9.081  19.152  0.00  0.00    +0.000 A 
ATOM     12  C   UNL     1       1.982   9.145  17.904  0.00  0.00    +0.000 A 
ATOM     13  C   UNL     1       2.851   8.135  17.491  0.00  0.00    +0.000 A 
ATOM     14  C   UNL     1       3.085   7.008  18.293  0.00  0.00    +0.000 A 
BRANCH  14  15
ATOM     15  N   UNL     1       3.957   6.000  17.798  0.00  0.00    +0.000 N 
ATOM     16  C   UNL     1       3.644   4.742  17.334  0.00  0.00    +0.000 A 
ATOM     17  N   UNL     1       4.705   4.064  16.952  0.00  0.00    +0.000 NA
ATOM     18  C   UNL     1       5.767   4.902  17.176  0.00  0.00    +0.000 A 
ATOM     19  C   UNL     1       7.158   4.466  16.918  0.00  0.00    +0.000 C 
ATOM     20  C   UNL     1       5.325   6.109  17.662  0.00  0.00    +0.000 A 
ENDBRANCH  14  15
BRANCH   9  22
ATOM     21  C   UNL     1       1.611   4.976  20.637  0.00  0.00    +0.000 C 
ATOM     22  O   UNL     1       2.712   5.844  20.358  0.00  0.00    +0.000 OA
ENDBRANCH   9  22
ENDBRANCH   1  11
BRANCH   5  23
ATOM     23  C   UNL     1      -2.287  13.433  22.255  0.00  0.00    +0.000 C 
ATOM     24  C   UNL     1      -1.833  14.891  22.253  0.00  0.00    +0.000 C 
BRANCH  23  25
ATOM     25  C   UNL     1      -3.678  13.269  22.858  0.00  0.00    +0.000 A 
ATOM     26  C   UNL     1      -3.844  12.575  24.069  0.00  0.00    +0.000 A 
ATOM     27  C   UNL     1      -5.119  12.374  24.604  0.00  0.00    +0.000 A 
ATOM     28  C   UNL     1      -6.232  12.860  23.930  0.00  0.00    +0.000 A 
ATOM     29  F   UNL     1      -7.454  12.653  24.436  0.00  0.00    +0.000 F 
ATOM     30  C   UNL     1      -6.095  13.551  22.733  0.00  0.00    +0.000 A 
ATOM     31  C   UNL     1      -4.823  13.759  22.199  0.00  0.00    +0.000 A 
ENDBRANCH  23  25
ENDBRANCH   5  23
TORSDOF 5
ENDMDL
