MODEL 1
REMARK VINA RESULT:      -5.9      0.000      0.000
REMARK  Name = 
REMARK  4 active torsions:
REMARK  status: ('A' for Active; 'I' for Inactive)
REMARK    1  A    between atoms: C_1  and  C_2
REMARK    2  A    between atoms: C_2  and  C_3
REMARK    3  A    between atoms: C_3  and  C_4
REMARK    4  A    between atoms: C_4  and  N_5
REMARK                            x       y       z     vdW  Elec       q    Type
REMARK                         _______ _______ _______ _____ _____    ______ ____
ROOT
ATOM      1  N   UNL     1       6.314   3.777  13.653  0.00  0.00    +0.000 NA
ATOM      2  C   UNL     1       6.967   4.741  14.203  0.00  0.00    +0.000 C 
ATOM      3  N   UNL     1       7.917   5.543  13.599  0.00  0.00    +0.000 N 
ATOM      4  N   UNL     1       6.682   5.029  15.574  0.00  0.00    +0.000 N 
ATOM      5  C   UNL     1       5.794   4.406  16.424  0.00  0.00    +0.000 A 
ATOM      6  C   UNL     1       5.769   5.142  17.583  0.00  0.00    +0.000 A 
ATOM      7  C   UNL     1       6.702   6.173  17.364  0.00  0.00    +0.000 A 
ATOM      8  N   UNL     1       7.328   6.063  16.191  0.00  0.00    +0.000 NA
ATOM      9  H   UNL     1       8.481   5.082  12.897  0.00  0.00    +0.000 HD
ATOM     10  H   UNL     1       8.470   6.074  14.271  0.00  0.00    +0.000 HD
ENDROOT
BRANCH   1  11
ATOM     11  C   UNL     1       6.525   3.559  12.221  0.00  0.00    +0.000 C 
BRANCH  11  12
ATOM     12  C   UNL     1       5.405   2.670  11.680  0.00  0.00    +0.000 C 
BRANCH  12  14
ATOM     13  C   UNL     1       3.440   3.476  10.309  0.00  0.00    +0.000 C 
ATOM     14  C   UNL     1       4.074   3.422  11.689  0.00  0.00    +0.000 C 
ENDBRANCH  12  14
ENDBRANCH  11  12
ENDBRANCH   1  11
TORSDOF 3
ENDMDL
MODEL 2
REMARK VINA RESULT:      -5.8      4.600      5.728
REMARK  Name = 
REMARK  4 active torsions:
REMARK  status: ('A' for Active; 'I' for Inactive)
REMARK    1  A    between atoms: C_1  and  C_2
REMARK    2  A    between atoms: C_2  and  C_3
REMARK    3  A    between atoms: C_3  and  C_4
REMARK    4  A    between atoms: C_4  and  N_5
REMARK                            x       y       z     vdW  Elec       q    Type
REMARK                         _______ _______ _______ _____ _____    ______ ____
ROOT
ATOM      1  N   UNL     1       3.988   4.190  17.632  0.00  0.00    +0.000 NA
ATOM      2  C   UNL     1       4.923   4.078  18.511  0.00  0.00    +0.000 C 
ATOM      3  N   UNL     1       5.035   3.093  19.474  0.00  0.00    +0.000 N 
ATOM      4  N   UNL     1       5.962   5.061  18.491  0.00  0.00    +0.000 N 
ATOM      5  C   UNL     1       6.114   6.145  17.656  0.00  0.00    +0.000 A 
ATOM      6  C   UNL     1       7.344   6.690  17.931  0.00  0.00    +0.000 A 
ATOM      7  C   UNL     1       7.855   5.895  18.974  0.00  0.00    +0.000 A 
ATOM      8  N   UNL     1       6.992   4.964  19.385  0.00  0.00    +0.000 NA
ATOM      9  H   UNL     1       4.157   2.751  19.840  0.00  0.00    +0.000 HD
ATOM     10  H   UNL     1       5.708   3.330  20.203  0.00  0.00    +0.000 HD
ENDROOT
BRANCH   1  11
ATOM     11  C   UNL     1       2.989   3.121  17.581  0.00  0.00    +0.000 C 
BRANCH  11  12
ATOM     12  C   UNL     1       1.624   3.693  17.965  0.00  0.00    +0.000 C 
BRANCH  12  14
ATOM     13  C   UNL     1       1.150   3.132  20.384  0.00  0.00    +0.000 C 
ATOM     14  C   UNL     1       0.904   2.754  18.933  0.00  0.00    +0.000 C 
ENDBRANCH  12  14
ENDBRANCH  11  12
ENDBRANCH   1  11
TORSDOF 3
ENDMDL
MODEL 3
REMARK VINA RESULT:      -5.6      4.098      6.050
REMARK  Name = 
REMARK  4 active torsions:
REMARK  status: ('A' for Active; 'I' for Inactive)
REMARK    1  A    between atoms: C_1  and  C_2
REMARK    2  A    between atoms: C_2  and  C_3
REMARK    3  A    between atoms: C_3  and  C_4
REMARK    4  A    between atoms: C_4  and  N_5
REMARK                            x       y       z     vdW  Elec       q    Type
REMARK                         _______ _______ _______ _____ _____    ______ ____
ROOT
ATOM      1  N   UNL     1       3.398   3.156  17.825  0.00  0.00    +0.000 NA
ATOM      2  C   UNL     1       4.502   3.332  18.465  0.00  0.00    +0.000 C 
ATOM      3  N   UNL     1       4.878   2.717  19.644  0.00  0.00    +0.000 N 
ATOM      4  N   UNL     1       5.448   4.245  17.902  0.00  0.00    +0.000 N 
ATOM      5  C   UNL     1       5.350   4.993  16.749  0.00  0.00    +0.000 A 
ATOM      6  C   UNL     1       6.572   5.589  16.557  0.00  0.00    +0.000 A 
ATOM      7  C   UNL     1       7.341   5.177  17.661  0.00  0.00    +0.000 A 
ATOM      8  N   UNL     1       6.646   4.440  18.530  0.00  0.00    +0.000 NA
ATOM      9  H   UNL     1       4.121   2.521  20.285  0.00  0.00    +0.000 HD
ATOM     10  H   UNL     1       5.671   3.175  20.091  0.00  0.00    +0.000 HD
ENDROOT
BRANCH   1  11
ATOM     11  C   UNL     1       2.482   2.137  18.342  0.00  0.00    +0.000 C 
BRANCH  11  12
ATOM     12  C   UNL     1       1.134   2.787  18.653  0.00  0.00    +0.000 C 
BRANCH  12  14
ATOM     13  C   UNL     1       1.367   4.505  20.492  0.00  0.00    +0.000 C 
ATOM     14  C   UNL     1       1.008   3.069  20.149  0.00  0.00    +0.000 C 
ENDBRANCH  12  14
ENDBRANCH  11  12
ENDBRANCH   1  11
TORSDOF 3
ENDMDL
MODEL 4
REMARK VINA RESULT:      -5.6      1.024      1.634
REMARK  Name = 
REMARK  4 active torsions:
REMARK  status: ('A' for Active; 'I' for Inactive)
REMARK    1  A    between atoms: C_1  and  C_2
REMARK    2  A    between atoms: C_2  and  C_3
REMARK    3  A    between atoms: C_3  and  C_4
REMARK    4  A    between atoms: C_4  and  N_5
REMARK                            x       y       z     vdW  Elec       q    Type
REMARK                         _______ _______ _______ _____ _____    ______ ____
ROOT
ATOM      1  N   UNL     1       6.309   3.864  13.612  0.00  0.00    +0.000 NA
ATOM      2  C   UNL     1       6.986   4.807  14.171  0.00  0.00    +0.000 C 
ATOM      3  N   UNL     1       8.008   5.540  13.596  0.00  0.00    +0.000 N 
ATOM      4  N   UNL     1       6.648   5.147  15.518  0.00  0.00    +0.000 N 
ATOM      5  C   UNL     1       5.686   4.596  16.336  0.00  0.00    +0.000 A 
ATOM      6  C   UNL     1       5.644   5.364  17.473  0.00  0.00    +0.000 A 
ATOM      7  C   UNL     1       6.642   6.337  17.278  0.00  0.00    +0.000 A 
ATOM      8  N   UNL     1       7.319   6.162  16.141  0.00  0.00    +0.000 NA
ATOM      9  H   UNL     1       8.580   5.031  12.937  0.00  0.00    +0.000 HD
ATOM     10  H   UNL     1       8.554   6.059  14.283  0.00  0.00    +0.000 HD
ENDROOT
BRANCH   1  11
ATOM     11  C   UNL     1       6.579   3.596  12.198  0.00  0.00    +0.000 C 
BRANCH  11  12
ATOM     12  C   UNL     1       5.728   2.412  11.742  0.00  0.00    +0.000 C 
BRANCH  12  14
ATOM     13  C   UNL     1       6.143  -0.043  11.301  0.00  0.00    +0.000 C 
ATOM     14  C   UNL     1       6.590   1.381  11.015  0.00  0.00    +0.000 C 
ENDBRANCH  12  14
ENDBRANCH  11  12
ENDBRANCH   1  11
TORSDOF 3
ENDMDL
MODEL 5
REMARK VINA RESULT:      -5.5      3.941      5.112
REMARK  Name = 
REMARK  4 active torsions:
REMARK  status: ('A' for Active; 'I' for Inactive)
REMARK    1  A    between atoms: C_1  and  C_2
REMARK    2  A    between atoms: C_2  and  C_3
REMARK    3  A    between atoms: C_3  and  C_4
REMARK    4  A    between atoms: C_4  and  N_5
REMARK                            x       y       z     vdW  Elec       q    Type
REMARK                         _______ _______ _______ _____ _____    ______ ____
ROOT
ATOM      1  N   UNL     1       4.377   3.645  16.964  0.00  0.00    +0.000 NA
ATOM      2  C   UNL     1       4.322   3.384  18.224  0.00  0.00    +0.000 C 
ATOM      3  N   UNL     1       5.366   3.452  19.127  0.00  0.00    +0.000 N 
ATOM      4  N   UNL     1       3.053   2.993  18.758  0.00  0.00    +0.000 N 
ATOM      5  C   UNL     1       1.849   2.841  18.107  0.00  0.00    +0.000 A 
ATOM      6  C   UNL     1       0.902   2.607  19.073  0.00  0.00    +0.000 A 
ATOM      7  C   UNL     1       1.626   2.596  20.280  0.00  0.00    +0.000 A 
ATOM      8  N   UNL     1       2.940   2.736  20.096  0.00  0.00    +0.000 NA
ATOM      9  H   UNL     1       6.272   3.210  18.751  0.00  0.00    +0.000 HD
ATOM     10  H   UNL     1       5.158   2.980  20.006  0.00  0.00    +0.000 HD
ENDROOT
BRANCH   1  11
ATOM     11  C   UNL     1       5.647   4.154  16.443  0.00  0.00    +0.000 C 
BRANCH  11  12
ATOM     12  C   UNL     1       5.427   4.694  15.031  0.00  0.00    +0.000 C 
BRANCH  12  14
ATOM     13  C   UNL     1       5.931   3.568  12.824  0.00  0.00    +0.000 C 
ATOM     14  C   UNL     1       6.514   4.181  14.086  0.00  0.00    +0.000 C 
ENDBRANCH  12  14
ENDBRANCH  11  12
ENDBRANCH   1  11
TORSDOF 3
ENDMDL
MODEL 6
REMARK VINA RESULT:      -5.5      1.527      2.522
REMARK  Name = 
REMARK  4 active torsions:
REMARK  status: ('A' for Active; 'I' for Inactive)
REMARK    1  A    between atoms: C_1  and  C_2
REMARK    2  A    between atoms: C_2  and  C_3
REMARK    3  A    between atoms: C_3  and  C_4
REMARK    4  A    between atoms: C_4  and  N_5
REMARK                            x       y       z     vdW  Elec       q    Type
REMARK                         _______ _______ _______ _____ _____    ______ ____
ROOT
ATOM      1  N   UNL     1       5.916   5.111  15.132  0.00  0.00    +0.000 NA
ATOM      2  C   UNL     1       6.015   4.590  16.305  0.00  0.00    +0.000 C 
ATOM      3  N   UNL     1       5.549   3.350  16.699  0.00  0.00    +0.000 N 
ATOM      4  N   UNL     1       6.685   5.359  17.309  0.00  0.00    +0.000 N 
ATOM      5  C   UNL     1       7.248   6.612  17.210  0.00  0.00    +0.000 A 
ATOM      6  C   UNL     1       7.902   6.849  18.393  0.00  0.00    +0.000 A 
ATOM      7  C   UNL     1       7.652   5.701  19.169  0.00  0.00    +0.000 A 
ATOM      8  N   UNL     1       6.841   4.833  18.561  0.00  0.00    +0.000 NA
ATOM      9  H   UNL     1       4.696   3.051  16.246  0.00  0.00    +0.000 HD
ATOM     10  H   UNL     1       5.522   3.244  17.713  0.00  0.00    +0.000 HD
ENDROOT
BRANCH   1  11
ATOM     11  C   UNL     1       5.333   4.278  14.079  0.00  0.00    +0.000 C 
BRANCH  11  12
ATOM     12  C   UNL     1       6.438   3.840  13.118  0.00  0.00    +0.000 C 
BRANCH  12  14
ATOM     13  C   UNL     1       4.444   3.349  11.645  0.00  0.00    +0.000 C 
ATOM     14  C   UNL     1       5.865   2.956  12.010  0.00  0.00    +0.000 C 
ENDBRANCH  12  14
ENDBRANCH  11  12
ENDBRANCH   1  11
TORSDOF 3
ENDMDL
MODEL 7
REMARK VINA RESULT:      -5.5      4.201      5.584
REMARK  Name = 
REMARK  4 active torsions:
REMARK  status: ('A' for Active; 'I' for Inactive)
REMARK    1  A    between atoms: C_1  and  C_2
REMARK    2  A    between atoms: C_2  and  C_3
REMARK    3  A    between atoms: C_3  and  C_4
REMARK    4  A    between atoms: C_4  and  N_5
REMARK                            x       y       z     vdW  Elec       q    Type
REMARK                         _______ _______ _______ _____ _____    ______ ____
ROOT
ATOM      1  N   UNL     1       3.898   4.529  17.836  0.00  0.00    +0.000 NA
ATOM      2  C   UNL     1       4.126   3.777  18.857  0.00  0.00    +0.000 C 
ATOM      3  N   UNL     1       5.345   3.245  19.234  0.00  0.00    +0.000 N 
ATOM      4  N   UNL     1       3.015   3.465  19.702  0.00  0.00    +0.000 N 
ATOM      5  C   UNL     1       1.698   3.850  19.580  0.00  0.00    +0.000 A 
ATOM      6  C   UNL     1       1.054   3.428  20.717  0.00  0.00    +0.000 A 
ATOM      7  C   UNL     1       2.048   2.762  21.458  0.00  0.00    +0.000 A 
ATOM      8  N   UNL     1       3.215   2.696  20.815  0.00  0.00    +0.000 NA
ATOM      9  H   UNL     1       5.960   3.005  18.469  0.00  0.00    +0.000 HD
ATOM     10  H   UNL     1       5.252   2.498  19.922  0.00  0.00    +0.000 HD
ENDROOT
BRANCH   1  11
ATOM     11  C   UNL     1       5.055   4.940  17.039  0.00  0.00    +0.000 C 
BRANCH  11  12
ATOM     12  C   UNL     1       5.126   4.079  15.778  0.00  0.00    +0.000 C 
BRANCH  12  14
ATOM     13  C   UNL     1       6.255   3.907  13.523  0.00  0.00    +0.000 C 
ATOM     14  C   UNL     1       6.340   4.464  14.934  0.00  0.00    +0.000 C 
ENDBRANCH  12  14
ENDBRANCH  11  12
ENDBRANCH   1  11
TORSDOF 3
ENDMDL
MODEL 8
REMARK VINA RESULT:      -5.5      4.236      6.223
REMARK  Name = 
REMARK  4 active torsions:
REMARK  status: ('A' for Active; 'I' for Inactive)
REMARK    1  A    between atoms: C_1  and  C_2
REMARK    2  A    between atoms: C_2  and  C_3
REMARK    3  A    between atoms: C_3  and  C_4
REMARK    4  A    between atoms: C_4  and  N_5
REMARK                            x       y       z     vdW  Elec       q    Type
REMARK                         _______ _______ _______ _____ _____    ______ ____
ROOT
ATOM      1  N   UNL     1       3.935   3.985  17.495  0.00  0.00    +0.000 NA
ATOM      2  C   UNL     1       4.082   3.500  18.679  0.00  0.00    +0.000 C 
ATOM      3  N   UNL     1       5.264   3.072  19.255  0.00  0.00    +0.000 N 
ATOM      4  N   UNL     1       2.912   3.402  19.497  0.00  0.00    +0.000 N 
ATOM      5  C   UNL     1       1.613   3.748  19.196  0.00  0.00    +0.000 A 
ATOM      6  C   UNL     1       0.888   3.613  20.354  0.00  0.00    +0.000 A 
ATOM      7  C   UNL     1       1.819   3.142  21.299  0.00  0.00    +0.000 A 
ATOM      8  N   UNL     1       3.025   2.922  20.772  0.00  0.00    +0.000 NA
ATOM      9  H   UNL     1       5.924   2.655  18.613  0.00  0.00    +0.000 HD
ATOM     10  H   UNL     1       5.113   2.513  20.094  0.00  0.00    +0.000 HD
ENDROOT
BRANCH   1  11
ATOM     11  C   UNL     1       5.149   4.191  16.704  0.00  0.00    +0.000 C 
BRANCH  11  12
ATOM     12  C   UNL     1       5.518   5.674  16.730  0.00  0.00    +0.000 C 
BRANCH  12  14
ATOM     13  C   UNL     1       7.399   7.167  17.519  0.00  0.00    +0.000 C 
ATOM     14  C   UNL     1       7.031   5.847  16.862  0.00  0.00    +0.000 C 
ENDBRANCH  12  14
ENDBRANCH  11  12
ENDBRANCH   1  11
TORSDOF 3
ENDMDL
MODEL 9
REMARK VINA RESULT:      -5.5      4.862      6.514
REMARK  Name = 
REMARK  4 active torsions:
REMARK  status: ('A' for Active; 'I' for Inactive)
REMARK    1  A    between atoms: C_1  and  C_2
REMARK    2  A    between atoms: C_2  and  C_3
REMARK    3  A    between atoms: C_3  and  C_4
REMARK    4  A    between atoms: C_4  and  N_5
REMARK                            x       y       z     vdW  Elec       q    Type
REMARK                         _______ _______ _______ _____ _____    ______ ____
ROOT
ATOM      1  N   UNL     1       5.356   5.095  18.443  0.00  0.00    +0.000 NA
ATOM      2  C   UNL     1       4.781   4.160  19.116  0.00  0.00    +0.000 C 
ATOM      3  N   UNL     1       5.256   2.877  19.318  0.00  0.00    +0.000 N 
ATOM      4  N   UNL     1       3.529   4.471  19.733  0.00  0.00    +0.000 N 
ATOM      5  C   UNL     1       2.819   5.651  19.707  0.00  0.00    +0.000 A 
ATOM      6  C   UNL     1       1.764   5.500  20.573  0.00  0.00    +0.000 A 
ATOM      7  C   UNL     1       1.889   4.183  21.052  0.00  0.00    +0.000 A 
ATOM      8  N   UNL     1       2.897   3.519  20.483  0.00  0.00    +0.000 NA
ATOM      9  H   UNL     1       5.783   2.491  18.547  0.00  0.00    +0.000 HD
ATOM     10  H   UNL     1       4.541   2.244  19.671  0.00  0.00    +0.000 HD
ENDROOT
BRANCH   1  11
ATOM     11  C   UNL     1       6.690   4.811  17.910  0.00  0.00    +0.000 C 
BRANCH  11  12
ATOM     12  C   UNL     1       7.224   6.058  17.207  0.00  0.00    +0.000 C 
BRANCH  12  14
ATOM     13  C   UNL     1       7.909   8.441  17.700  0.00  0.00    +0.000 C 
ATOM     14  C   UNL     1       7.856   7.014  18.218  0.00  0.00    +0.000 C 
ENDBRANCH  12  14
ENDBRANCH  11  12
ENDBRANCH   1  11
TORSDOF 3
ENDMDL
