MODEL 1
REMARK VINA RESULT:      -7.6      0.000      0.000
REMARK  Name = 
REMARK  7 active torsions:
REMARK  status: ('A' for Active; 'I' for Inactive)
REMARK    1  A    between atoms: C_1  and  O_2
REMARK    2  A    between atoms: O_2  and  C_3
REMARK    3  A    between atoms: C_7  and  C_8
REMARK    4  A    between atoms: C_23  and  O_24
REMARK    5  A    between atoms: O_24  and  C_25
REMARK    6  A    between atoms: C_25  and  C_26
REMARK    7  A    between atoms: C_25  and  C_27
REMARK                            x       y       z     vdW  Elec       q    Type
REMARK                         _______ _______ _______ _____ _____    ______ ____
ROOT
ATOM      1  C   UNL     1       5.096   4.840  18.308  0.00  0.00    +0.000 C 
ATOM      2  C   UNL     1       6.062   5.651  19.196  0.00  0.00    +0.000 C 
ATOM      3  C   UNL     1       7.438   5.515  18.673  0.00  0.00    +0.000 C 
ATOM      4  O   UNL     1       8.301   4.797  19.161  0.00  0.00    +0.000 OA
ATOM      5  N   UNL     1       7.580   6.188  17.489  0.00  0.00    +0.000 N 
ATOM      6  C   UNL     1       6.682   5.817  16.469  0.00  0.00    +0.000 A 
ATOM      7  C   UNL     1       7.233   5.978  15.181  0.00  0.00    +0.000 A 
ATOM      8  C   UNL     1       6.827   5.158  14.144  0.00  0.00    +0.000 A 
ATOM      9  C   UNL     1       5.822   4.231  14.399  0.00  0.00    +0.000 A 
ATOM     10  C   UNL     1       5.137   4.206  15.677  0.00  0.00    +0.000 A 
ATOM     11  C   UNL     1       5.536   5.024  16.770  0.00  0.00    +0.000 A 
ATOM     12  O   UNL     1       5.526   3.249  13.479  0.00  0.00    +0.000 OA
ATOM     13  C   UNL     1       6.189   3.363  12.205  0.00  0.00    +0.000 C 
ATOM     14  C   UNL     1       7.525   4.098  12.184  0.00  0.00    +0.000 C 
ATOM     15  O   UNL     1       7.524   5.280  12.976  0.00  0.00    +0.000 OA
ATOM     16  H   UNL     1       7.657   7.196  17.568  0.00  0.00    +0.000 HD
ENDROOT
BRANCH   1  21
ATOM     17  C   UNL     1       1.775   4.435  20.450  0.00  0.00    +0.000 A 
ATOM     18  C   UNL     1       1.441   5.765  20.675  0.00  0.00    +0.000 A 
ATOM     19  C   UNL     1       2.183   6.780  20.073  0.00  0.00    +0.000 A 
ATOM     20  C   UNL     1       3.284   6.497  19.225  0.00  0.00    +0.000 A 
ATOM     21  C   UNL     1       3.695   5.175  18.982  0.00  0.00    +0.000 A 
ATOM     22  C   UNL     1       2.937   4.128  19.668  0.00  0.00    +0.000 A 
BRANCH  17  24
ATOM     23  C   UNL     1       1.736   2.647  22.047  0.00  0.00    +0.000 C 
ATOM     24  O   UNL     1       1.062   3.442  21.074  0.00  0.00    +0.000 OA
ENDBRANCH  17  24
BRANCH  22  25
ATOM     25  O   UNL     1       3.464   2.853  19.538  0.00  0.00    +0.000 OA
BRANCH  25  26
ATOM     26  C   UNL     1       2.920   1.903  18.597  0.00  0.00    +0.000 C 
ATOM     27  C   UNL     1       2.211   2.661  17.474  0.00  0.00    +0.000 C 
ATOM     28  C   UNL     1       4.062   1.070  18.018  0.00  0.00    +0.000 C 
ENDBRANCH  25  26
ENDBRANCH  22  25
ENDBRANCH   1  21
TORSDOF 4
ENDMDL
MODEL 2
REMARK VINA RESULT:      -7.5      1.519      2.290
REMARK  Name = 
REMARK  7 active torsions:
REMARK  status: ('A' for Active; 'I' for Inactive)
REMARK    1  A    between atoms: C_1  and  O_2
REMARK    2  A    between atoms: O_2  and  C_3
REMARK    3  A    between atoms: C_7  and  C_8
REMARK    4  A    between atoms: C_23  and  O_24
REMARK    5  A    between atoms: O_24  and  C_25
REMARK    6  A    between atoms: C_25  and  C_26
REMARK    7  A    between atoms: C_25  and  C_27
REMARK                            x       y       z     vdW  Elec       q    Type
REMARK                         _______ _______ _______ _____ _____    ______ ____
ROOT
ATOM      1  C   UNL     1       4.845   5.489  17.338  0.00  0.00    +0.000 C 
ATOM      2  C   UNL     1       6.021   6.006  18.193  0.00  0.00    +0.000 C 
ATOM      3  C   UNL     1       7.251   5.274  17.827  0.00  0.00    +0.000 C 
ATOM      4  O   UNL     1       7.749   4.372  18.488  0.00  0.00    +0.000 OA
ATOM      5  N   UNL     1       7.685   5.638  16.580  0.00  0.00    +0.000 N 
ATOM      6  C   UNL     1       6.748   5.473  15.540  0.00  0.00    +0.000 A 
ATOM      7  C   UNL     1       7.361   5.199  14.301  0.00  0.00    +0.000 A 
ATOM      8  C   UNL     1       6.702   4.437  13.354  0.00  0.00    +0.000 A 
ATOM      9  C   UNL     1       5.408   4.016  13.637  0.00  0.00    +0.000 A 
ATOM     10  C   UNL     1       4.724   4.464  14.837  0.00  0.00    +0.000 A 
ATOM     11  C   UNL     1       5.374   5.237  15.838  0.00  0.00    +0.000 A 
ATOM     12  O   UNL     1       4.783   3.084  12.839  0.00  0.00    +0.000 OA
ATOM     13  C   UNL     1       5.481   2.726  11.629  0.00  0.00    +0.000 C 
ATOM     14  C   UNL     1       6.997   2.884  11.634  0.00  0.00    +0.000 C 
ATOM     15  O   UNL     1       7.431   4.091  12.251  0.00  0.00    +0.000 OA
ATOM     16  H   UNL     1       8.146   6.539  16.525  0.00  0.00    +0.000 HD
ENDROOT
BRANCH   1  21
ATOM     17  C   UNL     1       2.158   7.221  19.696  0.00  0.00    +0.000 A 
ATOM     18  C   UNL     1       1.917   8.401  19.001  0.00  0.00    +0.000 A 
ATOM     19  C   UNL     1       2.505   8.606  17.754  0.00  0.00    +0.000 A 
ATOM     20  C   UNL     1       3.353   7.637  17.160  0.00  0.00    +0.000 A 
ATOM     21  C   UNL     1       3.664   6.437  17.823  0.00  0.00    +0.000 A 
ATOM     22  C   UNL     1       3.081   6.267  19.154  0.00  0.00    +0.000 A 
BRANCH  17  24
ATOM     23  C   UNL     1       0.982   8.164  21.561  0.00  0.00    +0.000 C 
ATOM     24  O   UNL     1       1.604   7.041  20.938  0.00  0.00    +0.000 OA
ENDBRANCH  17  24
BRANCH  22  25
ATOM     25  O   UNL     1       3.534   5.155  19.846  0.00  0.00    +0.000 OA
BRANCH  25  26
ATOM     26  C   UNL     1       2.803   3.910  19.835  0.00  0.00    +0.000 C 
ATOM     27  C   UNL     1       3.775   2.761  19.562  0.00  0.00    +0.000 C 
ATOM     28  C   UNL     1       2.138   3.712  21.196  0.00  0.00    +0.000 C 
ENDBRANCH  25  26
ENDBRANCH  22  25
ENDBRANCH   1  21
TORSDOF 4
ENDMDL
MODEL 3
REMARK VINA RESULT:      -6.8      6.771     10.249
REMARK  Name = 
REMARK  7 active torsions:
REMARK  status: ('A' for Active; 'I' for Inactive)
REMARK    1  A    between atoms: C_1  and  O_2
REMARK    2  A    between atoms: O_2  and  C_3
REMARK    3  A    between atoms: C_7  and  C_8
REMARK    4  A    between atoms: C_23  and  O_24
REMARK    5  A    between atoms: O_24  and  C_25
REMARK    6  A    between atoms: C_25  and  C_26
REMARK    7  A    between atoms: C_25  and  C_27
REMARK                            x       y       z     vdW  Elec       q    Type
REMARK                         _______ _______ _______ _____ _____    ______ ____
ROOT
ATOM      1  C   UNL     1       0.007  10.627  19.377  0.00  0.00    +0.000 C 
ATOM      2  C   UNL     1      -0.730  10.477  18.030  0.00  0.00    +0.000 C 
ATOM      3  C   UNL     1      -1.736  11.551  17.900  0.00  0.00    +0.000 C 
ATOM      4  O   UNL     1      -2.939  11.403  18.067  0.00  0.00    +0.000 OA
ATOM      5  N   UNL     1      -1.133  12.766  17.708  0.00  0.00    +0.000 N 
ATOM      6  C   UNL     1      -0.207  13.147  18.700  0.00  0.00    +0.000 A 
ATOM      7  C   UNL     1      -0.135  14.546  18.861  0.00  0.00    +0.000 A 
ATOM      8  C   UNL     1       0.191  15.087  20.091  0.00  0.00    +0.000 A 
ATOM      9  C   UNL     1       0.506  14.215  21.127  0.00  0.00    +0.000 A 
ATOM     10  C   UNL     1       0.609  12.786  20.894  0.00  0.00    +0.000 A 
ATOM     11  C   UNL     1       0.269  12.193  19.647  0.00  0.00    +0.000 A 
ATOM     12  O   UNL     1       0.627  14.677  22.419  0.00  0.00    +0.000 OA
ATOM     13  C   UNL     1       0.582  16.108  22.580  0.00  0.00    +0.000 C 
ATOM     14  C   UNL     1      -0.174  16.899  21.518  0.00  0.00    +0.000 C 
ATOM     15  O   UNL     1       0.084  16.445  20.195  0.00  0.00    +0.000 OA
ATOM     16  H   UNL     1      -0.768  12.928  16.776  0.00  0.00    +0.000 HD
ENDROOT
BRANCH   1  21
ATOM     17  C   UNL     1       1.828   7.161  20.047  0.00  0.00    +0.000 A 
ATOM     18  C   UNL     1       2.586   7.031  18.889  0.00  0.00    +0.000 A 
ATOM     19  C   UNL     1       2.614   8.067  17.957  0.00  0.00    +0.000 A 
ATOM     20  C   UNL     1       1.884   9.267  18.152  0.00  0.00    +0.000 A 
ATOM     21  C   UNL     1       1.072   9.449  19.285  0.00  0.00    +0.000 A 
ATOM     22  C   UNL     1       1.014   8.328  20.223  0.00  0.00    +0.000 A 
BRANCH  17  24
ATOM     23  C   UNL     1       1.457   4.825  20.446  0.00  0.00    +0.000 C 
ATOM     24  O   UNL     1       1.778   6.123  20.944  0.00  0.00    +0.000 OA
ENDBRANCH  17  24
BRANCH  22  25
ATOM     25  O   UNL     1       0.084   8.472  21.241  0.00  0.00    +0.000 OA
BRANCH  25  26
ATOM     26  C   UNL     1       0.471   8.910  22.560  0.00  0.00    +0.000 C 
ATOM     27  C   UNL     1       1.866   9.533  22.493  0.00  0.00    +0.000 C 
ATOM     28  C   UNL     1      -0.535   9.949  23.053  0.00  0.00    +0.000 C 
ENDBRANCH  25  26
ENDBRANCH  22  25
ENDBRANCH   1  21
TORSDOF 4
ENDMDL
MODEL 4
REMARK VINA RESULT:      -6.7      1.168      1.516
REMARK  Name = 
REMARK  7 active torsions:
REMARK  status: ('A' for Active; 'I' for Inactive)
REMARK    1  A    between atoms: C_1  and  O_2
REMARK    2  A    between atoms: O_2  and  C_3
REMARK    3  A    between atoms: C_7  and  C_8
REMARK    4  A    between atoms: C_23  and  O_24
REMARK    5  A    between atoms: O_24  and  C_25
REMARK    6  A    between atoms: C_25  and  C_26
REMARK    7  A    between atoms: C_25  and  C_27
REMARK                            x       y       z     vdW  Elec       q    Type
REMARK                         _______ _______ _______ _____ _____    ______ ____
ROOT
ATOM      1  C   UNL     1       5.207   4.801  17.256  0.00  0.00    +0.000 C 
ATOM      2  C   UNL     1       6.378   5.461  18.014  0.00  0.00    +0.000 C 
ATOM      3  C   UNL     1       7.657   4.959  17.470  0.00  0.00    +0.000 C 
ATOM      4  O   UNL     1       8.363   4.120  18.012  0.00  0.00    +0.000 OA
ATOM      5  N   UNL     1       7.880   5.451  16.211  0.00  0.00    +0.000 N 
ATOM      6  C   UNL     1       6.866   5.187  15.269  0.00  0.00    +0.000 A 
ATOM      7  C   UNL     1       7.366   5.079  13.955  0.00  0.00    +0.000 A 
ATOM      8  C   UNL     1       6.729   4.267  13.034  0.00  0.00    +0.000 A 
ATOM      9  C   UNL     1       5.559   3.626  13.426  0.00  0.00    +0.000 A 
ATOM     10  C   UNL     1       4.958   3.896  14.719  0.00  0.00    +0.000 A 
ATOM     11  C   UNL     1       5.590   4.714  15.695  0.00  0.00    +0.000 A 
ATOM     12  O   UNL     1       5.000   2.644  12.637  0.00  0.00    +0.000 OA
ATOM     13  C   UNL     1       5.600   2.467  11.339  0.00  0.00    +0.000 C 
ATOM     14  C   UNL     1       7.063   2.871  11.192  0.00  0.00    +0.000 C 
ATOM     15  O   UNL     1       7.370   4.100  11.839  0.00  0.00    +0.000 OA
ATOM     16  H   UNL     1       8.184   6.417  16.169  0.00  0.00    +0.000 HD
ENDROOT
BRANCH   1  21
ATOM     17  C   UNL     1       2.234   5.566  19.778  0.00  0.00    +0.000 A 
ATOM     18  C   UNL     1       2.041   6.925  19.556  0.00  0.00    +0.000 A 
ATOM     19  C   UNL     1       2.756   7.574  18.552  0.00  0.00    +0.000 A 
ATOM     20  C   UNL     1       3.689   6.885  17.735  0.00  0.00    +0.000 A 
ATOM     21  C   UNL     1       3.956   5.518  17.928  0.00  0.00    +0.000 A 
ATOM     22  C   UNL     1       3.235   4.869  19.024  0.00  0.00    +0.000 A 
BRANCH  17  24
ATOM     23  C   UNL     1       0.714   3.838  20.451  0.00  0.00    +0.000 C 
ATOM     24  O   UNL     1       1.551   4.941  20.792  0.00  0.00    +0.000 OA
ENDBRANCH  17  24
BRANCH  22  25
ATOM     25  O   UNL     1       3.637   3.571  19.292  0.00  0.00    +0.000 OA
BRANCH  25  26
ATOM     26  C   UNL     1       3.617   2.548  18.273  0.00  0.00    +0.000 C 
ATOM     27  C   UNL     1       3.902   1.192  18.918  0.00  0.00    +0.000 C 
ATOM     28  C   UNL     1       2.237   2.529  17.618  0.00  0.00    +0.000 C 
ENDBRANCH  25  26
ENDBRANCH  22  25
ENDBRANCH   1  21
TORSDOF 4
ENDMDL
MODEL 5
REMARK VINA RESULT:      -6.5      8.865     12.926
REMARK  Name = 
REMARK  7 active torsions:
REMARK  status: ('A' for Active; 'I' for Inactive)
REMARK    1  A    between atoms: C_1  and  O_2
REMARK    2  A    between atoms: O_2  and  C_3
REMARK    3  A    between atoms: C_7  and  C_8
REMARK    4  A    between atoms: C_23  and  O_24
REMARK    5  A    between atoms: O_24  and  C_25
REMARK    6  A    between atoms: C_25  and  C_26
REMARK    7  A    between atoms: C_25  and  C_27
REMARK                            x       y       z     vdW  Elec       q    Type
REMARK                         _______ _______ _______ _____ _____    ______ ____
ROOT
ATOM      1  C   UNL     1      -1.870  12.294  19.821  0.00  0.00    +0.000 C 
ATOM      2  C   UNL     1      -2.055  11.996  18.318  0.00  0.00    +0.000 C 
ATOM      3  C   UNL     1      -3.310  11.240  18.121  0.00  0.00    +0.000 C 
ATOM      4  O   UNL     1      -3.372  10.036  17.912  0.00  0.00    +0.000 OA
ATOM      5  N   UNL     1      -4.402  12.037  18.343  0.00  0.00    +0.000 N 
ATOM      6  C   UNL     1      -4.454  12.655  19.608  0.00  0.00    +0.000 A 
ATOM      7  C   UNL     1      -5.776  12.870  20.048  0.00  0.00    +0.000 A 
ATOM      8  C   UNL     1      -6.065  12.872  21.400  0.00  0.00    +0.000 A 
ATOM      9  C   UNL     1      -5.012  12.726  22.296  0.00  0.00    +0.000 A 
ATOM     10  C   UNL     1      -3.637  12.695  21.831  0.00  0.00    +0.000 A 
ATOM     11  C   UNL     1      -3.303  12.677  20.449  0.00  0.00    +0.000 A 
ATOM     12  O   UNL     1      -5.254  12.506  23.633  0.00  0.00    +0.000 OA
ATOM     13  C   UNL     1      -6.630  12.615  24.047  0.00  0.00    +0.000 C 
ATOM     14  C   UNL     1      -7.694  12.342  22.989  0.00  0.00    +0.000 C 
ATOM     15  O   UNL     1      -7.390  12.930  21.729  0.00  0.00    +0.000 OA
ATOM     16  H   UNL     1      -4.621  12.691  17.600  0.00  0.00    +0.000 HD
ENDROOT
BRANCH   1  21
ATOM     17  C   UNL     1       1.843  13.470  20.606  0.00  0.00    +0.000 A 
ATOM     18  C   UNL     1       2.097  14.292  19.514  0.00  0.00    +0.000 A 
ATOM     19  C   UNL     1       1.083  14.564  18.597  0.00  0.00    +0.000 A 
ATOM     20  C   UNL     1      -0.220  14.023  18.743  0.00  0.00    +0.000 A 
ATOM     21  C   UNL     1      -0.535  13.159  19.806  0.00  0.00    +0.000 A 
ATOM     22  C   UNL     1       0.559  12.842  20.725  0.00  0.00    +0.000 A 
BRANCH  17  24
ATOM     23  C   UNL     1       3.921  14.119  21.612  0.00  0.00    +0.000 C 
ATOM     24  O   UNL     1       2.855  13.179  21.485  0.00  0.00    +0.000 OA
ENDBRANCH  17  24
BRANCH  22  25
ATOM     25  O   UNL     1       0.263  11.866  21.663  0.00  0.00    +0.000 OA
BRANCH  25  26
ATOM     26  C   UNL     1       0.859  10.553  21.600  0.00  0.00    +0.000 C 
ATOM     27  C   UNL     1       0.176   9.643  22.620  0.00  0.00    +0.000 C 
ATOM     28  C   UNL     1       0.669   9.989  20.193  0.00  0.00    +0.000 C 
ENDBRANCH  25  26
ENDBRANCH  22  25
ENDBRANCH   1  21
TORSDOF 4
ENDMDL
MODEL 6
REMARK VINA RESULT:      -6.5      6.675     10.070
REMARK  Name = 
REMARK  7 active torsions:
REMARK  status: ('A' for Active; 'I' for Inactive)
REMARK    1  A    between atoms: C_1  and  O_2
REMARK    2  A    between atoms: O_2  and  C_3
REMARK    3  A    between atoms: C_7  and  C_8
REMARK    4  A    between atoms: C_23  and  O_24
REMARK    5  A    between atoms: O_24  and  C_25
REMARK    6  A    between atoms: C_25  and  C_26
REMARK    7  A    between atoms: C_25  and  C_27
REMARK                            x       y       z     vdW  Elec       q    Type
REMARK                         _______ _______ _______ _____ _____    ______ ____
ROOT
ATOM      1  C   UNL     1       0.488  11.135  18.850  0.00  0.00    +0.000 C 
ATOM      2  C   UNL     1       1.232  12.047  19.848  0.00  0.00    +0.000 C 
ATOM      3  C   UNL     1       0.516  13.335  19.961  0.00  0.00    +0.000 C 
ATOM      4  O   UNL     1       0.871  14.378  19.429  0.00  0.00    +0.000 OA
ATOM      5  N   UNL     1      -0.674  13.178  20.621  0.00  0.00    +0.000 N 
ATOM      6  C   UNL     1      -1.556  12.231  20.064  0.00  0.00    +0.000 A 
ATOM      7  C   UNL     1      -2.909  12.553  20.296  0.00  0.00    +0.000 A 
ATOM      8  C   UNL     1      -3.879  12.166  19.390  0.00  0.00    +0.000 A 
ATOM      9  C   UNL     1      -3.487  11.402  18.296  0.00  0.00    +0.000 A 
ATOM     10  C   UNL     1      -2.123  10.922  18.173  0.00  0.00    +0.000 A 
ATOM     11  C   UNL     1      -1.096  11.309  19.077  0.00  0.00    +0.000 A 
ATOM     12  O   UNL     1      -4.359  11.169  17.255  0.00  0.00    +0.000 OA
ATOM     13  C   UNL     1      -5.715  11.611  17.462  0.00  0.00    +0.000 C 
ATOM     14  C   UNL     1      -5.924  12.767  18.434  0.00  0.00    +0.000 C 
ATOM     15  O   UNL     1      -5.136  12.655  19.613  0.00  0.00    +0.000 OA
ATOM     16  H   UNL     1      -0.603  13.073  21.627  0.00  0.00    +0.000 HD
ENDROOT
BRANCH   1  21
ATOM     17  C   UNL     1       1.678   7.493  19.899  0.00  0.00    +0.000 A 
ATOM     18  C   UNL     1       2.503   7.165  18.830  0.00  0.00    +0.000 A 
ATOM     19  C   UNL     1       2.772   8.112  17.843  0.00  0.00    +0.000 A 
ATOM     20  C   UNL     1       2.225   9.420  17.894  0.00  0.00    +0.000 A 
ATOM     21  C   UNL     1       1.358   9.806  18.931  0.00  0.00    +0.000 A 
ATOM     22  C   UNL     1       1.045   8.780  19.926  0.00  0.00    +0.000 A 
BRANCH  17  24
ATOM     23  C   UNL     1       1.901   5.228  20.653  0.00  0.00    +0.000 C 
ATOM     24  O   UNL     1       1.389   6.545  20.849  0.00  0.00    +0.000 OA
ENDBRANCH  17  24
BRANCH  22  25
ATOM     25  O   UNL     1       0.066   9.138  20.839  0.00  0.00    +0.000 OA
BRANCH  25  26
ATOM     26  C   UNL     1       0.306   9.086  22.261  0.00  0.00    +0.000 C 
ATOM     27  C   UNL     1       1.743   9.522  22.544  0.00  0.00    +0.000 C 
ATOM     28  C   UNL     1      -0.669  10.030  22.963  0.00  0.00    +0.000 C 
ENDBRANCH  25  26
ENDBRANCH  22  25
ENDBRANCH   1  21
TORSDOF 4
ENDMDL
MODEL 7
REMARK VINA RESULT:      -6.3      9.759     12.716
REMARK  Name = 
REMARK  7 active torsions:
REMARK  status: ('A' for Active; 'I' for Inactive)
REMARK    1  A    between atoms: C_1  and  O_2
REMARK    2  A    between atoms: O_2  and  C_3
REMARK    3  A    between atoms: C_7  and  C_8
REMARK    4  A    between atoms: C_23  and  O_24
REMARK    5  A    between atoms: O_24  and  C_25
REMARK    6  A    between atoms: C_25  and  C_26
REMARK    7  A    between atoms: C_25  and  C_27
REMARK                            x       y       z     vdW  Elec       q    Type
REMARK                         _______ _______ _______ _____ _____    ______ ____
ROOT
ATOM      1  C   UNL     1      -2.304  12.674  22.490  0.00  0.00    +0.000 C 
ATOM      2  C   UNL     1      -0.990  12.085  23.043  0.00  0.00    +0.000 C 
ATOM      3  C   UNL     1      -0.694  10.813  22.351  0.00  0.00    +0.000 C 
ATOM      4  O   UNL     1      -0.874   9.702  22.830  0.00  0.00    +0.000 OA
ATOM      5  N   UNL     1      -0.327  11.037  21.050  0.00  0.00    +0.000 N 
ATOM      6  C   UNL     1      -1.257  11.757  20.273  0.00  0.00    +0.000 A 
ATOM      7  C   UNL     1      -1.208  11.402  18.910  0.00  0.00    +0.000 A 
ATOM      8  C   UNL     1      -2.345  11.489  18.128  0.00  0.00    +0.000 A 
ATOM      9  C   UNL     1      -3.502  11.995  18.710  0.00  0.00    +0.000 A 
ATOM     10  C   UNL     1      -3.486  12.529  20.060  0.00  0.00    +0.000 A 
ATOM     11  C   UNL     1      -2.339  12.445  20.896  0.00  0.00    +0.000 A 
ATOM     12  O   UNL     1      -4.712  11.907  18.057  0.00  0.00    +0.000 OA
ATOM     13  C   UNL     1      -4.657  11.431  16.698  0.00  0.00    +0.000 C 
ATOM     14  C   UNL     1      -3.484  10.529  16.328  0.00  0.00    +0.000 C 
ATOM     15  O   UNL     1      -2.245  10.978  16.865  0.00  0.00    +0.000 OA
ATOM     16  H   UNL     1       0.616  11.385  20.918  0.00  0.00    +0.000 HD
ENDROOT
BRANCH   1  21
ATOM     17  C   UNL     1      -3.828  15.763  24.470  0.00  0.00    +0.000 A 
ATOM     18  C   UNL     1      -2.713  16.204  25.172  0.00  0.00    +0.000 A 
ATOM     19  C   UNL     1      -1.471  15.612  24.948  0.00  0.00    +0.000 A 
ATOM     20  C   UNL     1      -1.304  14.559  24.013  0.00  0.00    +0.000 A 
ATOM     21  C   UNL     1      -2.396  14.044  23.293  0.00  0.00    +0.000 A 
ATOM     22  C   UNL     1      -3.699  14.642  23.585  0.00  0.00    +0.000 A 
BRANCH  17  24
ATOM     23  C   UNL     1      -5.504  17.361  23.847  0.00  0.00    +0.000 C 
ATOM     24  O   UNL     1      -5.054  16.327  24.721  0.00  0.00    +0.000 OA
ENDBRANCH  17  24
BRANCH  22  25
ATOM     25  O   UNL     1      -4.775  14.007  22.984  0.00  0.00    +0.000 OA
BRANCH  25  26
ATOM     26  C   UNL     1      -5.793  13.346  23.765  0.00  0.00    +0.000 C 
ATOM     27  C   UNL     1      -6.776  12.652  22.822  0.00  0.00    +0.000 C 
ATOM     28  C   UNL     1      -5.129  12.311  24.671  0.00  0.00    +0.000 C 
ENDBRANCH  25  26
ENDBRANCH  22  25
ENDBRANCH   1  21
TORSDOF 4
ENDMDL
MODEL 8
REMARK VINA RESULT:      -6.3      6.544      9.232
REMARK  Name = 
REMARK  7 active torsions:
REMARK  status: ('A' for Active; 'I' for Inactive)
REMARK    1  A    between atoms: C_1  and  O_2
REMARK    2  A    between atoms: O_2  and  C_3
REMARK    3  A    between atoms: C_7  and  C_8
REMARK    4  A    between atoms: C_23  and  O_24
REMARK    5  A    between atoms: O_24  and  C_25
REMARK    6  A    between atoms: C_25  and  C_26
REMARK    7  A    between atoms: C_25  and  C_27
REMARK                            x       y       z     vdW  Elec       q    Type
REMARK                         _______ _______ _______ _____ _____    ______ ____
ROOT
ATOM      1  C   UNL     1      -0.202  11.130  19.448  0.00  0.00    +0.000 C 
ATOM      2  C   UNL     1       0.332  12.305  18.602  0.00  0.00    +0.000 C 
ATOM      3  C   UNL     1       1.803  12.208  18.502  0.00  0.00    +0.000 C 
ATOM      4  O   UNL     1       2.591  12.892  19.141  0.00  0.00    +0.000 OA
ATOM      5  N   UNL     1       2.171  11.155  17.707  0.00  0.00    +0.000 N 
ATOM      6  C   UNL     1       1.671   9.896  18.098  0.00  0.00    +0.000 A 
ATOM      7  C   UNL     1       2.535   8.840  17.743  0.00  0.00    +0.000 A 
ATOM      8  C   UNL     1       2.575   7.689  18.508  0.00  0.00    +0.000 A 
ATOM      9  C   UNL     1       1.697   7.586  19.582  0.00  0.00    +0.000 A 
ATOM     10  C   UNL     1       0.687   8.601  19.819  0.00  0.00    +0.000 A 
ATOM     11  C   UNL     1       0.625   9.803  19.062  0.00  0.00    +0.000 A 
ATOM     12  O   UNL     1       1.833   6.571  20.503  0.00  0.00    +0.000 OA
ATOM     13  C   UNL     1       2.806   5.558  20.180  0.00  0.00    +0.000 C 
ATOM     14  C   UNL     1       3.961   5.972  19.274  0.00  0.00    +0.000 C 
ATOM     15  O   UNL     1       3.549   6.788  18.183  0.00  0.00    +0.000 OA
ATOM     16  H   UNL     1       2.064  11.305  16.710  0.00  0.00    +0.000 HD
ENDROOT
BRANCH   1  21
ATOM     17  C   UNL     1      -3.791  12.689  20.131  0.00  0.00    +0.000 A 
ATOM     18  C   UNL     1      -4.474  12.293  18.987  0.00  0.00    +0.000 A 
ATOM     19  C   UNL     1      -3.854  11.456  18.062  0.00  0.00    +0.000 A 
ATOM     20  C   UNL     1      -2.529  10.986  18.250  0.00  0.00    +0.000 A 
ATOM     21  C   UNL     1      -1.771  11.374  19.369  0.00  0.00    +0.000 A 
ATOM     22  C   UNL     1      -2.422  12.297  20.299  0.00  0.00    +0.000 A 
BRANCH  17  24
ATOM     23  C   UNL     1      -5.756  13.288  21.369  0.00  0.00    +0.000 C 
ATOM     24  O   UNL     1      -4.395  13.541  21.021  0.00  0.00    +0.000 OA
ENDBRANCH  17  24
BRANCH  22  25
ATOM     25  O   UNL     1      -1.598  12.787  21.300  0.00  0.00    +0.000 OA
BRANCH  25  26
ATOM     26  C   UNL     1      -1.820  12.460  22.688  0.00  0.00    +0.000 C 
ATOM     27  C   UNL     1      -1.048  11.186  23.032  0.00  0.00    +0.000 C 
ATOM     28  C   UNL     1      -1.322  13.615  23.555  0.00  0.00    +0.000 C 
ENDBRANCH  25  26
ENDBRANCH  22  25
ENDBRANCH   1  21
TORSDOF 4
ENDMDL
MODEL 9
REMARK VINA RESULT:      -6.3      6.025      9.283
REMARK  Name = 
REMARK  7 active torsions:
REMARK  status: ('A' for Active; 'I' for Inactive)
REMARK    1  A    between atoms: C_1  and  O_2
REMARK    2  A    between atoms: O_2  and  C_3
REMARK    3  A    between atoms: C_7  and  C_8
REMARK    4  A    between atoms: C_23  and  O_24
REMARK    5  A    between atoms: O_24  and  C_25
REMARK    6  A    between atoms: C_25  and  C_26
REMARK    7  A    between atoms: C_25  and  C_27
REMARK                            x       y       z     vdW  Elec       q    Type
REMARK                         _______ _______ _______ _____ _____    ______ ____
ROOT
ATOM      1  C   UNL     1       1.112  10.280  18.277  0.00  0.00    +0.000 C 
ATOM      2  C   UNL     1       2.042  11.337  18.908  0.00  0.00    +0.000 C 
ATOM      3  C   UNL     1       1.421  12.672  18.785  0.00  0.00    +0.000 C 
ATOM      4  O   UNL     1       1.748  13.520  17.966  0.00  0.00    +0.000 OA
ATOM      5  N   UNL     1       0.335  12.785  19.612  0.00  0.00    +0.000 N 
ATOM      6  C   UNL     1      -0.669  11.812  19.430  0.00  0.00    +0.000 A 
ATOM      7  C   UNL     1      -1.954  12.299  19.748  0.00  0.00    +0.000 A 
ATOM      8  C   UNL     1      -3.067  11.791  19.103  0.00  0.00    +0.000 A 
ATOM      9  C   UNL     1      -2.881  10.753  18.195  0.00  0.00    +0.000 A 
ATOM     10  C   UNL     1      -1.578  10.140  18.021  0.00  0.00    +0.000 A 
ATOM     11  C   UNL     1      -0.410  10.643  18.657  0.00  0.00    +0.000 A 
ATOM     12  O   UNL     1      -3.908  10.354  17.369  0.00  0.00    +0.000 OA
ATOM     13  C   UNL     1      -5.193  10.950  17.632  0.00  0.00    +0.000 C 
ATOM     14  C   UNL     1      -5.195  12.321  18.300  0.00  0.00    +0.000 C 
ATOM     15  O   UNL     1      -4.248  12.428  19.357  0.00  0.00    +0.000 OA
ATOM     16  H   UNL     1       0.548  12.920  20.594  0.00  0.00    +0.000 HD
ENDROOT
BRANCH   1  21
ATOM     17  C   UNL     1       2.085   6.771  19.865  0.00  0.00    +0.000 A 
ATOM     18  C   UNL     1       2.931   6.262  18.887  0.00  0.00    +0.000 A 
ATOM     19  C   UNL     1       3.281   7.050  17.792  0.00  0.00    +0.000 A 
ATOM     20  C   UNL     1       2.797   8.375  17.640  0.00  0.00    +0.000 A 
ATOM     21  C   UNL     1       1.913   8.939  18.577  0.00  0.00    +0.000 A 
ATOM     22  C   UNL     1       1.515   8.075  19.688  0.00  0.00    +0.000 A 
BRANCH  17  24
ATOM     23  C   UNL     1       2.191   4.632  20.944  0.00  0.00    +0.000 C 
ATOM     24  O   UNL     1       1.717   5.977  20.923  0.00  0.00    +0.000 OA
ENDBRANCH  17  24
BRANCH  22  25
ATOM     25  O   UNL     1       0.522   8.599  20.501  0.00  0.00    +0.000 OA
BRANCH  25  26
ATOM     26  C   UNL     1       0.686   8.683  21.933  0.00  0.00    +0.000 C 
ATOM     27  C   UNL     1       1.892   9.568  22.249  0.00  0.00    +0.000 C 
ATOM     28  C   UNL     1      -0.576   9.293  22.541  0.00  0.00    +0.000 C 
ENDBRANCH  25  26
ENDBRANCH  22  25
ENDBRANCH   1  21
TORSDOF 4
ENDMDL
