MODEL 1
REMARK VINA RESULT:      -6.5      0.000      0.000
REMARK  Name = 
REMARK  4 active torsions:
REMARK  status: ('A' for Active; 'I' for Inactive)
REMARK    1  A    between atoms: C_1  and  O_2
REMARK    2  A    between atoms: O_2  and  C_3
REMARK    3  A    between atoms: C_5  and  O_6
REMARK    4  A    between atoms: C_21  and  C_22
REMARK                            x       y       z     vdW  Elec       q    Type
REMARK                         _______ _______ _______ _____ _____    ______ ____
ROOT
ATOM      1  C   UNL     1      -1.837  14.869  24.499  0.00  0.00    +0.000 A 
ATOM      2  C   UNL     1      -3.166  15.171  24.790  0.00  0.00    +0.000 A 
ATOM      3  C   UNL     1      -4.183  14.646  23.986  0.00  0.00    +0.000 A 
ATOM      4  C   UNL     1      -3.882  13.823  22.892  0.00  0.00    +0.000 A 
ATOM      5  C   UNL     1      -2.540  13.502  22.585  0.00  0.00    +0.000 A 
ATOM      6  C   UNL     1      -1.536  14.050  23.403  0.00  0.00    +0.000 A 
ATOM      7  C   UNL     1      -2.205  12.663  21.366  0.00  0.00    +0.000 C 
ATOM      8  C   UNL     1      -0.856  11.932  21.355  0.00  0.00    +0.000 C 
ATOM      9  C   UNL     1      -0.470  11.278  20.019  0.00  0.00    +0.000 C 
ATOM     10  C   UNL     1      -1.590  10.559  19.259  0.00  0.00    +0.000 C 
ATOM     11  C   UNL     1      -2.082  11.405  18.086  0.00  0.00    +0.000 C 
ATOM     12  C   UNL     1      -3.362  10.866  17.478  0.00  0.00    +0.000 C 
ATOM     13  O   UNL     1      -3.466   9.692  17.131  0.00  0.00    +0.000 OA
ATOM     14  C   UNL     1      -4.505  11.848  17.325  0.00  0.00    +0.000 C 
ATOM     15  C   UNL     1      -5.313  11.908  18.621  0.00  0.00    +0.000 C 
ATOM     16 CL   UNL     1      -6.617  10.673  18.556  0.00  0.00    +0.000 Cl
ATOM     17  C   UNL     1      -5.931  13.296  18.849  0.00  0.00    +0.000 C 
ATOM     18  C   UNL     1      -6.453  13.475  20.285  0.00  0.00    +0.000 C 
ATOM     19  C   UNL     1      -7.577  14.504  20.324  0.00  0.00    +0.000 C 
ATOM     20  O   UNL     1      -5.369  13.975  21.108  0.00  0.00    +0.000 OA
ATOM     21  C   UNL     1      -4.990  13.190  22.148  0.00  0.00    +0.000 C 
ATOM     22  O   UNL     1      -5.402  12.072  22.412  0.00  0.00    +0.000 OA
ENDROOT
BRANCH   1  24
ATOM     23  C   UNL     1      -0.966  15.995  26.411  0.00  0.00    +0.000 C 
ATOM     24  O   UNL     1      -0.739  15.298  25.194  0.00  0.00    +0.000 OA
ENDBRANCH   1  24
BRANCH   3  25
ATOM     25  O   UNL     1      -5.488  14.938  24.277  0.00  0.00    +0.000 OA
ATOM     26  H   UNL     1      -6.003  14.984  23.455  0.00  0.00    +0.000 HD
ENDBRANCH   3  25
TORSDOF 2
ENDMDL
MODEL 2
REMARK VINA RESULT:      -6.5      2.190      6.409
REMARK  Name = 
REMARK  4 active torsions:
REMARK  status: ('A' for Active; 'I' for Inactive)
REMARK    1  A    between atoms: C_1  and  O_2
REMARK    2  A    between atoms: O_2  and  C_3
REMARK    3  A    between atoms: C_5  and  O_6
REMARK    4  A    between atoms: C_21  and  C_22
REMARK                            x       y       z     vdW  Elec       q    Type
REMARK                         _______ _______ _______ _____ _____    ______ ____
ROOT
ATOM      1  C   UNL     1      -3.427  10.777  17.310  0.00  0.00    +0.000 A 
ATOM      2  C   UNL     1      -4.818  10.774  17.390  0.00  0.00    +0.000 A 
ATOM      3  C   UNL     1      -5.449  11.474  18.424  0.00  0.00    +0.000 A 
ATOM      4  C   UNL     1      -4.699  12.174  19.380  0.00  0.00    +0.000 A 
ATOM      5  C   UNL     1      -3.288  12.192  19.311  0.00  0.00    +0.000 A 
ATOM      6  C   UNL     1      -2.678  11.473  18.267  0.00  0.00    +0.000 A 
ATOM      7  C   UNL     1      -2.471  12.895  20.378  0.00  0.00    +0.000 C 
ATOM      8  C   UNL     1      -1.042  13.322  20.012  0.00  0.00    +0.000 C 
ATOM      9  C   UNL     1      -0.185  13.831  21.183  0.00  0.00    +0.000 C 
ATOM     10  C   UNL     1      -0.883  14.743  22.198  0.00  0.00    +0.000 C 
ATOM     11  C   UNL     1      -1.217  13.979  23.478  0.00  0.00    +0.000 C 
ATOM     12  C   UNL     1      -2.143  14.755  24.392  0.00  0.00    +0.000 C 
ATOM     13  O   UNL     1      -1.898  15.911  24.729  0.00  0.00    +0.000 OA
ATOM     14  C   UNL     1      -3.388  14.033  24.866  0.00  0.00    +0.000 C 
ATOM     15  C   UNL     1      -4.504  14.194  23.833  0.00  0.00    +0.000 C 
ATOM     16 CL   UNL     1      -5.448  15.675  24.216  0.00  0.00    +0.000 Cl
ATOM     17  C   UNL     1      -5.443  12.978  23.810  0.00  0.00    +0.000 C 
ATOM     18  C   UNL     1      -6.352  12.966  22.569  0.00  0.00    +0.000 C 
ATOM     19  C   UNL     1      -7.640  12.202  22.853  0.00  0.00    +0.000 C 
ATOM     20  O   UNL     1      -5.658  12.277  21.498  0.00  0.00    +0.000 OA
ATOM     21  C   UNL     1      -5.409  13.001  20.378  0.00  0.00    +0.000 C 
ATOM     22  O   UNL     1      -5.627  14.190  20.208  0.00  0.00    +0.000 OA
ENDROOT
BRANCH   1  24
ATOM     23  C   UNL     1      -3.040  10.339  14.998  0.00  0.00    +0.000 C 
ATOM     24  O   UNL     1      -2.670  10.150  16.357  0.00  0.00    +0.000 OA
ENDBRANCH   1  24
BRANCH   3  25
ATOM     25  O   UNL     1      -6.816  11.477  18.497  0.00  0.00    +0.000 OA
ATOM     26  H   UNL     1      -7.171  10.725  17.995  0.00  0.00    +0.000 HD
ENDBRANCH   3  25
TORSDOF 2
ENDMDL
MODEL 3
REMARK VINA RESULT:      -6.3      2.743      7.157
REMARK  Name = 
REMARK  4 active torsions:
REMARK  status: ('A' for Active; 'I' for Inactive)
REMARK    1  A    between atoms: C_1  and  O_2
REMARK    2  A    between atoms: O_2  and  C_3
REMARK    3  A    between atoms: C_5  and  O_6
REMARK    4  A    between atoms: C_21  and  C_22
REMARK                            x       y       z     vdW  Elec       q    Type
REMARK                         _______ _______ _______ _____ _____    ______ ____
ROOT
ATOM      1  C   UNL     1      -3.552  10.967  16.420  0.00  0.00    +0.000 A 
ATOM      2  C   UNL     1      -2.226  11.293  16.701  0.00  0.00    +0.000 A 
ATOM      3  C   UNL     1      -1.901  11.835  17.949  0.00  0.00    +0.000 A 
ATOM      4  C   UNL     1      -2.891  12.056  18.917  0.00  0.00    +0.000 A 
ATOM      5  C   UNL     1      -4.240  11.727  18.650  0.00  0.00    +0.000 A 
ATOM      6  C   UNL     1      -4.541  11.192  17.385  0.00  0.00    +0.000 A 
ATOM      7  C   UNL     1      -5.324  12.022  19.670  0.00  0.00    +0.000 C 
ATOM      8  C   UNL     1      -6.628  11.218  19.573  0.00  0.00    +0.000 C 
ATOM      9  C   UNL     1      -7.769  11.700  20.482  0.00  0.00    +0.000 C 
ATOM     10  C   UNL     1      -7.382  12.118  21.905  0.00  0.00    +0.000 C 
ATOM     11  C   UNL     1      -7.356  13.640  22.039  0.00  0.00    +0.000 C 
ATOM     12  C   UNL     1      -6.717  14.098  23.334  0.00  0.00    +0.000 C 
ATOM     13  O   UNL     1      -7.080  13.658  24.423  0.00  0.00    +0.000 OA
ATOM     14  C   UNL     1      -5.607  15.123  23.217  0.00  0.00    +0.000 C 
ATOM     15  C   UNL     1      -4.274  14.415  22.976  0.00  0.00    +0.000 C 
ATOM     16 CL   UNL     1      -3.509  14.049  24.561  0.00  0.00    +0.000 Cl
ATOM     17  C   UNL     1      -3.317  15.269  22.129  0.00  0.00    +0.000 C 
ATOM     18  C   UNL     1      -2.125  14.456  21.596  0.00  0.00    +0.000 C 
ATOM     19  C   UNL     1      -0.924  15.362  21.348  0.00  0.00    +0.000 C 
ATOM     20  O   UNL     1      -2.502  13.867  20.326  0.00  0.00    +0.000 OA
ATOM     21  C   UNL     1      -2.486  12.511  20.263  0.00  0.00    +0.000 C 
ATOM     22  O   UNL     1      -2.274  11.736  21.181  0.00  0.00    +0.000 OA
ENDROOT
BRANCH   1  24
ATOM     23  C   UNL     1      -3.060   9.985  14.303  0.00  0.00    +0.000 C 
ATOM     24  O   UNL     1      -4.021  10.424  15.254  0.00  0.00    +0.000 OA
ENDBRANCH   1  24
BRANCH   3  25
ATOM     25  O   UNL     1      -0.598  12.148  18.227  0.00  0.00    +0.000 OA
ATOM     26  H   UNL     1      -0.121  11.347  18.498  0.00  0.00    +0.000 HD
ENDBRANCH   3  25
TORSDOF 2
ENDMDL
MODEL 4
REMARK VINA RESULT:      -6.1     12.548     13.951
REMARK  Name = 
REMARK  4 active torsions:
REMARK  status: ('A' for Active; 'I' for Inactive)
REMARK    1  A    between atoms: C_1  and  O_2
REMARK    2  A    between atoms: O_2  and  C_3
REMARK    3  A    between atoms: C_5  and  O_6
REMARK    4  A    between atoms: C_21  and  C_22
REMARK                            x       y       z     vdW  Elec       q    Type
REMARK                         _______ _______ _______ _____ _____    ______ ____
ROOT
ATOM      1  C   UNL     1       8.162  12.777  24.814  0.00  0.00    +0.000 A 
ATOM      2  C   UNL     1       8.111  14.152  25.037  0.00  0.00    +0.000 A 
ATOM      3  C   UNL     1       8.480  15.030  24.012  0.00  0.00    +0.000 A 
ATOM      4  C   UNL     1       8.900  14.543  22.766  0.00  0.00    +0.000 A 
ATOM      5  C   UNL     1       8.953  13.152  22.520  0.00  0.00    +0.000 A 
ATOM      6  C   UNL     1       8.585  12.292  23.570  0.00  0.00    +0.000 A 
ATOM      7  C   UNL     1       9.466  12.620  21.196  0.00  0.00    +0.000 C 
ATOM      8  C   UNL     1       9.040  11.204  20.786  0.00  0.00    +0.000 C 
ATOM      9  C   UNL     1       9.755  10.630  19.552  0.00  0.00    +0.000 C 
ATOM     10  C   UNL     1       9.978  11.592  18.380  0.00  0.00    +0.000 C 
ATOM     11  C   UNL     1      11.429  12.067  18.332  0.00  0.00    +0.000 C 
ATOM     12  C   UNL     1      11.632  13.220  17.371  0.00  0.00    +0.000 C 
ATOM     13  O   UNL     1      11.243  13.164  16.206  0.00  0.00    +0.000 OA
ATOM     14  C   UNL     1      12.333  14.446  17.920  0.00  0.00    +0.000 C 
ATOM     15  C   UNL     1      11.314  15.368  18.589  0.00  0.00    +0.000 C 
ATOM     16 CL   UNL     1      10.673  16.519  17.366  0.00  0.00    +0.000 Cl
ATOM     17  C   UNL     1      11.932  16.152  19.758  0.00  0.00    +0.000 C 
ATOM     18  C   UNL     1      10.864  16.817  20.644  0.00  0.00    +0.000 C 
ATOM     19  C   UNL     1      11.434  18.046  21.343  0.00  0.00    +0.000 C 
ATOM     20  O   UNL     1      10.465  15.872  21.669  0.00  0.00    +0.000 OA
ATOM     21  C   UNL     1       9.158  15.505  21.674  0.00  0.00    +0.000 C 
ATOM     22  O   UNL     1       8.306  15.815  20.858  0.00  0.00    +0.000 OA
ENDROOT
BRANCH   1  24
ATOM     23  C   UNL     1       7.005  12.172  26.809  0.00  0.00    +0.000 C 
ATOM     24  O   UNL     1       7.826  11.799  25.711  0.00  0.00    +0.000 OA
ENDBRANCH   1  24
BRANCH   3  25
ATOM     25  O   UNL     1       8.423  16.380  24.230  0.00  0.00    +0.000 OA
ATOM     26  H   UNL     1       8.633  16.569  25.159  0.00  0.00    +0.000 HD
ENDBRANCH   3  25
TORSDOF 2
ENDMDL
MODEL 5
REMARK VINA RESULT:      -6.1     12.911     15.318
REMARK  Name = 
REMARK  4 active torsions:
REMARK  status: ('A' for Active; 'I' for Inactive)
REMARK    1  A    between atoms: C_1  and  O_2
REMARK    2  A    between atoms: O_2  and  C_3
REMARK    3  A    between atoms: C_5  and  O_6
REMARK    4  A    between atoms: C_21  and  C_22
REMARK                            x       y       z     vdW  Elec       q    Type
REMARK                         _______ _______ _______ _____ _____    ______ ____
ROOT
ATOM      1  C   UNL     1       9.488  10.553  18.913  0.00  0.00    +0.000 A 
ATOM      2  C   UNL     1      10.276  11.034  17.869  0.00  0.00    +0.000 A 
ATOM      3  C   UNL     1      10.797  12.330  17.941  0.00  0.00    +0.000 A 
ATOM      4  C   UNL     1      10.534  13.150  19.047  0.00  0.00    +0.000 A 
ATOM      5  C   UNL     1       9.741  12.677  20.117  0.00  0.00    +0.000 A 
ATOM      6  C   UNL     1       9.222  11.374  20.016  0.00  0.00    +0.000 A 
ATOM      7  C   UNL     1       9.402  13.582  21.286  0.00  0.00    +0.000 C 
ATOM      8  C   UNL     1       9.001  12.914  22.609  0.00  0.00    +0.000 C 
ATOM      9  C   UNL     1       8.461  13.863  23.691  0.00  0.00    +0.000 C 
ATOM     10  C   UNL     1       9.183  15.205  23.848  0.00  0.00    +0.000 C 
ATOM     11  C   UNL     1       8.375  16.337  23.215  0.00  0.00    +0.000 C 
ATOM     12  C   UNL     1       9.168  17.623  23.102  0.00  0.00    +0.000 C 
ATOM     13  O   UNL     1       9.750  18.109  24.070  0.00  0.00    +0.000 OA
ATOM     14  C   UNL     1       9.208  18.277  21.736  0.00  0.00    +0.000 C 
ATOM     15  C   UNL     1      10.341  17.673  20.907  0.00  0.00    +0.000 C 
ATOM     16 CL   UNL     1      11.843  18.617  21.192  0.00  0.00    +0.000 Cl
ATOM     17  C   UNL     1      10.013  17.669  19.405  0.00  0.00    +0.000 C 
ATOM     18  C   UNL     1      10.972  16.774  18.601  0.00  0.00    +0.000 C 
ATOM     19  C   UNL     1      11.073  17.255  17.157  0.00  0.00    +0.000 C 
ATOM     20  O   UNL     1      10.434  15.428  18.580  0.00  0.00    +0.000 OA
ATOM     21  C   UNL     1      11.207  14.462  19.139  0.00  0.00    +0.000 C 
ATOM     22  O   UNL     1      12.262  14.618  19.733  0.00  0.00    +0.000 OA
ENDROOT
BRANCH   1  24
ATOM     23  C   UNL     1       8.112   8.892  17.898  0.00  0.00    +0.000 C 
ATOM     24  O   UNL     1       8.917   9.311  18.990  0.00  0.00    +0.000 OA
ENDBRANCH   1  24
BRANCH   3  25
ATOM     25  O   UNL     1      11.577  12.798  16.918  0.00  0.00    +0.000 OA
ATOM     26  H   UNL     1      11.011  13.150  16.211  0.00  0.00    +0.000 HD
ENDBRANCH   3  25
TORSDOF 2
ENDMDL
MODEL 6
REMARK VINA RESULT:      -6.1     11.706     14.079
REMARK  Name = 
REMARK  4 active torsions:
REMARK  status: ('A' for Active; 'I' for Inactive)
REMARK    1  A    between atoms: C_1  and  O_2
REMARK    2  A    between atoms: O_2  and  C_3
REMARK    3  A    between atoms: C_5  and  O_6
REMARK    4  A    between atoms: C_21  and  C_22
REMARK                            x       y       z     vdW  Elec       q    Type
REMARK                         _______ _______ _______ _____ _____    ______ ____
ROOT
ATOM      1  C   UNL     1       7.948  13.360  24.649  0.00  0.00    +0.000 A 
ATOM      2  C   UNL     1       7.977  12.036  24.216  0.00  0.00    +0.000 A 
ATOM      3  C   UNL     1       8.595  11.722  23.001  0.00  0.00    +0.000 A 
ATOM      4  C   UNL     1       9.183  12.722  22.215  0.00  0.00    +0.000 A 
ATOM      5  C   UNL     1       9.168  14.070  22.641  0.00  0.00    +0.000 A 
ATOM      6  C   UNL     1       8.533  14.359  23.861  0.00  0.00    +0.000 A 
ATOM      7  C   UNL     1       9.748  15.164  21.764  0.00  0.00    +0.000 C 
ATOM      8  C   UNL     1      10.167  16.474  22.446  0.00  0.00    +0.000 C 
ATOM      9  C   UNL     1      10.542  17.622  21.496  0.00  0.00    +0.000 C 
ATOM     10  C   UNL     1      11.375  17.250  20.265  0.00  0.00    +0.000 C 
ATOM     11  C   UNL     1      10.506  17.213  19.009  0.00  0.00    +0.000 C 
ATOM     12  C   UNL     1      11.219  16.587  17.828  0.00  0.00    +0.000 C 
ATOM     13  O   UNL     1      12.332  16.967  17.472  0.00  0.00    +0.000 OA
ATOM     14  C   UNL     1      10.491  15.467  17.112  0.00  0.00    +0.000 C 
ATOM     15  C   UNL     1      10.777  14.137  17.809  0.00  0.00    +0.000 C 
ATOM     16 CL   UNL     1      12.242  13.395  17.077  0.00  0.00    +0.000 Cl
ATOM     17  C   UNL     1       9.595  13.162  17.691  0.00  0.00    +0.000 C 
ATOM     18  C   UNL     1       9.722  11.970  18.655  0.00  0.00    +0.000 C 
ATOM     19  C   UNL     1       8.971  10.759  18.114  0.00  0.00    +0.000 C 
ATOM     20  O   UNL     1       9.116  12.336  19.920  0.00  0.00    +0.000 OA
ATOM     21  C   UNL     1       9.934  12.330  21.004  0.00  0.00    +0.000 C 
ATOM     22  O   UNL     1      11.138  12.136  21.013  0.00  0.00    +0.000 OA
ENDROOT
BRANCH   1  24
ATOM     23  C   UNL     1       5.986  14.027  25.827  0.00  0.00    +0.000 C 
ATOM     24  O   UNL     1       7.391  13.819  25.812  0.00  0.00    +0.000 OA
ENDBRANCH   1  24
BRANCH   3  25
ATOM     25  O   UNL     1       8.629  10.420  22.580  0.00  0.00    +0.000 OA
ATOM     26  H   UNL     1       9.369  10.295  21.964  0.00  0.00    +0.000 HD
ENDBRANCH   3  25
TORSDOF 2
ENDMDL
MODEL 7
REMARK VINA RESULT:      -6.0      2.397      4.156
REMARK  Name = 
REMARK  4 active torsions:
REMARK  status: ('A' for Active; 'I' for Inactive)
REMARK    1  A    between atoms: C_1  and  O_2
REMARK    2  A    between atoms: O_2  and  C_3
REMARK    3  A    between atoms: C_5  and  O_6
REMARK    4  A    between atoms: C_21  and  C_22
REMARK                            x       y       z     vdW  Elec       q    Type
REMARK                         _______ _______ _______ _____ _____    ______ ____
ROOT
ATOM      1  C   UNL     1       1.383  13.343  20.191  0.00  0.00    +0.000 A 
ATOM      2  C   UNL     1       1.104  13.937  21.421  0.00  0.00    +0.000 A 
ATOM      3  C   UNL     1      -0.199  13.891  21.927  0.00  0.00    +0.000 A 
ATOM      4  C   UNL     1      -1.225  13.258  21.213  0.00  0.00    +0.000 A 
ATOM      5  C   UNL     1      -0.959  12.646  19.967  0.00  0.00    +0.000 A 
ATOM      6  C   UNL     1       0.357  12.714  19.477  0.00  0.00    +0.000 A 
ATOM      7  C   UNL     1      -2.079  12.014  19.162  0.00  0.00    +0.000 C 
ATOM      8  C   UNL     1      -1.694  10.955  18.120  0.00  0.00    +0.000 C 
ATOM      9  C   UNL     1      -2.829  10.505  17.185  0.00  0.00    +0.000 C 
ATOM     10  C   UNL     1      -4.205  10.298  17.827  0.00  0.00    +0.000 C 
ATOM     11  C   UNL     1      -5.135  11.467  17.513  0.00  0.00    +0.000 C 
ATOM     12  C   UNL     1      -6.402  11.441  18.345  0.00  0.00    +0.000 C 
ATOM     13  O   UNL     1      -7.110  10.439  18.410  0.00  0.00    +0.000 OA
ATOM     14  C   UNL     1      -6.747  12.713  19.094  0.00  0.00    +0.000 C 
ATOM     15  C   UNL     1      -6.030  12.728  20.443  0.00  0.00    +0.000 C 
ATOM     16 CL   UNL     1      -7.080  11.945  21.674  0.00  0.00    +0.000 Cl
ATOM     17  C   UNL     1      -5.688  14.157  20.894  0.00  0.00    +0.000 C 
ATOM     18  C   UNL     1      -4.684  14.178  22.060  0.00  0.00    +0.000 C 
ATOM     19  C   UNL     1      -4.847  15.448  22.887  0.00  0.00    +0.000 C 
ATOM     20  O   UNL     1      -3.343  14.178  21.510  0.00  0.00    +0.000 OA
ATOM     21  C   UNL     1      -2.556  13.123  21.843  0.00  0.00    +0.000 C 
ATOM     22  O   UNL     1      -2.882  12.135  22.479  0.00  0.00    +0.000 OA
ENDROOT
BRANCH   1  24
ATOM     23  C   UNL     1       2.638  12.855  18.224  0.00  0.00    +0.000 C 
ATOM     24  O   UNL     1       2.604  13.299  19.573  0.00  0.00    +0.000 OA
ENDBRANCH   1  24
BRANCH   3  25
ATOM     25  O   UNL     1      -0.470  14.469  23.138  0.00  0.00    +0.000 OA
ATOM     26  H   UNL     1      -0.418  15.435  23.057  0.00  0.00    +0.000 HD
ENDBRANCH   3  25
TORSDOF 2
ENDMDL
MODEL 8
REMARK VINA RESULT:      -5.9     10.943     13.322
REMARK  Name = 
REMARK  4 active torsions:
REMARK  status: ('A' for Active; 'I' for Inactive)
REMARK    1  A    between atoms: C_1  and  O_2
REMARK    2  A    between atoms: O_2  and  C_3
REMARK    3  A    between atoms: C_5  and  O_6
REMARK    4  A    between atoms: C_21  and  C_22
REMARK                            x       y       z     vdW  Elec       q    Type
REMARK                         _______ _______ _______ _____ _____    ______ ____
ROOT
ATOM      1  C   UNL     1       6.207  13.188  24.012  0.00  0.00    +0.000 A 
ATOM      2  C   UNL     1       6.907  12.003  23.792  0.00  0.00    +0.000 A 
ATOM      3  C   UNL     1       7.923  11.972  22.830  0.00  0.00    +0.000 A 
ATOM      4  C   UNL     1       8.241  13.116  22.085  0.00  0.00    +0.000 A 
ATOM      5  C   UNL     1       7.545  14.327  22.298  0.00  0.00    +0.000 A 
ATOM      6  C   UNL     1       6.523  14.329  23.264  0.00  0.00    +0.000 A 
ATOM      7  C   UNL     1       7.843  15.549  21.451  0.00  0.00    +0.000 C 
ATOM      8  C   UNL     1       7.463  16.921  22.024  0.00  0.00    +0.000 C 
ATOM      9  C   UNL     1       7.583  18.102  21.047  0.00  0.00    +0.000 C 
ATOM     10  C   UNL     1       8.813  18.112  20.132  0.00  0.00    +0.000 C 
ATOM     11  C   UNL     1       8.442  17.676  18.716  0.00  0.00    +0.000 C 
ATOM     12  C   UNL     1       9.659  17.407  17.854  0.00  0.00    +0.000 C 
ATOM     13  O   UNL     1      10.563  18.231  17.741  0.00  0.00    +0.000 OA
ATOM     14  C   UNL     1       9.703  16.069  17.143  0.00  0.00    +0.000 C 
ATOM     15  C   UNL     1      10.302  15.011  18.070  0.00  0.00    +0.000 C 
ATOM     16 CL   UNL     1      12.084  14.975  17.845  0.00  0.00    +0.000 Cl
ATOM     17  C   UNL     1       9.721  13.615  17.797  0.00  0.00    +0.000 C 
ATOM     18  C   UNL     1      10.048  12.616  18.920  0.00  0.00    +0.000 C 
ATOM     19  C   UNL     1      10.060  11.189  18.384  0.00  0.00    +0.000 C 
ATOM     20  O   UNL     1       9.007  12.700  19.926  0.00  0.00    +0.000 OA
ATOM     21  C   UNL     1       9.402  13.072  21.171  0.00  0.00    +0.000 C 
ATOM     22  O   UNL     1      10.518  13.427  21.512  0.00  0.00    +0.000 OA
ENDROOT
BRANCH   1  24
ATOM     23  C   UNL     1       5.491  13.111  26.285  0.00  0.00    +0.000 C 
ATOM     24  O   UNL     1       5.200  13.375  24.920  0.00  0.00    +0.000 OA
ENDBRANCH   1  24
BRANCH   3  25
ATOM     25  O   UNL     1       8.614  10.810  22.620  0.00  0.00    +0.000 OA
ATOM     26  H   UNL     1       9.475  11.011  22.218  0.00  0.00    +0.000 HD
ENDBRANCH   3  25
TORSDOF 2
ENDMDL
MODEL 9
REMARK VINA RESULT:      -5.9     10.753     12.437
REMARK  Name = 
REMARK  4 active torsions:
REMARK  status: ('A' for Active; 'I' for Inactive)
REMARK    1  A    between atoms: C_1  and  O_2
REMARK    2  A    between atoms: O_2  and  C_3
REMARK    3  A    between atoms: C_5  and  O_6
REMARK    4  A    between atoms: C_21  and  C_22
REMARK                            x       y       z     vdW  Elec       q    Type
REMARK                         _______ _______ _______ _____ _____    ______ ____
ROOT
ATOM      1  C   UNL     1       5.843  12.629  24.998  0.00  0.00    +0.000 A 
ATOM      2  C   UNL     1       6.784  11.631  24.750  0.00  0.00    +0.000 A 
ATOM      3  C   UNL     1       7.704  11.796  23.709  0.00  0.00    +0.000 A 
ATOM      4  C   UNL     1       7.689  12.949  22.912  0.00  0.00    +0.000 A 
ATOM      5  C   UNL     1       6.745  13.974  23.153  0.00  0.00    +0.000 A 
ATOM      6  C   UNL     1       5.827  13.780  24.199  0.00  0.00    +0.000 A 
ATOM      7  C   UNL     1       6.685  15.195  22.255  0.00  0.00    +0.000 C 
ATOM      8  C   UNL     1       6.037  16.465  22.825  0.00  0.00    +0.000 C 
ATOM      9  C   UNL     1       5.805  17.598  21.814  0.00  0.00    +0.000 C 
ATOM     10  C   UNL     1       6.926  17.855  20.801  0.00  0.00    +0.000 C 
ATOM     11  C   UNL     1       6.564  17.285  19.430  0.00  0.00    +0.000 C 
ATOM     12  C   UNL     1       7.743  17.269  18.479  0.00  0.00    +0.000 C 
ATOM     13  O   UNL     1       8.418  18.275  18.272  0.00  0.00    +0.000 OA
ATOM     14  C   UNL     1       8.048  15.949  17.799  0.00  0.00    +0.000 C 
ATOM     15  C   UNL     1       8.944  15.099  18.699  0.00  0.00    +0.000 C 
ATOM     16 CL   UNL     1      10.664  15.468  18.329  0.00  0.00    +0.000 Cl
ATOM     17  C   UNL     1       8.689  13.596  18.507  0.00  0.00    +0.000 C 
ATOM     18  C   UNL     1       9.323  12.749  19.624  0.00  0.00    +0.000 C 
ATOM     19  C   UNL     1       9.630  11.342  19.123  0.00  0.00    +0.000 C 
ATOM     20  O   UNL     1       8.369  12.632  20.709  0.00  0.00    +0.000 OA
ATOM     21  C   UNL     1       8.756  13.137  21.908  0.00  0.00    +0.000 C 
ATOM     22  O   UNL     1       9.780  13.756  22.148  0.00  0.00    +0.000 OA
ENDROOT
BRANCH   1  24
ATOM     23  C   UNL     1       4.897  11.521  26.884  0.00  0.00    +0.000 C 
ATOM     24  O   UNL     1       4.890  12.616  25.980  0.00  0.00    +0.000 OA
ENDBRANCH   1  24
BRANCH   3  25
ATOM     25  O   UNL     1       8.631  10.817  23.471  0.00  0.00    +0.000 OA
ATOM     26  H   UNL     1       9.237  10.752  24.227  0.00  0.00    +0.000 HD
ENDBRANCH   3  25
TORSDOF 2
ENDMDL
