MODEL 1
REMARK VINA RESULT:      -7.6      0.000      0.000
REMARK  Name = 
REMARK  12 active torsions:
REMARK  status: ('A' for Active; 'I' for Inactive)
REMARK    1  A    between atoms: C_2  and  C_4
REMARK    2  A    between atoms: C_4  and  C_5
REMARK    3  A    between atoms: N_7  and  C_8
REMARK    4  A    between atoms: C_11  and  C_12
REMARK    5  A    between atoms: C_12  and  C_13
REMARK    6  A    between atoms: C_13  and  C_14
REMARK    7  A    between atoms: C_14  and  C_15
REMARK    8  A    between atoms: C_15  and  C_16
REMARK    9  A    between atoms: C_16  and  C_17
REMARK   10  A    between atoms: C_17  and  C_18
REMARK   11  A    between atoms: C_18  and  C_19
REMARK   12  A    between atoms: C_19  and  C_20
REMARK                            x       y       z     vdW  Elec       q    Type
REMARK                         _______ _______ _______ _____ _____    ______ ____
ROOT
ATOM      1  C   UNL     1       1.518   8.895  19.220  0.00  0.00    +0.000 A 
ATOM      2  C   UNL     1       1.017   8.456  20.463  0.00  0.00    +0.000 A 
ATOM      3  C   UNL     1       1.283   7.155  20.909  0.00  0.00    +0.000 A 
ATOM      4  C   UNL     1       2.069   6.278  20.139  0.00  0.00    +0.000 A 
ATOM      5  C   UNL     1       2.570   6.735  18.902  0.00  0.00    +0.000 A 
ATOM      6  C   UNL     1       2.282   8.017  18.444  0.00  0.00    +0.000 A 
ENDROOT
BRANCH   1   9
ATOM      7  C   UNL     1       1.090  11.327  19.410  0.00  0.00    +0.000 C 
ATOM      8  O   UNL     1       1.252  11.345  20.621  0.00  0.00    +0.000 OA
ATOM      9  N   UNL     1       1.254  10.185  18.687  0.00  0.00    +0.000 N 
ATOM     10  H   UNL     1       1.202  10.257  17.657  0.00  0.00    +0.000 HD
BRANCH   7  11
ATOM     11  C   UNL     1       0.700  12.585  18.671  0.00  0.00    +0.000 C 
ATOM     12  C   UNL     1       1.885  13.395  18.116  0.00  0.00    +0.000 C 
ATOM     13  C   UNL     1       1.101  13.941  19.276  0.00  0.00    +0.000 C 
BRANCH  11  15
ATOM     14  N   UNL     1      -1.339  11.970  17.504  0.00  0.00    +0.000 NA
ATOM     15  C   UNL     1      -0.768  12.733  18.370  0.00  0.00    +0.000 C 
ATOM     16  N   UNL     1      -1.523  13.745  19.003  0.00  0.00    +0.000 N 
ATOM     17  H   UNL     1      -0.821  11.230  17.005  0.00  0.00    +0.000 HD
ATOM     18  H   UNL     1      -2.517  13.875  18.782  0.00  0.00    +0.000 HD
ATOM     19  H   UNL     1      -1.075  14.379  19.682  0.00  0.00    +0.000 HD
ENDBRANCH  11  15
ENDBRANCH   7  11
ENDBRANCH   1   9
BRANCH   4  20
ATOM     20  C   UNL     1       2.339   4.875  20.649  0.00  0.00    +0.000 C 
BRANCH  20  21
ATOM     21  C   UNL     1       1.084   3.992  20.670  0.00  0.00    +0.000 C 
BRANCH  21  22
ATOM     22  C   UNL     1       1.245   2.723  19.840  0.00  0.00    +0.000 C 
BRANCH  22  23
ATOM     23  C   UNL     1       1.303   3.102  18.358  0.00  0.00    +0.000 C 
BRANCH  23  24
ATOM     24  C   UNL     1       2.431   2.368  17.640  0.00  0.00    +0.000 C 
BRANCH  24  25
ATOM     25  C   UNL     1       3.762   3.081  17.891  0.00  0.00    +0.000 C 
BRANCH  25  26
ATOM     26  C   UNL     1       4.042   4.092  16.782  0.00  0.00    +0.000 C 
BRANCH  26  27
ATOM     27  C   UNL     1       5.508   4.019  16.343  0.00  0.00    +0.000 C 
BRANCH  27  28
ATOM     28  C   UNL     1       6.329   5.061  17.055  0.00  0.00    +0.000 A 
ATOM     29  C   UNL     1       7.174   4.696  18.118  0.00  0.00    +0.000 A 
ATOM     30  C   UNL     1       7.934   5.672  18.778  0.00  0.00    +0.000 A 
ATOM     31  C   UNL     1       7.857   7.007  18.383  0.00  0.00    +0.000 A 
ATOM     32  C   UNL     1       7.016   7.378  17.322  0.00  0.00    +0.000 A 
ATOM     33  C   UNL     1       6.259   6.409  16.659  0.00  0.00    +0.000 A 
ENDBRANCH  27  28
ENDBRANCH  26  27
ENDBRANCH  25  26
ENDBRANCH  24  25
ENDBRANCH  23  24
ENDBRANCH  22  23
ENDBRANCH  21  22
ENDBRANCH  20  21
ENDBRANCH   4  20
TORSDOF 12
ENDMDL
MODEL 2
REMARK VINA RESULT:      -7.6      1.194      1.894
REMARK  Name = 
REMARK  12 active torsions:
REMARK  status: ('A' for Active; 'I' for Inactive)
REMARK    1  A    between atoms: C_2  and  C_4
REMARK    2  A    between atoms: C_4  and  C_5
REMARK    3  A    between atoms: N_7  and  C_8
REMARK    4  A    between atoms: C_11  and  C_12
REMARK    5  A    between atoms: C_12  and  C_13
REMARK    6  A    between atoms: C_13  and  C_14
REMARK    7  A    between atoms: C_14  and  C_15
REMARK    8  A    between atoms: C_15  and  C_16
REMARK    9  A    between atoms: C_16  and  C_17
REMARK   10  A    between atoms: C_17  and  C_18
REMARK   11  A    between atoms: C_18  and  C_19
REMARK   12  A    between atoms: C_19  and  C_20
REMARK                            x       y       z     vdW  Elec       q    Type
REMARK                         _______ _______ _______ _____ _____    ______ ____
ROOT
ATOM      1  C   UNL     1       0.898   9.573  19.661  0.00  0.00    +0.000 A 
ATOM      2  C   UNL     1       0.957   8.862  20.878  0.00  0.00    +0.000 A 
ATOM      3  C   UNL     1       1.614   7.626  20.939  0.00  0.00    +0.000 A 
ATOM      4  C   UNL     1       2.243   7.089  19.800  0.00  0.00    +0.000 A 
ATOM      5  C   UNL     1       2.183   7.817  18.594  0.00  0.00    +0.000 A 
ATOM      6  C   UNL     1       1.505   9.030  18.524  0.00  0.00    +0.000 A 
ENDROOT
BRANCH   1   9
ATOM      7  C   UNL     1       0.111  11.779  20.467  0.00  0.00    +0.000 C 
ATOM      8  O   UNL     1       0.698  11.691  21.535  0.00  0.00    +0.000 OA
ATOM      9  N   UNL     1       0.215  10.810  19.516  0.00  0.00    +0.000 N 
ATOM     10  H   UNL     1      -0.223  10.990  18.598  0.00  0.00    +0.000 HD
BRANCH   7  11
ATOM     11  C   UNL     1      -0.756  12.978  20.167  0.00  0.00    +0.000 C 
ATOM     12  C   UNL     1      -1.520  13.535  21.382  0.00  0.00    +0.000 C 
ATOM     13  C   UNL     1      -2.281  12.826  20.298  0.00  0.00    +0.000 C 
BRANCH  11  15
ATOM     14  N   UNL     1      -0.920  12.968  17.744  0.00  0.00    +0.000 NA
ATOM     15  C   UNL     1      -0.562  13.598  18.810  0.00  0.00    +0.000 C 
ATOM     16  N   UNL     1       0.059  14.860  18.688  0.00  0.00    +0.000 N 
ATOM     17  H   UNL     1      -1.361  12.035  17.786  0.00  0.00    +0.000 HD
ATOM     18  H   UNL     1       0.224  15.278  17.766  0.00  0.00    +0.000 HD
ATOM     19  H   UNL     1       0.373  15.368  19.530  0.00  0.00    +0.000 HD
ENDBRANCH  11  15
ENDBRANCH   7  11
ENDBRANCH   1   9
BRANCH   4  20
ATOM     20  C   UNL     1       2.946   5.749  19.898  0.00  0.00    +0.000 C 
BRANCH  20  21
ATOM     21  C   UNL     1       2.338   4.828  20.965  0.00  0.00    +0.000 C 
BRANCH  21  22
ATOM     22  C   UNL     1       1.103   4.086  20.466  0.00  0.00    +0.000 C 
BRANCH  22  23
ATOM     23  C   UNL     1       1.542   2.772  19.815  0.00  0.00    +0.000 C 
BRANCH  23  24
ATOM     24  C   UNL     1       1.419   2.834  18.297  0.00  0.00    +0.000 C 
BRANCH  24  25
ATOM     25  C   UNL     1       2.597   2.107  17.646  0.00  0.00    +0.000 C 
BRANCH  25  26
ATOM     26  C   UNL     1       3.892   2.883  17.871  0.00  0.00    +0.000 C 
BRANCH  26  27
ATOM     27  C   UNL     1       4.031   4.012  16.845  0.00  0.00    +0.000 C 
BRANCH  27  28
ATOM     28  C   UNL     1       5.197   4.902  17.187  0.00  0.00    +0.000 A 
ATOM     29  C   UNL     1       5.138   6.283  16.930  0.00  0.00    +0.000 A 
ATOM     30  C   UNL     1       6.228   7.104  17.249  0.00  0.00    +0.000 A 
ATOM     31  C   UNL     1       7.374   6.556  17.826  0.00  0.00    +0.000 A 
ATOM     32  C   UNL     1       7.439   5.179  18.086  0.00  0.00    +0.000 A 
ATOM     33  C   UNL     1       6.354   4.356  17.772  0.00  0.00    +0.000 A 
ENDBRANCH  27  28
ENDBRANCH  26  27
ENDBRANCH  25  26
ENDBRANCH  24  25
ENDBRANCH  23  24
ENDBRANCH  22  23
ENDBRANCH  21  22
ENDBRANCH  20  21
ENDBRANCH   4  20
TORSDOF 12
ENDMDL
MODEL 3
REMARK VINA RESULT:      -7.5      0.813      1.391
REMARK  Name = 
REMARK  12 active torsions:
REMARK  status: ('A' for Active; 'I' for Inactive)
REMARK    1  A    between atoms: C_2  and  C_4
REMARK    2  A    between atoms: C_4  and  C_5
REMARK    3  A    between atoms: N_7  and  C_8
REMARK    4  A    between atoms: C_11  and  C_12
REMARK    5  A    between atoms: C_12  and  C_13
REMARK    6  A    between atoms: C_13  and  C_14
REMARK    7  A    between atoms: C_14  and  C_15
REMARK    8  A    between atoms: C_15  and  C_16
REMARK    9  A    between atoms: C_16  and  C_17
REMARK   10  A    between atoms: C_17  and  C_18
REMARK   11  A    between atoms: C_18  and  C_19
REMARK   12  A    between atoms: C_19  and  C_20
REMARK                            x       y       z     vdW  Elec       q    Type
REMARK                         _______ _______ _______ _____ _____    ______ ____
ROOT
ATOM      1  C   UNL     1       1.188   9.611  19.391  0.00  0.00    +0.000 A 
ATOM      2  C   UNL     1       0.862   9.070  20.652  0.00  0.00    +0.000 A 
ATOM      3  C   UNL     1       1.244   7.760  20.975  0.00  0.00    +0.000 A 
ATOM      4  C   UNL     1       1.974   6.978  20.061  0.00  0.00    +0.000 A 
ATOM      5  C   UNL     1       2.299   7.538  18.808  0.00  0.00    +0.000 A 
ATOM      6  C   UNL     1       1.895   8.827  18.474  0.00  0.00    +0.000 A 
ENDROOT
BRANCH   1   9
ATOM      7  C   UNL     1       1.240  12.084  19.519  0.00  0.00    +0.000 C 
ATOM      8  O   UNL     1       2.110  12.104  20.376  0.00  0.00    +0.000 OA
ATOM      9  N   UNL     1       0.798  10.913  18.981  0.00  0.00    +0.000 N 
ATOM     10  H   UNL     1       0.135  10.969  18.190  0.00  0.00    +0.000 HD
BRANCH   7  11
ATOM     11  C   UNL     1       0.622  13.370  19.026  0.00  0.00    +0.000 C 
ATOM     12  C   UNL     1       1.630  14.500  18.751  0.00  0.00    +0.000 C 
ATOM     13  C   UNL     1       0.704  14.612  19.929  0.00  0.00    +0.000 C 
BRANCH  11  15
ATOM     14  N   UNL     1      -1.175  12.912  17.458  0.00  0.00    +0.000 NA
ATOM     15  C   UNL     1      -0.831  13.288  18.641  0.00  0.00    +0.000 C 
ATOM     16  N   UNL     1      -1.832  13.668  19.561  0.00  0.00    +0.000 N 
ATOM     17  H   UNL     1      -0.475  12.643  16.747  0.00  0.00    +0.000 HD
ATOM     18  H   UNL     1      -2.824  13.645  19.299  0.00  0.00    +0.000 HD
ATOM     19  H   UNL     1      -1.572  13.993  20.506  0.00  0.00    +0.000 HD
ENDBRANCH  11  15
ENDBRANCH   7  11
ENDBRANCH   1   9
BRANCH   4  20
ATOM     20  C   UNL     1       2.372   5.565  20.440  0.00  0.00    +0.000 C 
BRANCH  20  21
ATOM     21  C   UNL     1       1.192   4.583  20.420  0.00  0.00    +0.000 C 
BRANCH  21  22
ATOM     22  C   UNL     1       1.532   3.243  21.064  0.00  0.00    +0.000 C 
BRANCH  22  23
ATOM     23  C   UNL     1       1.394   2.138  20.014  0.00  0.00    +0.000 C 
BRANCH  23  24
ATOM     24  C   UNL     1       1.339   2.713  18.604  0.00  0.00    +0.000 C 
BRANCH  24  25
ATOM     25  C   UNL     1       2.566   2.266  17.808  0.00  0.00    +0.000 C 
BRANCH  25  26
ATOM     26  C   UNL     1       3.760   3.166  18.119  0.00  0.00    +0.000 C 
BRANCH  26  27
ATOM     27  C   UNL     1       3.913   4.250  17.047  0.00  0.00    +0.000 C 
BRANCH  27  28
ATOM     28  C   UNL     1       5.160   5.059  17.285  0.00  0.00    +0.000 A 
ATOM     29  C   UNL     1       5.153   6.451  17.089  0.00  0.00    +0.000 A 
ATOM     30  C   UNL     1       6.319   7.198  17.309  0.00  0.00    +0.000 A 
ATOM     31  C   UNL     1       7.489   6.565  17.726  0.00  0.00    +0.000 A 
ATOM     32  C   UNL     1       7.503   5.176  17.925  0.00  0.00    +0.000 A 
ATOM     33  C   UNL     1       6.343   4.427  17.709  0.00  0.00    +0.000 A 
ENDBRANCH  27  28
ENDBRANCH  26  27
ENDBRANCH  25  26
ENDBRANCH  24  25
ENDBRANCH  23  24
ENDBRANCH  22  23
ENDBRANCH  21  22
ENDBRANCH  20  21
ENDBRANCH   4  20
TORSDOF 12
ENDMDL
MODEL 4
REMARK VINA RESULT:      -7.4      1.216      1.511
REMARK  Name = 
REMARK  12 active torsions:
REMARK  status: ('A' for Active; 'I' for Inactive)
REMARK    1  A    between atoms: C_2  and  C_4
REMARK    2  A    between atoms: C_4  and  C_5
REMARK    3  A    between atoms: N_7  and  C_8
REMARK    4  A    between atoms: C_11  and  C_12
REMARK    5  A    between atoms: C_12  and  C_13
REMARK    6  A    between atoms: C_13  and  C_14
REMARK    7  A    between atoms: C_14  and  C_15
REMARK    8  A    between atoms: C_15  and  C_16
REMARK    9  A    between atoms: C_16  and  C_17
REMARK   10  A    between atoms: C_17  and  C_18
REMARK   11  A    between atoms: C_18  and  C_19
REMARK   12  A    between atoms: C_19  and  C_20
REMARK                            x       y       z     vdW  Elec       q    Type
REMARK                         _______ _______ _______ _____ _____    ______ ____
ROOT
ATOM      1  C   UNL     1       1.466   9.020  19.619  0.00  0.00    +0.000 A 
ATOM      2  C   UNL     1       0.982   8.578  20.868  0.00  0.00    +0.000 A 
ATOM      3  C   UNL     1       1.172   7.247  21.265  0.00  0.00    +0.000 A 
ATOM      4  C   UNL     1       1.863   6.342  20.439  0.00  0.00    +0.000 A 
ATOM      5  C   UNL     1       2.348   6.802  19.197  0.00  0.00    +0.000 A 
ATOM      6  C   UNL     1       2.135   8.115  18.788  0.00  0.00    +0.000 A 
ENDROOT
BRANCH   1   9
ATOM      7  C   UNL     1       1.167  11.462  19.899  0.00  0.00    +0.000 C 
ATOM      8  O   UNL     1       1.321  11.425  21.111  0.00  0.00    +0.000 OA
ATOM      9  N   UNL     1       1.275  10.341  19.135  0.00  0.00    +0.000 N 
ATOM     10  H   UNL     1       1.234  10.455  18.108  0.00  0.00    +0.000 HD
BRANCH   7  11
ATOM     11  C   UNL     1       0.849  12.766  19.208  0.00  0.00    +0.000 C 
ATOM     12  C   UNL     1      -0.456  13.436  19.673  0.00  0.00    +0.000 C 
ATOM     13  C   UNL     1      -0.392  12.828  18.301  0.00  0.00    +0.000 C 
BRANCH  11  15
ATOM     14  N   UNL     1       2.343  12.733  17.294  0.00  0.00    +0.000 NA
ATOM     15  C   UNL     1       1.954  13.340  18.361  0.00  0.00    +0.000 C 
ATOM     16  N   UNL     1       2.607  14.527  18.757  0.00  0.00    +0.000 N 
ATOM     17  H   UNL     1       1.906  11.853  16.978  0.00  0.00    +0.000 HD
ATOM     18  H   UNL     1       3.382  14.910  18.204  0.00  0.00    +0.000 HD
ATOM     19  H   UNL     1       2.323  15.013  19.622  0.00  0.00    +0.000 HD
ENDBRANCH  11  15
ENDBRANCH   7  11
ENDBRANCH   1   9
BRANCH   4  20
ATOM     20  C   UNL     1       2.052   4.909  20.897  0.00  0.00    +0.000 C 
BRANCH  20  21
ATOM     21  C   UNL     1       1.036   3.941  20.273  0.00  0.00    +0.000 C 
BRANCH  21  22
ATOM     22  C   UNL     1       1.546   2.505  20.225  0.00  0.00    +0.000 C 
BRANCH  22  23
ATOM     23  C   UNL     1       1.858   2.137  18.772  0.00  0.00    +0.000 C 
BRANCH  23  24
ATOM     24  C   UNL     1       3.235   2.641  18.355  0.00  0.00    +0.000 C 
BRANCH  24  25
ATOM     25  C   UNL     1       3.093   3.727  17.287  0.00  0.00    +0.000 C 
BRANCH  25  26
ATOM     26  C   UNL     1       4.449   4.036  16.657  0.00  0.00    +0.000 C 
BRANCH  26  27
ATOM     27  C   UNL     1       4.676   5.549  16.576  0.00  0.00    +0.000 C 
BRANCH  27  28
ATOM     28  C   UNL     1       5.886   5.949  17.378  0.00  0.00    +0.000 A 
ATOM     29  C   UNL     1       6.340   5.139  18.434  0.00  0.00    +0.000 A 
ATOM     30  C   UNL     1       7.466   5.519  19.177  0.00  0.00    +0.000 A 
ATOM     31  C   UNL     1       8.143   6.700  18.870  0.00  0.00    +0.000 A 
ATOM     32  C   UNL     1       7.696   7.512  17.817  0.00  0.00    +0.000 A 
ATOM     33  C   UNL     1       6.576   7.136  17.072  0.00  0.00    +0.000 A 
ENDBRANCH  27  28
ENDBRANCH  26  27
ENDBRANCH  25  26
ENDBRANCH  24  25
ENDBRANCH  23  24
ENDBRANCH  22  23
ENDBRANCH  21  22
ENDBRANCH  20  21
ENDBRANCH   4  20
TORSDOF 12
ENDMDL
MODEL 5
REMARK VINA RESULT:      -7.3      1.165      1.945
REMARK  Name = 
REMARK  12 active torsions:
REMARK  status: ('A' for Active; 'I' for Inactive)
REMARK    1  A    between atoms: C_2  and  C_4
REMARK    2  A    between atoms: C_4  and  C_5
REMARK    3  A    between atoms: N_7  and  C_8
REMARK    4  A    between atoms: C_11  and  C_12
REMARK    5  A    between atoms: C_12  and  C_13
REMARK    6  A    between atoms: C_13  and  C_14
REMARK    7  A    between atoms: C_14  and  C_15
REMARK    8  A    between atoms: C_15  and  C_16
REMARK    9  A    between atoms: C_16  and  C_17
REMARK   10  A    between atoms: C_17  and  C_18
REMARK   11  A    between atoms: C_18  and  C_19
REMARK   12  A    between atoms: C_19  and  C_20
REMARK                            x       y       z     vdW  Elec       q    Type
REMARK                         _______ _______ _______ _____ _____    ______ ____
ROOT
ATOM      1  C   UNL     1       0.963   9.575  19.411  0.00  0.00    +0.000 A 
ATOM      2  C   UNL     1       1.742   8.999  18.386  0.00  0.00    +0.000 A 
ATOM      3  C   UNL     1       2.395   7.777  18.600  0.00  0.00    +0.000 A 
ATOM      4  C   UNL     1       2.265   7.098  19.826  0.00  0.00    +0.000 A 
ATOM      5  C   UNL     1       1.475   7.683  20.837  0.00  0.00    +0.000 A 
ATOM      6  C   UNL     1       0.850   8.910  20.637  0.00  0.00    +0.000 A 
ENDROOT
BRANCH   1   9
ATOM      7  C   UNL     1       0.489  11.911  20.082  0.00  0.00    +0.000 C 
ATOM      8  O   UNL     1       1.332  11.915  20.967  0.00  0.00    +0.000 OA
ATOM      9  N   UNL     1       0.308  10.827  19.278  0.00  0.00    +0.000 N 
ATOM     10  H   UNL     1      -0.349  10.923  18.485  0.00  0.00    +0.000 HD
BRANCH   7  11
ATOM     11  C   UNL     1      -0.386  13.120  19.853  0.00  0.00    +0.000 C 
ATOM     12  C   UNL     1      -0.009  13.957  18.618  0.00  0.00    +0.000 C 
ATOM     13  C   UNL     1       0.247  14.515  19.990  0.00  0.00    +0.000 C 
BRANCH  11  15
ATOM     14  N   UNL     1      -1.590  12.881  21.948  0.00  0.00    +0.000 NA
ATOM     15  C   UNL     1      -1.629  13.193  20.699  0.00  0.00    +0.000 C 
ATOM     16  N   UNL     1      -2.862  13.560  20.118  0.00  0.00    +0.000 N 
ATOM     17  H   UNL     1      -0.713  12.590  22.409  0.00  0.00    +0.000 HD
ATOM     18  H   UNL     1      -3.721  13.583  20.679  0.00  0.00    +0.000 HD
ATOM     19  H   UNL     1      -2.915  13.791  19.113  0.00  0.00    +0.000 HD
ENDBRANCH  11  15
ENDBRANCH   7  11
ENDBRANCH   1   9
BRANCH   4  20
ATOM     20  C   UNL     1       2.984   5.779  20.027  0.00  0.00    +0.000 C 
BRANCH  20  21
ATOM     21  C   UNL     1       2.147   4.751  20.802  0.00  0.00    +0.000 C 
BRANCH  21  22
ATOM     22  C   UNL     1       1.061   4.111  19.944  0.00  0.00    +0.000 C 
BRANCH  22  23
ATOM     23  C   UNL     1       1.382   2.626  19.762  0.00  0.00    +0.000 C 
BRANCH  23  24
ATOM     24  C   UNL     1       2.772   2.425  19.170  0.00  0.00    +0.000 C 
BRANCH  24  25
ATOM     25  C   UNL     1       2.782   2.853  17.701  0.00  0.00    +0.000 C 
BRANCH  25  26
ATOM     26  C   UNL     1       4.177   3.316  17.290  0.00  0.00    +0.000 C 
BRANCH  26  27
ATOM     27  C   UNL     1       4.164   4.799  16.908  0.00  0.00    +0.000 C 
BRANCH  27  28
ATOM     28  C   UNL     1       5.425   5.479  17.373  0.00  0.00    +0.000 A 
ATOM     29  C   UNL     1       5.746   6.771  16.920  0.00  0.00    +0.000 A 
ATOM     30  C   UNL     1       6.922   7.396  17.355  0.00  0.00    +0.000 A 
ATOM     31  C   UNL     1       7.778   6.742  18.241  0.00  0.00    +0.000 A 
ATOM     32  C   UNL     1       7.463   5.453  18.698  0.00  0.00    +0.000 A 
ATOM     33  C   UNL     1       6.290   4.826  18.269  0.00  0.00    +0.000 A 
ENDBRANCH  27  28
ENDBRANCH  26  27
ENDBRANCH  25  26
ENDBRANCH  24  25
ENDBRANCH  23  24
ENDBRANCH  22  23
ENDBRANCH  21  22
ENDBRANCH  20  21
ENDBRANCH   4  20
TORSDOF 12
ENDMDL
MODEL 6
REMARK VINA RESULT:      -7.2      2.117      4.508
REMARK  Name = 
REMARK  12 active torsions:
REMARK  status: ('A' for Active; 'I' for Inactive)
REMARK    1  A    between atoms: C_2  and  C_4
REMARK    2  A    between atoms: C_4  and  C_5
REMARK    3  A    between atoms: N_7  and  C_8
REMARK    4  A    between atoms: C_11  and  C_12
REMARK    5  A    between atoms: C_12  and  C_13
REMARK    6  A    between atoms: C_13  and  C_14
REMARK    7  A    between atoms: C_14  and  C_15
REMARK    8  A    between atoms: C_15  and  C_16
REMARK    9  A    between atoms: C_16  and  C_17
REMARK   10  A    between atoms: C_17  and  C_18
REMARK   11  A    between atoms: C_18  and  C_19
REMARK   12  A    between atoms: C_19  and  C_20
REMARK                            x       y       z     vdW  Elec       q    Type
REMARK                         _______ _______ _______ _____ _____    ______ ____
ROOT
ATOM      1  C   UNL     1       0.742   9.752  19.954  0.00  0.00    +0.000 A 
ATOM      2  C   UNL     1       1.258   8.533  20.439  0.00  0.00    +0.000 A 
ATOM      3  C   UNL     1       2.059   7.730  19.615  0.00  0.00    +0.000 A 
ATOM      4  C   UNL     1       2.377   8.137  18.306  0.00  0.00    +0.000 A 
ATOM      5  C   UNL     1       1.859   9.364  17.839  0.00  0.00    +0.000 A 
ATOM      6  C   UNL     1       1.040  10.147  18.646  0.00  0.00    +0.000 A 
ENDROOT
BRANCH   1   9
ATOM      7  C   UNL     1       0.285  11.681  21.439  0.00  0.00    +0.000 C 
ATOM      8  O   UNL     1       1.439  12.083  21.409  0.00  0.00    +0.000 OA
ATOM      9  N   UNL     1      -0.108  10.595  20.719  0.00  0.00    +0.000 N 
ATOM     10  H   UNL     1      -1.116  10.367  20.706  0.00  0.00    +0.000 HD
BRANCH   7  11
ATOM     11  C   UNL     1      -0.749  12.386  22.283  0.00  0.00    +0.000 C 
ATOM     12  C   UNL     1      -1.634  11.449  23.124  0.00  0.00    +0.000 C 
ATOM     13  C   UNL     1      -2.235  12.168  21.950  0.00  0.00    +0.000 C 
BRANCH  11  15
ATOM     14  N   UNL     1      -0.640  14.474  23.517  0.00  0.00    +0.000 NA
ATOM     15  C   UNL     1      -0.606  13.881  22.374  0.00  0.00    +0.000 C 
ATOM     16  N   UNL     1      -0.479  14.655  21.200  0.00  0.00    +0.000 N 
ATOM     17  H   UNL     1      -0.749  13.949  24.400  0.00  0.00    +0.000 HD
ATOM     18  H   UNL     1      -0.412  15.678  21.249  0.00  0.00    +0.000 HD
ATOM     19  H   UNL     1      -0.473  14.198  20.275  0.00  0.00    +0.000 HD
ENDBRANCH  11  15
ENDBRANCH   7  11
ENDBRANCH   1   9
BRANCH   4  20
ATOM     20  C   UNL     1       3.245   7.247  17.438  0.00  0.00    +0.000 C 
BRANCH  20  21
ATOM     21  C   UNL     1       4.652   7.036  18.013  0.00  0.00    +0.000 C 
BRANCH  21  22
ATOM     22  C   UNL     1       5.734   7.045  16.939  0.00  0.00    +0.000 C 
BRANCH  22  23
ATOM     23  C   UNL     1       5.287   6.157  15.775  0.00  0.00    +0.000 C 
BRANCH  23  24
ATOM     24  C   UNL     1       6.176   4.926  15.641  0.00  0.00    +0.000 C 
BRANCH  24  25
ATOM     25  C   UNL     1       5.332   3.655  15.758  0.00  0.00    +0.000 C 
BRANCH  25  26
ATOM     26  C   UNL     1       4.680   3.574  17.136  0.00  0.00    +0.000 C 
BRANCH  26  27
ATOM     27  C   UNL     1       3.155   3.526  17.011  0.00  0.00    +0.000 C 
BRANCH  27  28
ATOM     28  C   UNL     1       2.508   3.573  18.370  0.00  0.00    +0.000 A 
ATOM     29  C   UNL     1       1.217   3.049  18.563  0.00  0.00    +0.000 A 
ATOM     30  C   UNL     1       0.621   3.098  19.830  0.00  0.00    +0.000 A 
ATOM     31  C   UNL     1       1.305   3.663  20.906  0.00  0.00    +0.000 A 
ATOM     32  C   UNL     1       2.594   4.187  20.721  0.00  0.00    +0.000 A 
ATOM     33  C   UNL     1       3.194   4.138  19.460  0.00  0.00    +0.000 A 
ENDBRANCH  27  28
ENDBRANCH  26  27
ENDBRANCH  25  26
ENDBRANCH  24  25
ENDBRANCH  23  24
ENDBRANCH  22  23
ENDBRANCH  21  22
ENDBRANCH  20  21
ENDBRANCH   4  20
TORSDOF 12
ENDMDL
MODEL 7
REMARK VINA RESULT:      -7.2      1.363      1.914
REMARK  Name = 
REMARK  12 active torsions:
REMARK  status: ('A' for Active; 'I' for Inactive)
REMARK    1  A    between atoms: C_2  and  C_4
REMARK    2  A    between atoms: C_4  and  C_5
REMARK    3  A    between atoms: N_7  and  C_8
REMARK    4  A    between atoms: C_11  and  C_12
REMARK    5  A    between atoms: C_12  and  C_13
REMARK    6  A    between atoms: C_13  and  C_14
REMARK    7  A    between atoms: C_14  and  C_15
REMARK    8  A    between atoms: C_15  and  C_16
REMARK    9  A    between atoms: C_16  and  C_17
REMARK   10  A    between atoms: C_17  and  C_18
REMARK   11  A    between atoms: C_18  and  C_19
REMARK   12  A    between atoms: C_19  and  C_20
REMARK                            x       y       z     vdW  Elec       q    Type
REMARK                         _______ _______ _______ _____ _____    ______ ____
ROOT
ATOM      1  C   UNL     1       1.077   9.597  19.914  0.00  0.00    +0.000 A 
ATOM      2  C   UNL     1       0.926   8.754  21.035  0.00  0.00    +0.000 A 
ATOM      3  C   UNL     1       1.429   7.446  21.004  0.00  0.00    +0.000 A 
ATOM      4  C   UNL     1       2.108   6.963  19.870  0.00  0.00    +0.000 A 
ATOM      5  C   UNL     1       2.259   7.822  18.761  0.00  0.00    +0.000 A 
ATOM      6  C   UNL     1       1.735   9.111  18.779  0.00  0.00    +0.000 A 
ENDROOT
BRANCH   1   9
ATOM      7  C   UNL     1      -0.677  11.271  19.409  0.00  0.00    +0.000 C 
ATOM      8  O   UNL     1      -1.502  10.430  19.085  0.00  0.00    +0.000 OA
ATOM      9  N   UNL     1       0.559  10.918  19.859  0.00  0.00    +0.000 N 
ATOM     10  H   UNL     1       1.173  11.670  20.213  0.00  0.00    +0.000 HD
BRANCH   7  11
ATOM     11  C   UNL     1      -1.006  12.742  19.320  0.00  0.00    +0.000 C 
ATOM     12  C   UNL     1      -0.426  13.453  18.084  0.00  0.00    +0.000 C 
ATOM     13  C   UNL     1       0.144  13.756  19.441  0.00  0.00    +0.000 C 
BRANCH  11  15
ATOM     14  N   UNL     1      -2.540  12.445  21.178  0.00  0.00    +0.000 NA
ATOM     15  C   UNL     1      -2.041  13.237  20.294  0.00  0.00    +0.000 C 
ATOM     16  N   UNL     1      -2.510  14.566  20.217  0.00  0.00    +0.000 N 
ATOM     17  H   UNL     1      -2.240  11.460  21.258  0.00  0.00    +0.000 HD
ATOM     18  H   UNL     1      -3.237  14.905  20.856  0.00  0.00    +0.000 HD
ATOM     19  H   UNL     1      -2.137  15.208  19.499  0.00  0.00    +0.000 HD
ENDBRANCH  11  15
ENDBRANCH   7  11
ENDBRANCH   1   9
BRANCH   4  20
ATOM     20  C   UNL     1       2.640   5.543  19.868  0.00  0.00    +0.000 C 
BRANCH  20  21
ATOM     21  C   UNL     1       2.355   4.793  21.176  0.00  0.00    +0.000 C 
BRANCH  21  22
ATOM     22  C   UNL     1       1.455   3.579  20.973  0.00  0.00    +0.000 C 
BRANCH  22  23
ATOM     23  C   UNL     1       1.267   3.345  19.472  0.00  0.00    +0.000 C 
BRANCH  23  24
ATOM     24  C   UNL     1       1.929   2.047  19.024  0.00  0.00    +0.000 C 
BRANCH  24  25
ATOM     25  C   UNL     1       2.236   2.106  17.526  0.00  0.00    +0.000 C 
BRANCH  25  26
ATOM     26  C   UNL     1       2.997   3.385  17.188  0.00  0.00    +0.000 C 
BRANCH  26  27
ATOM     27  C   UNL     1       4.496   3.207  17.449  0.00  0.00    +0.000 C 
BRANCH  27  28
ATOM     28  C   UNL     1       5.202   4.537  17.424  0.00  0.00    +0.000 A 
ATOM     29  C   UNL     1       4.652   5.622  16.719  0.00  0.00    +0.000 A 
ATOM     30  C   UNL     1       5.315   6.856  16.698  0.00  0.00    +0.000 A 
ATOM     31  C   UNL     1       6.523   7.014  17.379  0.00  0.00    +0.000 A 
ATOM     32  C   UNL     1       7.077   5.936  18.085  0.00  0.00    +0.000 A 
ATOM     33  C   UNL     1       6.418   4.704  18.111  0.00  0.00    +0.000 A 
ENDBRANCH  27  28
ENDBRANCH  26  27
ENDBRANCH  25  26
ENDBRANCH  24  25
ENDBRANCH  23  24
ENDBRANCH  22  23
ENDBRANCH  21  22
ENDBRANCH  20  21
ENDBRANCH   4  20
TORSDOF 12
ENDMDL
MODEL 8
REMARK VINA RESULT:      -7.2      1.748      4.292
REMARK  Name = 
REMARK  12 active torsions:
REMARK  status: ('A' for Active; 'I' for Inactive)
REMARK    1  A    between atoms: C_2  and  C_4
REMARK    2  A    between atoms: C_4  and  C_5
REMARK    3  A    between atoms: N_7  and  C_8
REMARK    4  A    between atoms: C_11  and  C_12
REMARK    5  A    between atoms: C_12  and  C_13
REMARK    6  A    between atoms: C_13  and  C_14
REMARK    7  A    between atoms: C_14  and  C_15
REMARK    8  A    between atoms: C_15  and  C_16
REMARK    9  A    between atoms: C_16  and  C_17
REMARK   10  A    between atoms: C_17  and  C_18
REMARK   11  A    between atoms: C_18  and  C_19
REMARK   12  A    between atoms: C_19  and  C_20
REMARK                            x       y       z     vdW  Elec       q    Type
REMARK                         _______ _______ _______ _____ _____    ______ ____
ROOT
ATOM      1  C   UNL     1       0.669   9.694  19.744  0.00  0.00    +0.000 A 
ATOM      2  C   UNL     1       1.060   9.700  18.388  0.00  0.00    +0.000 A 
ATOM      3  C   UNL     1       1.891   8.687  17.891  0.00  0.00    +0.000 A 
ATOM      4  C   UNL     1       2.328   7.641  18.725  0.00  0.00    +0.000 A 
ATOM      5  C   UNL     1       1.920   7.645  20.075  0.00  0.00    +0.000 A 
ATOM      6  C   UNL     1       1.119   8.665  20.578  0.00  0.00    +0.000 A 
ENDROOT
BRANCH   1   9
ATOM      7  C   UNL     1       0.308  11.901  20.806  0.00  0.00    +0.000 C 
ATOM      8  O   UNL     1       1.476  12.241  20.690  0.00  0.00    +0.000 OA
ATOM      9  N   UNL     1      -0.137  10.708  20.324  0.00  0.00    +0.000 N 
ATOM     10  H   UNL     1      -1.153  10.524  20.364  0.00  0.00    +0.000 HD
BRANCH   7  11
ATOM     11  C   UNL     1      -0.687  12.805  21.495  0.00  0.00    +0.000 C 
ATOM     12  C   UNL     1      -1.124  12.328  22.891  0.00  0.00    +0.000 C 
ATOM     13  C   UNL     1      -2.104  12.266  21.754  0.00  0.00    +0.000 C 
BRANCH  11  15
ATOM     14  N   UNL     1      -1.961  14.349  20.120  0.00  0.00    +0.000 NA
ATOM     15  C   UNL     1      -0.913  14.141  20.840  0.00  0.00    +0.000 C 
ATOM     16  N   UNL     1       0.046  15.168  20.973  0.00  0.00    +0.000 N 
ATOM     17  H   UNL     1      -2.679  13.620  19.982  0.00  0.00    +0.000 HD
ATOM     18  H   UNL     1      -0.083  16.072  20.506  0.00  0.00    +0.000 HD
ATOM     19  H   UNL     1       0.902  15.010  21.528  0.00  0.00    +0.000 HD
ENDBRANCH  11  15
ENDBRANCH   7  11
ENDBRANCH   1   9
BRANCH   4  20
ATOM     20  C   UNL     1       3.227   6.560  18.157  0.00  0.00    +0.000 C 
BRANCH  20  21
ATOM     21  C   UNL     1       4.346   7.117  17.266  0.00  0.00    +0.000 C 
BRANCH  21  22
ATOM     22  C   UNL     1       5.701   6.483  17.561  0.00  0.00    +0.000 C 
BRANCH  22  23
ATOM     23  C   UNL     1       6.348   6.058  16.240  0.00  0.00    +0.000 C 
BRANCH  23  24
ATOM     24  C   UNL     1       5.541   4.962  15.552  0.00  0.00    +0.000 C 
BRANCH  24  25
ATOM     25  C   UNL     1       5.385   3.761  16.488  0.00  0.00    +0.000 C 
BRANCH  25  26
ATOM     26  C   UNL     1       3.917   3.358  16.598  0.00  0.00    +0.000 C 
BRANCH  26  27
ATOM     27  C   UNL     1       3.718   2.346  17.730  0.00  0.00    +0.000 C 
BRANCH  27  28
ATOM     28  C   UNL     1       2.822   2.914  18.799  0.00  0.00    +0.000 A 
ATOM     29  C   UNL     1       1.424   2.816  18.682  0.00  0.00    +0.000 A 
ATOM     30  C   UNL     1       0.596   3.349  19.679  0.00  0.00    +0.000 A 
ATOM     31  C   UNL     1       1.155   3.975  20.794  0.00  0.00    +0.000 A 
ATOM     32  C   UNL     1       2.549   4.074  20.918  0.00  0.00    +0.000 A 
ATOM     33  C   UNL     1       3.379   3.542  19.927  0.00  0.00    +0.000 A 
ENDBRANCH  27  28
ENDBRANCH  26  27
ENDBRANCH  25  26
ENDBRANCH  24  25
ENDBRANCH  23  24
ENDBRANCH  22  23
ENDBRANCH  21  22
ENDBRANCH  20  21
ENDBRANCH   4  20
TORSDOF 12
ENDMDL
MODEL 9
REMARK VINA RESULT:      -7.1      1.425      2.076
REMARK  Name = 
REMARK  12 active torsions:
REMARK  status: ('A' for Active; 'I' for Inactive)
REMARK    1  A    between atoms: C_2  and  C_4
REMARK    2  A    between atoms: C_4  and  C_5
REMARK    3  A    between atoms: N_7  and  C_8
REMARK    4  A    between atoms: C_11  and  C_12
REMARK    5  A    between atoms: C_12  and  C_13
REMARK    6  A    between atoms: C_13  and  C_14
REMARK    7  A    between atoms: C_14  and  C_15
REMARK    8  A    between atoms: C_15  and  C_16
REMARK    9  A    between atoms: C_16  and  C_17
REMARK   10  A    between atoms: C_17  and  C_18
REMARK   11  A    between atoms: C_18  and  C_19
REMARK   12  A    between atoms: C_19  and  C_20
REMARK                            x       y       z     vdW  Elec       q    Type
REMARK                         _______ _______ _______ _____ _____    ______ ____
ROOT
ATOM      1  C   UNL     1       1.023   9.263  20.036  0.00  0.00    +0.000 A 
ATOM      2  C   UNL     1       1.739   8.816  18.906  0.00  0.00    +0.000 A 
ATOM      3  C   UNL     1       2.341   7.550  18.909  0.00  0.00    +0.000 A 
ATOM      4  C   UNL     1       2.222   6.701  20.025  0.00  0.00    +0.000 A 
ATOM      5  C   UNL     1       1.495   7.159  21.144  0.00  0.00    +0.000 A 
ATOM      6  C   UNL     1       0.921   8.427  21.153  0.00  0.00    +0.000 A 
ENDROOT
BRANCH   1   9
ATOM      7  C   UNL     1      -0.799  10.889  19.622  0.00  0.00    +0.000 C 
ATOM      8  O   UNL     1      -1.541  10.057  19.123  0.00  0.00    +0.000 OA
ATOM      9  N   UNL     1       0.423  10.547  20.118  0.00  0.00    +0.000 N 
ATOM     10  H   UNL     1       0.959  11.276  20.617  0.00  0.00    +0.000 HD
BRANCH   7  11
ATOM     11  C   UNL     1      -1.218  12.337  19.704  0.00  0.00    +0.000 C 
ATOM     12  C   UNL     1      -1.632  12.805  21.111  0.00  0.00    +0.000 C 
ATOM     13  C   UNL     1      -2.683  12.654  20.048  0.00  0.00    +0.000 C 
BRANCH  11  15
ATOM     14  N   UNL     1      -1.052  12.654  17.302  0.00  0.00    +0.000 NA
ATOM     15  C   UNL     1      -0.939  13.166  18.479  0.00  0.00    +0.000 C 
ATOM     16  N   UNL     1      -0.503  14.502  18.610  0.00  0.00    +0.000 N 
ATOM     17  H   UNL     1      -1.350  11.675  17.161  0.00  0.00    +0.000 HD
ATOM     18  H   UNL     1      -0.280  15.066  17.782  0.00  0.00    +0.000 HD
ATOM     19  H   UNL     1      -0.386  14.921  19.546  0.00  0.00    +0.000 HD
ENDBRANCH  11  15
ENDBRANCH   7  11
ENDBRANCH   1   9
BRANCH   4  20
ATOM     20  C   UNL     1       2.885   5.338  19.999  0.00  0.00    +0.000 C 
BRANCH  20  21
ATOM     21  C   UNL     1       2.149   4.295  20.851  0.00  0.00    +0.000 C 
BRANCH  21  22
ATOM     22  C   UNL     1       0.798   3.903  20.263  0.00  0.00    +0.000 C 
BRANCH  22  23
ATOM     23  C   UNL     1       1.029   3.056  19.009  0.00  0.00    +0.000 C 
BRANCH  23  24
ATOM     24  C   UNL     1       2.132   2.027  19.228  0.00  0.00    +0.000 C 
BRANCH  24  25
ATOM     25  C   UNL     1       2.982   1.894  17.963  0.00  0.00    +0.000 C 
BRANCH  25  26
ATOM     26  C   UNL     1       3.087   3.238  17.248  0.00  0.00    +0.000 C 
BRANCH  26  27
ATOM     27  C   UNL     1       4.263   3.238  16.267  0.00  0.00    +0.000 C 
BRANCH  27  28
ATOM     28  C   UNL     1       5.189   4.392  16.547  0.00  0.00    +0.000 A 
ATOM     29  C   UNL     1       6.503   4.388  16.046  0.00  0.00    +0.000 A 
ATOM     30  C   UNL     1       7.360   5.464  16.313  0.00  0.00    +0.000 A 
ATOM     31  C   UNL     1       6.913   6.545  17.073  0.00  0.00    +0.000 A 
ATOM     32  C   UNL     1       5.603   6.556  17.575  0.00  0.00    +0.000 A 
ATOM     33  C   UNL     1       4.743   5.486  17.310  0.00  0.00    +0.000 A 
ENDBRANCH  27  28
ENDBRANCH  26  27
ENDBRANCH  25  26
ENDBRANCH  24  25
ENDBRANCH  23  24
ENDBRANCH  22  23
ENDBRANCH  21  22
ENDBRANCH  20  21
ENDBRANCH   4  20
TORSDOF 12
ENDMDL
