MODEL 1
REMARK VINA RESULT:      -8.3      0.000      0.000
REMARK  Name = 
REMARK  9 active torsions:
REMARK  status: ('A' for Active; 'I' for Inactive)
REMARK    1  A    between atoms: C_1  and  N_2
REMARK    2  A    between atoms: N_2  and  C_3
REMARK    3  A    between atoms: N_2  and  C_4
REMARK    4  A    between atoms: C_4  and  C_5
REMARK    5  A    between atoms: C_5  and  O_6
REMARK    6  A    between atoms: O_6  and  C_7
REMARK    7  A    between atoms: C_12  and  C_13
REMARK    8  A    between atoms: C_14  and  C_15
REMARK    9  A    between atoms: C_14  and  C_17
REMARK                            x       y       z     vdW  Elec       q    Type
REMARK                         _______ _______ _______ _____ _____    ______ ____
ROOT
ATOM      1  C   UNL     1       3.888   3.963  16.600  0.00  0.00    +0.000 C 
ATOM      2  C   UNL     1       5.159   4.369  16.851  0.00  0.00    +0.000 C 
ENDROOT
BRANCH   2   3
ATOM      3  C   UNL     1       5.999   4.838  15.769  0.00  0.00    +0.000 A 
ATOM      4  N   UNL     1       7.024   5.681  16.010  0.00  0.00    +0.000 NA
ATOM      5  O   UNL     1       7.791   5.705  14.876  0.00  0.00    +0.000 OA
ATOM      6  C   UNL     1       7.217   4.932  13.927  0.00  0.00    +0.000 A 
ATOM      7  C   UNL     1       7.777   4.649  12.686  0.00  0.00    +0.000 A 
ATOM      8  C   UNL     1       7.012   3.857  11.831  0.00  0.00    +0.000 A 
ATOM      9  C   UNL     1       5.738   3.421  12.202  0.00  0.00    +0.000 A 
ATOM     10  C   UNL     1       5.217   3.700  13.480  0.00  0.00    +0.000 A 
ATOM     11  C   UNL     1       6.004   4.444  14.386  0.00  0.00    +0.000 A 
ENDBRANCH   2   3
BRANCH   1  17
ATOM     12  C   UNL     1       2.047   4.492  18.232  0.00  0.00    +0.000 A 
ATOM     13  C   UNL     1       1.369   4.099  19.391  0.00  0.00    +0.000 A 
ATOM     14  C   UNL     1       1.493   2.792  19.884  0.00  0.00    +0.000 A 
ATOM     15  C   UNL     1       2.268   1.855  19.207  0.00  0.00    +0.000 A 
ATOM     16  C   UNL     1       2.976   2.245  18.074  0.00  0.00    +0.000 A 
ATOM     17  C   UNL     1       2.919   3.575  17.620  0.00  0.00    +0.000 A 
BRANCH  12  18
ATOM     18  O   UNL     1       1.996   5.826  17.905  0.00  0.00    +0.000 OA
BRANCH  18  19
ATOM     19  C   UNL     1       2.749   6.727  18.756  0.00  0.00    +0.000 C 
BRANCH  19  20
ATOM     20  C   UNL     1       2.682   8.137  18.101  0.00  0.00    +0.000 C 
BRANCH  20  22
ATOM     21  C   UNL     1       1.189   9.023  19.835  0.00  0.00    +0.000 C 
ATOM     22  N   UNL     1       1.625   9.106  18.448  0.00  0.00    +0.000 NA
ATOM     23  C   UNL     1       1.909  10.481  18.057  0.00  0.00    +0.000 C 
ENDBRANCH  20  22
ENDBRANCH  19  20
ENDBRANCH  18  19
ENDBRANCH  12  18
ENDBRANCH   1  17
BRANCH   2  24
ATOM     24  C   UNL     1       5.661   4.430  18.191  0.00  0.00    +0.000 C 
ATOM     25  N   UNL     1       6.046   4.466  19.288  0.00  0.00    +0.000 NA
ENDBRANCH   2  24
TORSDOF 7
ENDMDL
MODEL 2
REMARK VINA RESULT:      -8.0      0.924      1.192
REMARK  Name = 
REMARK  9 active torsions:
REMARK  status: ('A' for Active; 'I' for Inactive)
REMARK    1  A    between atoms: C_1  and  N_2
REMARK    2  A    between atoms: N_2  and  C_3
REMARK    3  A    between atoms: N_2  and  C_4
REMARK    4  A    between atoms: C_4  and  C_5
REMARK    5  A    between atoms: C_5  and  O_6
REMARK    6  A    between atoms: O_6  and  C_7
REMARK    7  A    between atoms: C_12  and  C_13
REMARK    8  A    between atoms: C_14  and  C_15
REMARK    9  A    between atoms: C_14  and  C_17
REMARK                            x       y       z     vdW  Elec       q    Type
REMARK                         _______ _______ _______ _____ _____    ______ ____
ROOT
ATOM      1  C   UNL     1       3.565   4.291  16.779  0.00  0.00    +0.000 C 
ATOM      2  C   UNL     1       4.893   4.449  17.017  0.00  0.00    +0.000 C 
ENDROOT
BRANCH   2   3
ATOM      3  C   UNL     1       5.770   4.913  15.962  0.00  0.00    +0.000 A 
ATOM      4  N   UNL     1       6.778   5.766  16.232  0.00  0.00    +0.000 NA
ATOM      5  O   UNL     1       7.588   5.784  15.128  0.00  0.00    +0.000 OA
ATOM      6  C   UNL     1       7.056   4.997  14.167  0.00  0.00    +0.000 A 
ATOM      7  C   UNL     1       7.664   4.704  12.951  0.00  0.00    +0.000 A 
ATOM      8  C   UNL     1       6.939   3.897  12.076  0.00  0.00    +0.000 A 
ATOM      9  C   UNL     1       5.655   3.456  12.404  0.00  0.00    +0.000 A 
ATOM     10  C   UNL     1       5.083   3.745  13.658  0.00  0.00    +0.000 A 
ATOM     11  C   UNL     1       5.829   4.504  14.585  0.00  0.00    +0.000 A 
ENDBRANCH   2   3
BRANCH   1  17
ATOM     12  C   UNL     1       2.030   4.870  18.687  0.00  0.00    +0.000 A 
ATOM     13  C   UNL     1       1.322   4.398  19.796  0.00  0.00    +0.000 A 
ATOM     14  C   UNL     1       1.086   3.025  19.964  0.00  0.00    +0.000 A 
ATOM     15  C   UNL     1       1.528   2.114  19.009  0.00  0.00    +0.000 A 
ATOM     16  C   UNL     1       2.266   2.569  17.920  0.00  0.00    +0.000 A 
ATOM     17  C   UNL     1       2.573   3.936  17.788  0.00  0.00    +0.000 A 
BRANCH  12  18
ATOM     18  O   UNL     1       2.350   6.207  18.678  0.00  0.00    +0.000 OA
BRANCH  18  19
ATOM     19  C   UNL     1       2.233   6.906  19.943  0.00  0.00    +0.000 C 
BRANCH  19  20
ATOM     20  C   UNL     1       1.744   8.348  19.624  0.00  0.00    +0.000 C 
BRANCH  20  22
ATOM     21  C   UNL     1       0.733  10.519  20.160  0.00  0.00    +0.000 C 
ATOM     22  N   UNL     1       1.119   9.203  20.651  0.00  0.00    +0.000 NA
ATOM     23  C   UNL     1       0.037   8.569  21.393  0.00  0.00    +0.000 C 
ENDBRANCH  20  22
ENDBRANCH  19  20
ENDBRANCH  18  19
ENDBRANCH  12  18
ENDBRANCH   1  17
BRANCH   2  24
ATOM     24  C   UNL     1       5.434   4.253  18.328  0.00  0.00    +0.000 C 
ATOM     25  N   UNL     1       5.848   4.100  19.404  0.00  0.00    +0.000 NA
ENDBRANCH   2  24
TORSDOF 7
ENDMDL
MODEL 3
REMARK VINA RESULT:      -7.8      0.901      1.017
REMARK  Name = 
REMARK  9 active torsions:
REMARK  status: ('A' for Active; 'I' for Inactive)
REMARK    1  A    between atoms: C_1  and  N_2
REMARK    2  A    between atoms: N_2  and  C_3
REMARK    3  A    between atoms: N_2  and  C_4
REMARK    4  A    between atoms: C_4  and  C_5
REMARK    5  A    between atoms: C_5  and  O_6
REMARK    6  A    between atoms: O_6  and  C_7
REMARK    7  A    between atoms: C_12  and  C_13
REMARK    8  A    between atoms: C_14  and  C_15
REMARK    9  A    between atoms: C_14  and  C_17
REMARK                            x       y       z     vdW  Elec       q    Type
REMARK                         _______ _______ _______ _____ _____    ______ ____
ROOT
ATOM      1  C   UNL     1       3.868   4.704  16.975  0.00  0.00    +0.000 C 
ATOM      2  C   UNL     1       5.217   4.816  17.088  0.00  0.00    +0.000 C 
ENDROOT
BRANCH   2   3
ATOM      3  C   UNL     1       6.023   5.101  15.921  0.00  0.00    +0.000 A 
ATOM      4  N   UNL     1       7.141   5.848  16.023  0.00  0.00    +0.000 NA
ATOM      5  O   UNL     1       7.828   5.696  14.847  0.00  0.00    +0.000 OA
ATOM      6  C   UNL     1       7.116   4.912  14.008  0.00  0.00    +0.000 A 
ATOM      7  C   UNL     1       7.557   4.468  12.767  0.00  0.00    +0.000 A 
ATOM      8  C   UNL     1       6.661   3.693  12.033  0.00  0.00    +0.000 A 
ATOM      9  C   UNL     1       5.378   3.427  12.518  0.00  0.00    +0.000 A 
ATOM     10  C   UNL     1       4.976   3.866  13.794  0.00  0.00    +0.000 A 
ATOM     11  C   UNL     1       5.893   4.595  14.581  0.00  0.00    +0.000 A 
ENDBRANCH   2   3
BRANCH   1  17
ATOM     12  C   UNL     1       2.586   5.575  18.957  0.00  0.00    +0.000 A 
ATOM     13  C   UNL     1       1.945   5.260  20.159  0.00  0.00    +0.000 A 
ATOM     14  C   UNL     1       1.597   3.935  20.459  0.00  0.00    +0.000 A 
ATOM     15  C   UNL     1       1.855   2.916  19.546  0.00  0.00    +0.000 A 
ATOM     16  C   UNL     1       2.525   3.213  18.363  0.00  0.00    +0.000 A 
ATOM     17  C   UNL     1       2.948   4.527  18.093  0.00  0.00    +0.000 A 
BRANCH  12  18
ATOM     18  O   UNL     1       3.030   6.868  18.810  0.00  0.00    +0.000 OA
BRANCH  18  19
ATOM     19  C   UNL     1       2.203   7.746  18.006  0.00  0.00    +0.000 C 
BRANCH  19  20
ATOM     20  C   UNL     1       1.692   8.878  18.945  0.00  0.00    +0.000 C 
BRANCH  20  22
ATOM     21  C   UNL     1      -0.361  10.220  18.955  0.00  0.00    +0.000 C 
ATOM     22  N   UNL     1       0.985  10.062  18.422  0.00  0.00    +0.000 NA
ATOM     23  C   UNL     1       1.741  11.305  18.499  0.00  0.00    +0.000 C 
ENDBRANCH  20  22
ENDBRANCH  19  20
ENDBRANCH  18  19
ENDBRANCH  12  18
ENDBRANCH   1  17
BRANCH   2  24
ATOM     24  C   UNL     1       5.855   4.748  18.368  0.00  0.00    +0.000 C 
ATOM     25  N   UNL     1       6.377   4.720  19.407  0.00  0.00    +0.000 NA
ENDBRANCH   2  24
TORSDOF 7
ENDMDL
MODEL 4
REMARK VINA RESULT:      -7.6      1.376      1.589
REMARK  Name = 
REMARK  9 active torsions:
REMARK  status: ('A' for Active; 'I' for Inactive)
REMARK    1  A    between atoms: C_1  and  N_2
REMARK    2  A    between atoms: N_2  and  C_3
REMARK    3  A    between atoms: N_2  and  C_4
REMARK    4  A    between atoms: C_4  and  C_5
REMARK    5  A    between atoms: C_5  and  O_6
REMARK    6  A    between atoms: O_6  and  C_7
REMARK    7  A    between atoms: C_12  and  C_13
REMARK    8  A    between atoms: C_14  and  C_15
REMARK    9  A    between atoms: C_14  and  C_17
REMARK                            x       y       z     vdW  Elec       q    Type
REMARK                         _______ _______ _______ _____ _____    ______ ____
ROOT
ATOM      1  C   UNL     1       3.287   4.845  17.337  0.00  0.00    +0.000 C 
ATOM      2  C   UNL     1       4.621   4.635  17.475  0.00  0.00    +0.000 C 
ENDROOT
BRANCH   2   3
ATOM      3  C   UNL     1       5.544   5.151  16.487  0.00  0.00    +0.000 A 
ATOM      4  N   UNL     1       6.477   6.064  16.827  0.00  0.00    +0.000 NA
ATOM      5  O   UNL     1       7.364   6.131  15.786  0.00  0.00    +0.000 OA
ATOM      6  C   UNL     1       6.953   5.314  14.791  0.00  0.00    +0.000 A 
ATOM      7  C   UNL     1       7.666   5.060  13.624  0.00  0.00    +0.000 A 
ATOM      8  C   UNL     1       7.057   4.211  12.701  0.00  0.00    +0.000 A 
ATOM      9  C   UNL     1       5.781   3.693  12.935  0.00  0.00    +0.000 A 
ATOM     10  C   UNL     1       5.102   3.945  14.142  0.00  0.00    +0.000 A 
ATOM     11  C   UNL     1       5.730   4.748  15.119  0.00  0.00    +0.000 A 
ENDBRANCH   2   3
BRANCH   1  17
ATOM     12  C   UNL     1       2.052   5.195  19.502  0.00  0.00    +0.000 A 
ATOM     13  C   UNL     1       1.285   4.608  20.513  0.00  0.00    +0.000 A 
ATOM     14  C   UNL     1       0.683   3.356  20.319  0.00  0.00    +0.000 A 
ATOM     15  C   UNL     1       0.814   2.693  19.102  0.00  0.00    +0.000 A 
ATOM     16  C   UNL     1       1.606   3.250  18.103  0.00  0.00    +0.000 A 
ATOM     17  C   UNL     1       2.276   4.468  18.320  0.00  0.00    +0.000 A 
BRANCH  12  18
ATOM     18  O   UNL     1       2.732   6.345  19.826  0.00  0.00    +0.000 OA
BRANCH  18  19
ATOM     19  C   UNL     1       2.061   7.596  19.527  0.00  0.00    +0.000 C 
BRANCH  19  20
ATOM     20  C   UNL     1       1.540   8.168  20.877  0.00  0.00    +0.000 C 
BRANCH  20  22
ATOM     21  C   UNL     1      -0.140   9.216  22.326  0.00  0.00    +0.000 C 
ATOM     22  N   UNL     1       0.291   8.947  20.961  0.00  0.00    +0.000 NA
ATOM     23  C   UNL     1       0.271  10.154  20.146  0.00  0.00    +0.000 C 
ENDBRANCH  20  22
ENDBRANCH  19  20
ENDBRANCH  18  19
ENDBRANCH  12  18
ENDBRANCH   1  17
BRANCH   2  24
ATOM     24  C   UNL     1       5.147   3.984  18.637  0.00  0.00    +0.000 C 
ATOM     25  N   UNL     1       5.577   3.433  19.566  0.00  0.00    +0.000 NA
ENDBRANCH   2  24
TORSDOF 7
ENDMDL
MODEL 5
REMARK VINA RESULT:      -7.3      1.106      1.289
REMARK  Name = 
REMARK  9 active torsions:
REMARK  status: ('A' for Active; 'I' for Inactive)
REMARK    1  A    between atoms: C_1  and  N_2
REMARK    2  A    between atoms: N_2  and  C_3
REMARK    3  A    between atoms: N_2  and  C_4
REMARK    4  A    between atoms: C_4  and  C_5
REMARK    5  A    between atoms: C_5  and  O_6
REMARK    6  A    between atoms: O_6  and  C_7
REMARK    7  A    between atoms: C_12  and  C_13
REMARK    8  A    between atoms: C_14  and  C_15
REMARK    9  A    between atoms: C_14  and  C_17
REMARK                            x       y       z     vdW  Elec       q    Type
REMARK                         _______ _______ _______ _____ _____    ______ ____
ROOT
ATOM      1  C   UNL     1       3.256   4.775  17.289  0.00  0.00    +0.000 C 
ATOM      2  C   UNL     1       4.592   4.582  17.441  0.00  0.00    +0.000 C 
ENDROOT
BRANCH   2   3
ATOM      3  C   UNL     1       5.518   5.097  16.455  0.00  0.00    +0.000 A 
ATOM      4  N   UNL     1       6.454   6.004  16.797  0.00  0.00    +0.000 NA
ATOM      5  O   UNL     1       7.342   6.070  15.756  0.00  0.00    +0.000 OA
ATOM      6  C   UNL     1       6.927   5.257  14.760  0.00  0.00    +0.000 A 
ATOM      7  C   UNL     1       7.640   5.002  13.593  0.00  0.00    +0.000 A 
ATOM      8  C   UNL     1       7.027   4.158  12.668  0.00  0.00    +0.000 A 
ATOM      9  C   UNL     1       5.749   3.645  12.900  0.00  0.00    +0.000 A 
ATOM     10  C   UNL     1       5.070   3.898  14.107  0.00  0.00    +0.000 A 
ATOM     11  C   UNL     1       5.702   4.696  15.086  0.00  0.00    +0.000 A 
ENDBRANCH   2   3
BRANCH   1  17
ATOM     12  C   UNL     1       1.889   5.217  19.354  0.00  0.00    +0.000 A 
ATOM     13  C   UNL     1       1.135   4.661  20.393  0.00  0.00    +0.000 A 
ATOM     14  C   UNL     1       0.671   3.340  20.314  0.00  0.00    +0.000 A 
ATOM     15  C   UNL     1       0.927   2.572  19.181  0.00  0.00    +0.000 A 
ATOM     16  C   UNL     1       1.707   3.102  18.158  0.00  0.00    +0.000 A 
ATOM     17  C   UNL     1       2.241   4.399  18.268  0.00  0.00    +0.000 A 
BRANCH  12  18
ATOM     18  O   UNL     1       2.434   6.459  19.578  0.00  0.00    +0.000 OA
BRANCH  18  19
ATOM     19  C   UNL     1       1.826   7.249  20.632  0.00  0.00    +0.000 C 
BRANCH  19  20
ATOM     20  C   UNL     1       1.604   8.679  20.059  0.00  0.00    +0.000 C 
BRANCH  20  22
ATOM     21  C   UNL     1       0.195   9.929  18.488  0.00  0.00    +0.000 C 
ATOM     22  N   UNL     1       1.214   8.903  18.655  0.00  0.00    +0.000 NA
ATOM     23  C   UNL     1       2.329   9.102  17.739  0.00  0.00    +0.000 C 
ENDBRANCH  20  22
ENDBRANCH  19  20
ENDBRANCH  18  19
ENDBRANCH  12  18
ENDBRANCH   1  17
BRANCH   2  24
ATOM     24  C   UNL     1       5.115   3.953  18.617  0.00  0.00    +0.000 C 
ATOM     25  N   UNL     1       5.539   3.418  19.558  0.00  0.00    +0.000 NA
ENDBRANCH   2  24
TORSDOF 7
ENDMDL
MODEL 6
REMARK VINA RESULT:      -7.1      2.434      7.266
REMARK  Name = 
REMARK  9 active torsions:
REMARK  status: ('A' for Active; 'I' for Inactive)
REMARK    1  A    between atoms: C_1  and  N_2
REMARK    2  A    between atoms: N_2  and  C_3
REMARK    3  A    between atoms: N_2  and  C_4
REMARK    4  A    between atoms: C_4  and  C_5
REMARK    5  A    between atoms: C_5  and  O_6
REMARK    6  A    between atoms: O_6  and  C_7
REMARK    7  A    between atoms: C_12  and  C_13
REMARK    8  A    between atoms: C_14  and  C_15
REMARK    9  A    between atoms: C_14  and  C_17
REMARK                            x       y       z     vdW  Elec       q    Type
REMARK                         _______ _______ _______ _____ _____    ______ ____
ROOT
ATOM      1  C   UNL     1       4.358   7.230  17.364  0.00  0.00    +0.000 C 
ATOM      2  C   UNL     1       3.089   7.110  17.832  0.00  0.00    +0.000 C 
ENDROOT
BRANCH   2   3
ATOM      3  C   UNL     1       2.359   8.283  18.264  0.00  0.00    +0.000 A 
ATOM      4  N   UNL     1       2.139   9.307  17.415  0.00  0.00    +0.000 NA
ATOM      5  O   UNL     1       1.196  10.110  18.000  0.00  0.00    +0.000 OA
ATOM      6  C   UNL     1       0.881   9.619  19.219  0.00  0.00    +0.000 A 
ATOM      7  C   UNL     1      -0.114  10.127  20.048  0.00  0.00    +0.000 A 
ATOM      8  C   UNL     1      -0.265   9.502  21.285  0.00  0.00    +0.000 A 
ATOM      9  C   UNL     1       0.577   8.456  21.668  0.00  0.00    +0.000 A 
ATOM     10  C   UNL     1       1.552   7.946  20.790  0.00  0.00    +0.000 A 
ATOM     11  C   UNL     1       1.676   8.521  19.506  0.00  0.00    +0.000 A 
ENDBRANCH   2   3
BRANCH   1  17
ATOM     12  C   UNL     1       5.976   5.316  17.585  0.00  0.00    +0.000 A 
ATOM     13  C   UNL     1       6.911   4.500  16.939  0.00  0.00    +0.000 A 
ATOM     14  C   UNL     1       6.965   4.443  15.539  0.00  0.00    +0.000 A 
ATOM     15  C   UNL     1       6.063   5.174  14.770  0.00  0.00    +0.000 A 
ATOM     16  C   UNL     1       5.154   6.017  15.401  0.00  0.00    +0.000 A 
ATOM     17  C   UNL     1       5.148   6.139  16.802  0.00  0.00    +0.000 A 
BRANCH  12  18
ATOM     18  O   UNL     1       6.092   5.433  18.950  0.00  0.00    +0.000 OA
BRANCH  18  19
ATOM     19  C   UNL     1       5.108   4.721  19.743  0.00  0.00    +0.000 C 
BRANCH  19  20
ATOM     20  C   UNL     1       4.892   3.336  19.067  0.00  0.00    +0.000 C 
BRANCH  20  22
ATOM     21  C   UNL     1       3.034   2.891  20.606  0.00  0.00    +0.000 C 
ATOM     22  N   UNL     1       3.947   2.344  19.612  0.00  0.00    +0.000 NA
ATOM     23  C   UNL     1       3.239   1.562  18.607  0.00  0.00    +0.000 C 
ENDBRANCH  20  22
ENDBRANCH  19  20
ENDBRANCH  18  19
ENDBRANCH  12  18
ENDBRANCH   1  17
BRANCH   2  24
ATOM     24  C   UNL     1       2.417   5.845  17.820  0.00  0.00    +0.000 C 
ATOM     25  N   UNL     1       1.895   4.806  17.799  0.00  0.00    +0.000 NA
ENDBRANCH   2  24
TORSDOF 7
ENDMDL
MODEL 7
REMARK VINA RESULT:      -7.1      0.850      1.180
REMARK  Name = 
REMARK  9 active torsions:
REMARK  status: ('A' for Active; 'I' for Inactive)
REMARK    1  A    between atoms: C_1  and  N_2
REMARK    2  A    between atoms: N_2  and  C_3
REMARK    3  A    between atoms: N_2  and  C_4
REMARK    4  A    between atoms: C_4  and  C_5
REMARK    5  A    between atoms: C_5  and  O_6
REMARK    6  A    between atoms: O_6  and  C_7
REMARK    7  A    between atoms: C_12  and  C_13
REMARK    8  A    between atoms: C_14  and  C_15
REMARK    9  A    between atoms: C_14  and  C_17
REMARK                            x       y       z     vdW  Elec       q    Type
REMARK                         _______ _______ _______ _____ _____    ______ ____
ROOT
ATOM      1  C   UNL     1       4.099   3.537  16.614  0.00  0.00    +0.000 C 
ATOM      2  C   UNL     1       5.282   4.148  16.880  0.00  0.00    +0.000 C 
ENDROOT
BRANCH   2   3
ATOM      3  C   UNL     1       6.067   4.712  15.803  0.00  0.00    +0.000 A 
ATOM      4  N   UNL     1       7.047   5.601  16.059  0.00  0.00    +0.000 NA
ATOM      5  O   UNL     1       7.784   5.721  14.911  0.00  0.00    +0.000 OA
ATOM      6  C   UNL     1       7.232   4.959  13.941  0.00  0.00    +0.000 A 
ATOM      7  C   UNL     1       7.776   4.764  12.676  0.00  0.00    +0.000 A 
ATOM      8  C   UNL     1       7.037   3.968  11.802  0.00  0.00    +0.000 A 
ATOM      9  C   UNL     1       5.800   3.443  12.182  0.00  0.00    +0.000 A 
ATOM     10  C   UNL     1       5.295   3.634  13.482  0.00  0.00    +0.000 A 
ATOM     11  C   UNL     1       6.060   4.381  14.404  0.00  0.00    +0.000 A 
ENDBRANCH   2   3
BRANCH   1  17
ATOM     12  C   UNL     1       2.124   3.800  18.152  0.00  0.00    +0.000 A 
ATOM     13  C   UNL     1       1.482   3.350  19.310  0.00  0.00    +0.000 A 
ATOM     14  C   UNL     1       1.822   2.117  19.884  0.00  0.00    +0.000 A 
ATOM     15  C   UNL     1       2.785   1.306  19.290  0.00  0.00    +0.000 A 
ATOM     16  C   UNL     1       3.457   1.760  18.159  0.00  0.00    +0.000 A 
ATOM     17  C   UNL     1       3.175   3.030  17.624  0.00  0.00    +0.000 A 
BRANCH  12  18
ATOM     18  O   UNL     1       1.843   5.082  17.744  0.00  0.00    +0.000 OA
BRANCH  18  19
ATOM     19  C   UNL     1       1.665   6.068  18.793  0.00  0.00    +0.000 C 
BRANCH  19  20
ATOM     20  C   UNL     1       3.007   6.845  18.921  0.00  0.00    +0.000 C 
BRANCH  20  22
ATOM     21  C   UNL     1       4.119   7.613  16.873  0.00  0.00    +0.000 C 
ATOM     22  N   UNL     1       3.333   7.984  18.042  0.00  0.00    +0.000 NA
ATOM     23  C   UNL     1       2.195   8.817  17.680  0.00  0.00    +0.000 C 
ENDBRANCH  20  22
ENDBRANCH  19  20
ENDBRANCH  18  19
ENDBRANCH  12  18
ENDBRANCH   1  17
BRANCH   2  24
ATOM     24  C   UNL     1       5.730   4.327  18.229  0.00  0.00    +0.000 C 
ATOM     25  N   UNL     1       6.121   4.469  19.315  0.00  0.00    +0.000 NA
ENDBRANCH   2  24
TORSDOF 7
ENDMDL
MODEL 8
REMARK VINA RESULT:      -7.0      2.099      3.715
REMARK  Name = 
REMARK  9 active torsions:
REMARK  status: ('A' for Active; 'I' for Inactive)
REMARK    1  A    between atoms: C_1  and  N_2
REMARK    2  A    between atoms: N_2  and  C_3
REMARK    3  A    between atoms: N_2  and  C_4
REMARK    4  A    between atoms: C_4  and  C_5
REMARK    5  A    between atoms: C_5  and  O_6
REMARK    6  A    between atoms: O_6  and  C_7
REMARK    7  A    between atoms: C_12  and  C_13
REMARK    8  A    between atoms: C_14  and  C_15
REMARK    9  A    between atoms: C_14  and  C_17
REMARK                            x       y       z     vdW  Elec       q    Type
REMARK                         _______ _______ _______ _____ _____    ______ ____
ROOT
ATOM      1  C   UNL     1       4.685   5.822  16.429  0.00  0.00    +0.000 C 
ATOM      2  C   UNL     1       6.028   5.679  16.297  0.00  0.00    +0.000 C 
ENDROOT
BRANCH   2   3
ATOM      3  C   UNL     1       6.610   5.441  14.993  0.00  0.00    +0.000 A 
ATOM      4  N   UNL     1       7.844   5.895  14.696  0.00  0.00    +0.000 NA
ATOM      5  O   UNL     1       8.226   5.276  13.536  0.00  0.00    +0.000 OA
ATOM      6  C   UNL     1       7.218   4.493  13.091  0.00  0.00    +0.000 A 
ATOM      7  C   UNL     1       7.296   3.643  11.993  0.00  0.00    +0.000 A 
ATOM      8  C   UNL     1       6.135   2.942  11.671  0.00  0.00    +0.000 A 
ATOM      9  C   UNL     1       4.957   3.133  12.397  0.00  0.00    +0.000 A 
ATOM     10  C   UNL     1       4.923   3.977  13.523  0.00  0.00    +0.000 A 
ATOM     11  C   UNL     1       6.107   4.645  13.906  0.00  0.00    +0.000 A 
ENDBRANCH   2   3
BRANCH   1  17
ATOM     12  C   UNL     1       3.824   5.260  18.726  0.00  0.00    +0.000 A 
ATOM     13  C   UNL     1       2.913   5.578  19.738  0.00  0.00    +0.000 A 
ATOM     14  C   UNL     1       2.251   6.814  19.743  0.00  0.00    +0.000 A 
ATOM     15  C   UNL     1       2.517   7.759  18.756  0.00  0.00    +0.000 A 
ATOM     16  C   UNL     1       3.393   7.439  17.723  0.00  0.00    +0.000 A 
ATOM     17  C   UNL     1       4.000   6.170  17.670  0.00  0.00    +0.000 A 
BRANCH  12  18
ATOM     18  O   UNL     1       4.310   3.974  18.709  0.00  0.00    +0.000 OA
BRANCH  18  19
ATOM     19  C   UNL     1       4.069   3.179  19.898  0.00  0.00    +0.000 C 
BRANCH  19  20
ATOM     20  C   UNL     1       3.101   2.031  19.490  0.00  0.00    +0.000 C 
BRANCH  20  22
ATOM     21  C   UNL     1       1.374   2.679  21.108  0.00  0.00    +0.000 C 
ATOM     22  N   UNL     1       1.663   2.074  19.815  0.00  0.00    +0.000 NA
ATOM     23  C   UNL     1       0.819   2.626  18.764  0.00  0.00    +0.000 C 
ENDBRANCH  20  22
ENDBRANCH  19  20
ENDBRANCH  18  19
ENDBRANCH  12  18
ENDBRANCH   1  17
BRANCH   2  24
ATOM     24  C   UNL     1       6.901   5.853  17.420  0.00  0.00    +0.000 C 
ATOM     25  N   UNL     1       7.606   6.021  18.329  0.00  0.00    +0.000 NA
ENDBRANCH   2  24
TORSDOF 7
ENDMDL
MODEL 9
REMARK VINA RESULT:      -7.0      2.702      7.177
REMARK  Name = 
REMARK  9 active torsions:
REMARK  status: ('A' for Active; 'I' for Inactive)
REMARK    1  A    between atoms: C_1  and  N_2
REMARK    2  A    between atoms: N_2  and  C_3
REMARK    3  A    between atoms: N_2  and  C_4
REMARK    4  A    between atoms: C_4  and  C_5
REMARK    5  A    between atoms: C_5  and  O_6
REMARK    6  A    between atoms: O_6  and  C_7
REMARK    7  A    between atoms: C_12  and  C_13
REMARK    8  A    between atoms: C_14  and  C_15
REMARK    9  A    between atoms: C_14  and  C_17
REMARK                            x       y       z     vdW  Elec       q    Type
REMARK                         _______ _______ _______ _____ _____    ______ ____
ROOT
ATOM      1  C   UNL     1       3.985   6.461  18.347  0.00  0.00    +0.000 C 
ATOM      2  C   UNL     1       2.664   6.255  18.580  0.00  0.00    +0.000 C 
ENDROOT
BRANCH   2   3
ATOM      3  C   UNL     1       1.934   7.139  19.464  0.00  0.00    +0.000 A 
ATOM      4  N   UNL     1       1.633   6.760  20.722  0.00  0.00    +0.000 NA
ATOM      5  O   UNL     1       1.220   7.884  21.387  0.00  0.00    +0.000 OA
ATOM      6  C   UNL     1       1.211   8.933  20.535  0.00  0.00    +0.000 A 
ATOM      7  C   UNL     1       0.941  10.248  20.895  0.00  0.00    +0.000 A 
ATOM      8  C   UNL     1       0.947  11.185  19.863  0.00  0.00    +0.000 A 
ATOM      9  C   UNL     1       1.170  10.794  18.541  0.00  0.00    +0.000 A 
ATOM     10  C   UNL     1       1.473   9.458  18.216  0.00  0.00    +0.000 A 
ATOM     11  C   UNL     1       1.538   8.506  19.257  0.00  0.00    +0.000 A 
ENDBRANCH   2   3
BRANCH   1  17
ATOM     12  C   UNL     1       5.480   4.528  17.746  0.00  0.00    +0.000 A 
ATOM     13  C   UNL     1       6.455   4.038  16.872  0.00  0.00    +0.000 A 
ATOM     14  C   UNL     1       6.685   4.659  15.636  0.00  0.00    +0.000 A 
ATOM     15  C   UNL     1       5.922   5.756  15.247  0.00  0.00    +0.000 A 
ATOM     16  C   UNL     1       4.975   6.275  16.125  0.00  0.00    +0.000 A 
ATOM     17  C   UNL     1       4.795   5.704  17.397  0.00  0.00    +0.000 A 
BRANCH  12  18
ATOM     18  O   UNL     1       5.424   3.959  18.996  0.00  0.00    +0.000 OA
BRANCH  18  19
ATOM     19  C   UNL     1       4.536   2.822  19.148  0.00  0.00    +0.000 C 
BRANCH  19  20
ATOM     20  C   UNL     1       3.655   3.094  20.401  0.00  0.00    +0.000 C 
BRANCH  20  22
ATOM     21  C   UNL     1       1.781   1.818  19.464  0.00  0.00    +0.000 C 
ATOM     22  N   UNL     1       2.199   2.857  20.394  0.00  0.00    +0.000 NA
ATOM     23  C   UNL     1       1.609   2.666  21.712  0.00  0.00    +0.000 C 
ENDBRANCH  20  22
ENDBRANCH  19  20
ENDBRANCH  18  19
ENDBRANCH  12  18
ENDBRANCH   1  17
BRANCH   2  24
ATOM     24  C   UNL     1       1.948   5.224  17.890  0.00  0.00    +0.000 C 
ATOM     25  N   UNL     1       1.384   4.390  17.308  0.00  0.00    +0.000 NA
ENDBRANCH   2  24
TORSDOF 7
ENDMDL
