MODEL 1
REMARK VINA RESULT:      -8.0      0.000      0.000
REMARK  Name = 
REMARK  4 active torsions:
REMARK  status: ('A' for Active; 'I' for Inactive)
REMARK    1  A    between atoms: C_1  and  C_2
REMARK    2  A    between atoms: C_4  and  C_5
REMARK    3  A    between atoms: C_4  and  C_6
REMARK    4  A    between atoms: C_14  and  C_15
REMARK                            x       y       z     vdW  Elec       q    Type
REMARK                         _______ _______ _______ _____ _____    ______ ____
ROOT
ATOM      1  C   UNL     1      -1.577  11.140  23.233  0.00  0.00    +0.000 C 
ATOM      2  C   UNL     1      -1.649  12.538  22.592  0.00  0.00    +0.000 C 
ATOM      3  C   UNL     1      -1.852  13.624  23.665  0.00  0.00    +0.000 C 
ATOM      4  C   UNL     1      -3.324  13.865  24.034  0.00  0.00    +0.000 C 
ATOM      5  C   UNL     1      -4.002  12.687  24.749  0.00  0.00    +0.000 C 
ATOM      6  C   UNL     1      -3.407  15.084  24.970  0.00  0.00    +0.000 C 
ATOM      7  N   UNL     1      -4.050  14.190  22.810  0.00  0.00    +0.000 N 
ATOM      8  C   UNL     1      -3.853  13.401  21.678  0.00  0.00    +0.000 A 
ATOM      9  C   UNL     1      -4.798  13.477  20.647  0.00  0.00    +0.000 A 
ATOM     10  C   UNL     1      -4.635  12.789  19.449  0.00  0.00    +0.000 A 
ATOM     11  C   UNL     1      -3.475  12.044  19.203  0.00  0.00    +0.000 A 
ATOM     12  C   UNL     1      -2.487  11.988  20.217  0.00  0.00    +0.000 A 
ATOM     13  C   UNL     1      -2.679  12.635  21.472  0.00  0.00    +0.000 A 
ATOM     14  C   UNL     1      -1.176  11.302  19.823  0.00  0.00    +0.000 C 
ATOM     15  O   UNL     1      -1.392  10.128  19.002  0.00  0.00    +0.000 OA
ATOM     16  C   UNL     1      -2.188  10.370  17.911  0.00  0.00    +0.000 A 
ATOM     17  C   UNL     1      -1.881   9.640  16.760  0.00  0.00    +0.000 A 
ATOM     18  C   UNL     1      -2.551   9.922  15.574  0.00  0.00    +0.000 A 
ATOM     19  C   UNL     1      -3.542  10.898  15.560  0.00  0.00    +0.000 A 
ATOM     20  C   UNL     1      -3.886  11.582  16.734  0.00  0.00    +0.000 A 
ATOM     21  C   UNL     1      -3.214  11.328  17.940  0.00  0.00    +0.000 A 
ATOM     22  H   UNL     1      -5.012  14.493  22.950  0.00  0.00    +0.000 HD
ENDROOT
BRANCH  14  23
ATOM     23  C   UNL     1      -0.097  12.208  19.198  0.00  0.00    +0.000 A 
ATOM     24  C   UNL     1       1.144  11.708  18.755  0.00  0.00    +0.000 A 
ATOM     25  C   UNL     1       2.144  12.569  18.296  0.00  0.00    +0.000 A 
ATOM     26  C   UNL     1       1.906  13.935  18.236  0.00  0.00    +0.000 A 
ATOM     27 CL   UNL     1       3.161  14.997  17.725  0.00  0.00    +0.000 Cl
ATOM     28  C   UNL     1       0.662  14.448  18.601  0.00  0.00    +0.000 A 
ATOM     29  C   UNL     1      -0.331  13.587  19.081  0.00  0.00    +0.000 A 
ENDBRANCH  14  23
TORSDOF 1
ENDMDL
MODEL 2
REMARK VINA RESULT:      -7.6      2.689      4.558
REMARK  Name = 
REMARK  4 active torsions:
REMARK  status: ('A' for Active; 'I' for Inactive)
REMARK    1  A    between atoms: C_1  and  C_2
REMARK    2  A    between atoms: C_4  and  C_5
REMARK    3  A    between atoms: C_4  and  C_6
REMARK    4  A    between atoms: C_14  and  C_15
REMARK                            x       y       z     vdW  Elec       q    Type
REMARK                         _______ _______ _______ _____ _____    ______ ____
ROOT
ATOM      1  C   UNL     1      -0.761  14.507  20.980  0.00  0.00    +0.000 C 
ATOM      2  C   UNL     1      -1.806  13.382  21.095  0.00  0.00    +0.000 C 
ATOM      3  C   UNL     1      -2.964  13.802  22.019  0.00  0.00    +0.000 C 
ATOM      4  C   UNL     1      -2.703  13.526  23.508  0.00  0.00    +0.000 C 
ATOM      5  C   UNL     1      -1.580  14.374  24.124  0.00  0.00    +0.000 C 
ATOM      6  C   UNL     1      -3.990  13.816  24.300  0.00  0.00    +0.000 C 
ATOM      7  N   UNL     1      -2.394  12.107  23.657  0.00  0.00    +0.000 N 
ATOM      8  C   UNL     1      -1.481  11.518  22.785  0.00  0.00    +0.000 A 
ATOM      9  C   UNL     1      -0.917  10.289  23.149  0.00  0.00    +0.000 A 
ATOM     10  C   UNL     1      -0.063   9.592  22.300  0.00  0.00    +0.000 A 
ATOM     11  C   UNL     1       0.210  10.066  21.012  0.00  0.00    +0.000 A 
ATOM     12  C   UNL     1      -0.384  11.288  20.608  0.00  0.00    +0.000 A 
ATOM     13  C   UNL     1      -1.205  12.040  21.497  0.00  0.00    +0.000 A 
ATOM     14  C   UNL     1      -0.183  11.664  19.137  0.00  0.00    +0.000 C 
ATOM     15  O   UNL     1       1.151  11.353  18.665  0.00  0.00    +0.000 OA
ATOM     16  C   UNL     1       1.525  10.057  18.914  0.00  0.00    +0.000 A 
ATOM     17  C   UNL     1       2.348   9.466  17.953  0.00  0.00    +0.000 A 
ATOM     18  C   UNL     1       2.663   8.116  18.062  0.00  0.00    +0.000 A 
ATOM     19  C   UNL     1       2.188   7.384  19.145  0.00  0.00    +0.000 A 
ATOM     20  C   UNL     1       1.413   8.001  20.137  0.00  0.00    +0.000 A 
ATOM     21  C   UNL     1       1.067   9.358  20.043  0.00  0.00    +0.000 A 
ATOM     22  H   UNL     1      -2.325  11.783  24.620  0.00  0.00    +0.000 HD
ENDROOT
BRANCH  14  23
ATOM     23  C   UNL     1      -1.243  11.134  18.150  0.00  0.00    +0.000 A 
ATOM     24  C   UNL     1      -1.075   9.929  17.439  0.00  0.00    +0.000 A 
ATOM     25  C   UNL     1      -2.000   9.532  16.470  0.00  0.00    +0.000 A 
ATOM     26  C   UNL     1      -3.123  10.310  16.226  0.00  0.00    +0.000 A 
ATOM     27 CL   UNL     1      -4.229   9.845  14.991  0.00  0.00    +0.000 Cl
ATOM     28  C   UNL     1      -3.349  11.469  16.967  0.00  0.00    +0.000 A 
ATOM     29  C   UNL     1      -2.411  11.877  17.921  0.00  0.00    +0.000 A 
ENDBRANCH  14  23
TORSDOF 1
ENDMDL
MODEL 3
REMARK VINA RESULT:      -7.2      2.845      5.611
REMARK  Name = 
REMARK  4 active torsions:
REMARK  status: ('A' for Active; 'I' for Inactive)
REMARK    1  A    between atoms: C_1  and  C_2
REMARK    2  A    between atoms: C_4  and  C_5
REMARK    3  A    between atoms: C_4  and  C_6
REMARK    4  A    between atoms: C_14  and  C_15
REMARK                            x       y       z     vdW  Elec       q    Type
REMARK                         _______ _______ _______ _____ _____    ______ ____
ROOT
ATOM      1  C   UNL     1      -2.726  11.488  16.311  0.00  0.00    +0.000 C 
ATOM      2  C   UNL     1      -2.905  10.888  17.717  0.00  0.00    +0.000 C 
ATOM      3  C   UNL     1      -4.305  10.266  17.874  0.00  0.00    +0.000 C 
ATOM      4  C   UNL     1      -5.385  11.267  18.311  0.00  0.00    +0.000 C 
ATOM      5  C   UNL     1      -5.713  12.345  17.267  0.00  0.00    +0.000 C 
ATOM      6  C   UNL     1      -6.685  10.498  18.607  0.00  0.00    +0.000 C 
ATOM      7  N   UNL     1      -4.943  11.895  19.554  0.00  0.00    +0.000 N 
ATOM      8  C   UNL     1      -3.636  12.369  19.643  0.00  0.00    +0.000 A 
ATOM      9  C   UNL     1      -3.331  13.278  20.664  0.00  0.00    +0.000 A 
ATOM     10  C   UNL     1      -2.035  13.735  20.878  0.00  0.00    +0.000 A 
ATOM     11  C   UNL     1      -0.967  13.244  20.117  0.00  0.00    +0.000 A 
ATOM     12  C   UNL     1      -1.248  12.292  19.106  0.00  0.00    +0.000 A 
ATOM     13  C   UNL     1      -2.583  11.870  18.837  0.00  0.00    +0.000 A 
ATOM     14  C   UNL     1      -0.024  11.671  18.427  0.00  0.00    +0.000 C 
ATOM     15  O   UNL     1       1.028  12.639  18.193  0.00  0.00    +0.000 OA
ATOM     16  C   UNL     1       1.373  13.345  19.318  0.00  0.00    +0.000 A 
ATOM     17  C   UNL     1       2.720  13.700  19.423  0.00  0.00    +0.000 A 
ATOM     18  C   UNL     1       3.178  14.299  20.592  0.00  0.00    +0.000 A 
ATOM     19  C   UNL     1       2.283  14.571  21.621  0.00  0.00    +0.000 A 
ATOM     20  C   UNL     1       0.922  14.268  21.481  0.00  0.00    +0.000 A 
ATOM     21  C   UNL     1       0.437  13.648  20.319  0.00  0.00    +0.000 A 
ATOM     22  H   UNL     1      -5.637  12.487  20.004  0.00  0.00    +0.000 HD
ENDROOT
BRANCH  14  23
ATOM     23  C   UNL     1       0.548  10.400  19.089  0.00  0.00    +0.000 A 
ATOM     24  C   UNL     1       1.490   9.574  18.444  0.00  0.00    +0.000 A 
ATOM     25  C   UNL     1       1.904   8.371  19.022  0.00  0.00    +0.000 A 
ATOM     26  C   UNL     1       1.416   7.997  20.265  0.00  0.00    +0.000 A 
ATOM     27 CL   UNL     1       1.886   6.487  20.946  0.00  0.00    +0.000 Cl
ATOM     28  C   UNL     1       0.538   8.831  20.956  0.00  0.00    +0.000 A 
ATOM     29  C   UNL     1       0.106  10.024  20.366  0.00  0.00    +0.000 A 
ENDBRANCH  14  23
TORSDOF 1
ENDMDL
MODEL 4
REMARK VINA RESULT:      -7.1      2.651      4.787
REMARK  Name = 
REMARK  4 active torsions:
REMARK  status: ('A' for Active; 'I' for Inactive)
REMARK    1  A    between atoms: C_1  and  C_2
REMARK    2  A    between atoms: C_4  and  C_5
REMARK    3  A    between atoms: C_4  and  C_6
REMARK    4  A    between atoms: C_14  and  C_15
REMARK                            x       y       z     vdW  Elec       q    Type
REMARK                         _______ _______ _______ _____ _____    ______ ____
ROOT
ATOM      1  C   UNL     1      -2.807  16.503  21.450  0.00  0.00    +0.000 C 
ATOM      2  C   UNL     1      -3.882  15.407  21.335  0.00  0.00    +0.000 C 
ATOM      3  C   UNL     1      -5.290  15.998  21.536  0.00  0.00    +0.000 C 
ATOM      4  C   UNL     1      -5.725  16.082  23.007  0.00  0.00    +0.000 C 
ATOM      5  C   UNL     1      -4.920  17.080  23.853  0.00  0.00    +0.000 C 
ATOM      6  C   UNL     1      -7.202  16.512  23.065  0.00  0.00    +0.000 C 
ATOM      7  N   UNL     1      -5.625  14.745  23.586  0.00  0.00    +0.000 N 
ATOM      8  C   UNL     1      -4.472  13.995  23.359  0.00  0.00    +0.000 A 
ATOM      9  C   UNL     1      -4.222  12.899  24.195  0.00  0.00    +0.000 A 
ATOM     10  C   UNL     1      -3.142  12.048  23.986  0.00  0.00    +0.000 A 
ATOM     11  C   UNL     1      -2.298  12.219  22.881  0.00  0.00    +0.000 A 
ATOM     12  C   UNL     1      -2.559  13.296  22.000  0.00  0.00    +0.000 A 
ATOM     13  C   UNL     1      -3.624  14.212  22.246  0.00  0.00    +0.000 A 
ATOM     14  C   UNL     1      -1.710  13.327  20.726  0.00  0.00    +0.000 C 
ATOM     15  O   UNL     1      -0.332  12.952  20.972  0.00  0.00    +0.000 OA
ATOM     16  C   UNL     1      -0.207  11.759  21.639  0.00  0.00    +0.000 A 
ATOM     17  C   UNL     1       0.903  10.984  21.296  0.00  0.00    +0.000 A 
ATOM     18  C   UNL     1       1.032   9.705  21.826  0.00  0.00    +0.000 A 
ATOM     19  C   UNL     1       0.077   9.232  22.720  0.00  0.00    +0.000 A 
ATOM     20  C   UNL     1      -1.001  10.041  23.105  0.00  0.00    +0.000 A 
ATOM     21  C   UNL     1      -1.164  11.329  22.572  0.00  0.00    +0.000 A 
ATOM     22  H   UNL     1      -6.008  14.655  24.525  0.00  0.00    +0.000 HD
ENDROOT
BRANCH  14  23
ATOM     23  C   UNL     1      -2.273  12.554  19.516  0.00  0.00    +0.000 A 
ATOM     24  C   UNL     1      -1.468  12.174  18.424  0.00  0.00    +0.000 A 
ATOM     25  C   UNL     1      -2.028  11.574  17.293  0.00  0.00    +0.000 A 
ATOM     26  C   UNL     1      -3.390  11.310  17.253  0.00  0.00    +0.000 A 
ATOM     27 CL   UNL     1      -4.083  10.624  15.834  0.00  0.00    +0.000 Cl
ATOM     28  C   UNL     1      -4.196  11.612  18.349  0.00  0.00    +0.000 A 
ATOM     29  C   UNL     1      -3.638  12.233  19.472  0.00  0.00    +0.000 A 
ENDBRANCH  14  23
TORSDOF 1
ENDMDL
MODEL 5
REMARK VINA RESULT:      -7.0      1.248      1.478
REMARK  Name = 
REMARK  4 active torsions:
REMARK  status: ('A' for Active; 'I' for Inactive)
REMARK    1  A    between atoms: C_1  and  C_2
REMARK    2  A    between atoms: C_4  and  C_5
REMARK    3  A    between atoms: C_4  and  C_6
REMARK    4  A    between atoms: C_14  and  C_15
REMARK                            x       y       z     vdW  Elec       q    Type
REMARK                         _______ _______ _______ _____ _____    ______ ____
ROOT
ATOM      1  C   UNL     1      -3.091  12.184  23.331  0.00  0.00    +0.000 C 
ATOM      2  C   UNL     1      -3.255  13.460  22.484  0.00  0.00    +0.000 C 
ATOM      3  C   UNL     1      -3.844  14.605  23.327  0.00  0.00    +0.000 C 
ATOM      4  C   UNL     1      -5.379  14.609  23.386  0.00  0.00    +0.000 C 
ATOM      5  C   UNL     1      -5.990  13.416  24.136  0.00  0.00    +0.000 C 
ATOM      6  C   UNL     1      -5.846  15.891  24.097  0.00  0.00    +0.000 C 
ATOM      7  N   UNL     1      -5.883  14.647  22.016  0.00  0.00    +0.000 N 
ATOM      8  C   UNL     1      -5.336  13.782  21.070  0.00  0.00    +0.000 A 
ATOM      9  C   UNL     1      -6.051  13.559  19.886  0.00  0.00    +0.000 A 
ATOM     10  C   UNL     1      -5.540  12.779  18.855  0.00  0.00    +0.000 A 
ATOM     11  C   UNL     1      -4.250  12.241  18.936  0.00  0.00    +0.000 A 
ATOM     12  C   UNL     1      -3.493  12.489  20.107  0.00  0.00    +0.000 A 
ATOM     13  C   UNL     1      -4.037  13.231  21.196  0.00  0.00    +0.000 A 
ATOM     14  C   UNL     1      -2.036  12.019  20.063  0.00  0.00    +0.000 C 
ATOM     15  O   UNL     1      -1.889  10.738  19.403  0.00  0.00    +0.000 OA
ATOM     16  C   UNL     1      -2.475  10.699  18.163  0.00  0.00    +0.000 A 
ATOM     17  C   UNL     1      -1.827   9.910  17.209  0.00  0.00    +0.000 A 
ATOM     18  C   UNL     1      -2.278   9.921  15.894  0.00  0.00    +0.000 A 
ATOM     19  C   UNL     1      -3.390  10.685  15.555  0.00  0.00    +0.000 A 
ATOM     20  C   UNL     1      -4.071  11.425  16.532  0.00  0.00    +0.000 A 
ATOM     21  C   UNL     1      -3.626  11.444  17.863  0.00  0.00    +0.000 A 
ATOM     22  H   UNL     1      -6.890  14.779  21.933  0.00  0.00    +0.000 HD
ENDROOT
BRANCH  14  23
ATOM     23  C   UNL     1      -1.013  13.033  19.513  0.00  0.00    +0.000 A 
ATOM     24  C   UNL     1       0.173  12.630  18.866  0.00  0.00    +0.000 A 
ATOM     25  C   UNL     1       1.133  13.568  18.478  0.00  0.00    +0.000 A 
ATOM     26  C   UNL     1       0.907  14.919  18.693  0.00  0.00    +0.000 A 
ATOM     27 CL   UNL     1       2.119  16.065  18.265  0.00  0.00    +0.000 Cl
ATOM     28  C   UNL     1      -0.289  15.349  19.266  0.00  0.00    +0.000 A 
ATOM     29  C   UNL     1      -1.240  14.407  19.675  0.00  0.00    +0.000 A 
ENDBRANCH  14  23
TORSDOF 1
ENDMDL
MODEL 6
REMARK VINA RESULT:      -6.9      3.236      6.379
REMARK  Name = 
REMARK  4 active torsions:
REMARK  status: ('A' for Active; 'I' for Inactive)
REMARK    1  A    between atoms: C_1  and  C_2
REMARK    2  A    between atoms: C_4  and  C_5
REMARK    3  A    between atoms: C_4  and  C_6
REMARK    4  A    between atoms: C_14  and  C_15
REMARK                            x       y       z     vdW  Elec       q    Type
REMARK                         _______ _______ _______ _____ _____    ______ ____
ROOT
ATOM      1  C   UNL     1       0.407   8.896  17.199  0.00  0.00    +0.000 C 
ATOM      2  C   UNL     1       1.510   9.255  18.211  0.00  0.00    +0.000 C 
ATOM      3  C   UNL     1       2.731   8.332  18.042  0.00  0.00    +0.000 C 
ATOM      4  C   UNL     1       2.628   7.014  18.826  0.00  0.00    +0.000 C 
ATOM      5  C   UNL     1       1.531   6.061  18.327  0.00  0.00    +0.000 C 
ATOM      6  C   UNL     1       3.970   6.269  18.724  0.00  0.00    +0.000 C 
ATOM      7  N   UNL     1       2.403   7.341  20.231  0.00  0.00    +0.000 N 
ATOM      8  C   UNL     1       1.438   8.292  20.557  0.00  0.00    +0.000 A 
ATOM      9  C   UNL     1       0.971   8.334  21.877  0.00  0.00    +0.000 A 
ATOM     10  C   UNL     1       0.073   9.305  22.308  0.00  0.00    +0.000 A 
ATOM     11  C   UNL     1      -0.346  10.326  21.447  0.00  0.00    +0.000 A 
ATOM     12  C   UNL     1       0.148  10.327  20.119  0.00  0.00    +0.000 A 
ATOM     13  C   UNL     1       1.015   9.297  19.652  0.00  0.00    +0.000 A 
ATOM     14  C   UNL     1      -0.211  11.559  19.283  0.00  0.00    +0.000 C 
ATOM     15  O   UNL     1      -1.568  12.008  19.517  0.00  0.00    +0.000 OA
ATOM     16  C   UNL     1      -1.855  12.194  20.846  0.00  0.00    +0.000 A 
ATOM     17  C   UNL     1      -2.739  13.236  21.137  0.00  0.00    +0.000 A 
ATOM     18  C   UNL     1      -2.977  13.577  22.464  0.00  0.00    +0.000 A 
ATOM     19  C   UNL     1      -2.365  12.851  23.481  0.00  0.00    +0.000 A 
ATOM     20  C   UNL     1      -1.529  11.768  23.180  0.00  0.00    +0.000 A 
ATOM     21  C   UNL     1      -1.258  11.414  21.849  0.00  0.00    +0.000 A 
ATOM     22  H   UNL     1       2.442   6.547  20.867  0.00  0.00    +0.000 HD
ENDROOT
BRANCH  14  23
ATOM     23  C   UNL     1       0.772  12.743  19.362  0.00  0.00    +0.000 A 
ATOM     24  C   UNL     1       1.952  12.693  20.132  0.00  0.00    +0.000 A 
ATOM     25  C   UNL     1       2.765  13.820  20.274  0.00  0.00    +0.000 A 
ATOM     26  C   UNL     1       2.435  14.998  19.619  0.00  0.00    +0.000 A 
ATOM     27 CL   UNL     1       3.410  16.399  19.844  0.00  0.00    +0.000 Cl
ATOM     28  C   UNL     1       1.313  15.053  18.795  0.00  0.00    +0.000 A 
ATOM     29  C   UNL     1       0.486  13.931  18.671  0.00  0.00    +0.000 A 
ENDBRANCH  14  23
TORSDOF 1
ENDMDL
MODEL 7
REMARK VINA RESULT:      -6.9      2.210      3.862
REMARK  Name = 
REMARK  4 active torsions:
REMARK  status: ('A' for Active; 'I' for Inactive)
REMARK    1  A    between atoms: C_1  and  C_2
REMARK    2  A    between atoms: C_4  and  C_5
REMARK    3  A    between atoms: C_4  and  C_6
REMARK    4  A    between atoms: C_14  and  C_15
REMARK                            x       y       z     vdW  Elec       q    Type
REMARK                         _______ _______ _______ _____ _____    ______ ____
ROOT
ATOM      1  C   UNL     1      -4.791  12.663  21.950  0.00  0.00    +0.000 C 
ATOM      2  C   UNL     1      -4.403  13.427  20.671  0.00  0.00    +0.000 C 
ATOM      3  C   UNL     1      -5.551  14.342  20.209  0.00  0.00    +0.000 C 
ATOM      4  C   UNL     1      -6.585  13.640  19.314  0.00  0.00    +0.000 C 
ATOM      5  C   UNL     1      -7.409  12.556  20.025  0.00  0.00    +0.000 C 
ATOM      6  C   UNL     1      -7.571  14.691  18.775  0.00  0.00    +0.000 C 
ATOM      7  N   UNL     1      -5.878  13.062  18.175  0.00  0.00    +0.000 N 
ATOM      8  C   UNL     1      -4.711  12.335  18.402  0.00  0.00    +0.000 A 
ATOM      9  C   UNL     1      -4.251  11.489  17.384  0.00  0.00    +0.000 A 
ATOM     10  C   UNL     1      -3.051  10.793  17.494  0.00  0.00    +0.000 A 
ATOM     11  C   UNL     1      -2.220  10.969  18.607  0.00  0.00    +0.000 A 
ATOM     12  C   UNL     1      -2.647  11.852  19.629  0.00  0.00    +0.000 A 
ATOM     13  C   UNL     1      -3.907  12.516  19.554  0.00  0.00    +0.000 A 
ATOM     14  C   UNL     1      -1.622  12.130  20.732  0.00  0.00    +0.000 C 
ATOM     15  O   UNL     1      -0.881  10.943  21.107  0.00  0.00    +0.000 OA
ATOM     16  C   UNL     1      -0.315  10.297  20.037  0.00  0.00    +0.000 A 
ATOM     17  C   UNL     1       0.913   9.678  20.280  0.00  0.00    +0.000 A 
ATOM     18  C   UNL     1       1.616   9.118  19.219  0.00  0.00    +0.000 A 
ATOM     19  C   UNL     1       1.069   9.145  17.941  0.00  0.00    +0.000 A 
ATOM     20  C   UNL     1      -0.193   9.713  17.718  0.00  0.00    +0.000 A 
ATOM     21  C   UNL     1      -0.915  10.301  18.768  0.00  0.00    +0.000 A 
ATOM     22  H   UNL     1      -6.479  12.678  17.449  0.00  0.00    +0.000 HD
ENDROOT
BRANCH  14  23
ATOM     23  C   UNL     1      -0.662  13.311  20.485  0.00  0.00    +0.000 A 
ATOM     24  C   UNL     1      -0.671  14.050  19.284  0.00  0.00    +0.000 A 
ATOM     25  C   UNL     1       0.284  15.042  19.045  0.00  0.00    +0.000 A 
ATOM     26  C   UNL     1       1.233  15.336  20.013  0.00  0.00    +0.000 A 
ATOM     27 CL   UNL     1       2.443  16.518  19.689  0.00  0.00    +0.000 Cl
ATOM     28  C   UNL     1       1.219  14.669  21.237  0.00  0.00    +0.000 A 
ATOM     29  C   UNL     1       0.277  13.660  21.467  0.00  0.00    +0.000 A 
ENDBRANCH  14  23
TORSDOF 1
ENDMDL
MODEL 8
REMARK VINA RESULT:      -6.8      2.413      4.252
REMARK  Name = 
REMARK  4 active torsions:
REMARK  status: ('A' for Active; 'I' for Inactive)
REMARK    1  A    between atoms: C_1  and  C_2
REMARK    2  A    between atoms: C_4  and  C_5
REMARK    3  A    between atoms: C_4  and  C_6
REMARK    4  A    between atoms: C_14  and  C_15
REMARK                            x       y       z     vdW  Elec       q    Type
REMARK                         _______ _______ _______ _____ _____    ______ ____
ROOT
ATOM      1  C   UNL     1      -4.988  12.288  21.207  0.00  0.00    +0.000 C 
ATOM      2  C   UNL     1      -4.482  13.050  19.970  0.00  0.00    +0.000 C 
ATOM      3  C   UNL     1      -5.603  13.909  19.357  0.00  0.00    +0.000 C 
ATOM      4  C   UNL     1      -6.492  13.151  18.359  0.00  0.00    +0.000 C 
ATOM      5  C   UNL     1      -7.350  12.041  18.986  0.00  0.00    +0.000 C 
ATOM      6  C   UNL     1      -7.449  14.151  17.687  0.00  0.00    +0.000 C 
ATOM      7  N   UNL     1      -5.630  12.589  17.322  0.00  0.00    +0.000 N 
ATOM      8  C   UNL     1      -4.470  11.916  17.700  0.00  0.00    +0.000 A 
ATOM      9  C   UNL     1      -3.856  11.078  16.760  0.00  0.00    +0.000 A 
ATOM     10  C   UNL     1      -2.651  10.437  17.024  0.00  0.00    +0.000 A 
ATOM     11  C   UNL     1      -1.967  10.663  18.225  0.00  0.00    +0.000 A 
ATOM     12  C   UNL     1      -2.550  11.540  19.173  0.00  0.00    +0.000 A 
ATOM     13  C   UNL     1      -3.818  12.147  18.936  0.00  0.00    +0.000 A 
ATOM     14  C   UNL     1      -1.676  11.876  20.385  0.00  0.00    +0.000 C 
ATOM     15  O   UNL     1      -0.937  10.728  20.868  0.00  0.00    +0.000 OA
ATOM     16  C   UNL     1      -0.221  10.093  19.885  0.00  0.00    +0.000 A 
ATOM     17  C   UNL     1       0.995   9.532  20.283  0.00  0.00    +0.000 A 
ATOM     18  C   UNL     1       1.842   8.989  19.324  0.00  0.00    +0.000 A 
ATOM     19  C   UNL     1       1.452   8.976  17.989  0.00  0.00    +0.000 A 
ATOM     20  C   UNL     1       0.203   9.485  17.607  0.00  0.00    +0.000 A 
ATOM     21  C   UNL     1      -0.664  10.054  18.553  0.00  0.00    +0.000 A 
ATOM     22  H   UNL     1      -6.123  12.169  16.537  0.00  0.00    +0.000 HD
ENDROOT
BRANCH  14  23
ATOM     23  C   UNL     1      -0.744  13.095  20.232  0.00  0.00    +0.000 A 
ATOM     24  C   UNL     1       0.026  13.594  21.302  0.00  0.00    +0.000 A 
ATOM     25  C   UNL     1       0.774  14.765  21.164  0.00  0.00    +0.000 A 
ATOM     26  C   UNL     1       0.796  15.432  19.947  0.00  0.00    +0.000 A 
ATOM     27 CL   UNL     1       1.674  16.906  19.800  0.00  0.00    +0.000 Cl
ATOM     28  C   UNL     1       0.101  14.921  18.853  0.00  0.00    +0.000 A 
ATOM     29  C   UNL     1      -0.667  13.760  18.999  0.00  0.00    +0.000 A 
ENDBRANCH  14  23
TORSDOF 1
ENDMDL
MODEL 9
REMARK VINA RESULT:      -6.8      8.764     11.293
REMARK  Name = 
REMARK  4 active torsions:
REMARK  status: ('A' for Active; 'I' for Inactive)
REMARK    1  A    between atoms: C_1  and  C_2
REMARK    2  A    between atoms: C_4  and  C_5
REMARK    3  A    between atoms: C_4  and  C_6
REMARK    4  A    between atoms: C_14  and  C_15
REMARK                            x       y       z     vdW  Elec       q    Type
REMARK                         _______ _______ _______ _____ _____    ______ ____
ROOT
ATOM      1  C   UNL     1       8.268  15.340  23.881  0.00  0.00    +0.000 C 
ATOM      2  C   UNL     1       7.439  14.326  23.074  0.00  0.00    +0.000 C 
ATOM      3  C   UNL     1       6.569  13.462  24.006  0.00  0.00    +0.000 C 
ATOM      4  C   UNL     1       7.292  12.225  24.561  0.00  0.00    +0.000 C 
ATOM      5  C   UNL     1       8.445  12.542  25.527  0.00  0.00    +0.000 C 
ATOM      6  C   UNL     1       6.276  11.356  25.323  0.00  0.00    +0.000 C 
ATOM      7  N   UNL     1       7.789  11.447  23.430  0.00  0.00    +0.000 N 
ATOM      8  C   UNL     1       8.462  12.104  22.401  0.00  0.00    +0.000 A 
ATOM      9  C   UNL     1       9.243  11.337  21.528  0.00  0.00    +0.000 A 
ATOM     10  C   UNL     1       9.878  11.899  20.425  0.00  0.00    +0.000 A 
ATOM     11  C   UNL     1       9.699  13.251  20.107  0.00  0.00    +0.000 A 
ATOM     12  C   UNL     1       8.878  14.035  20.955  0.00  0.00    +0.000 A 
ATOM     13  C   UNL     1       8.280  13.481  22.124  0.00  0.00    +0.000 A 
ATOM     14  C   UNL     1       8.587  15.455  20.461  0.00  0.00    +0.000 C 
ATOM     15  O   UNL     1       9.746  16.076  19.852  0.00  0.00    +0.000 OA
ATOM     16  C   UNL     1      10.321  15.305  18.874  0.00  0.00    +0.000 A 
ATOM     17  C   UNL     1      10.882  16.002  17.801  0.00  0.00    +0.000 A 
ATOM     18  C   UNL     1      11.365  15.294  16.705  0.00  0.00    +0.000 A 
ATOM     19  C   UNL     1      11.320  13.904  16.711  0.00  0.00    +0.000 A 
ATOM     20  C   UNL     1      10.812  13.212  17.819  0.00  0.00    +0.000 A 
ATOM     21  C   UNL     1      10.303  13.902  18.929  0.00  0.00    +0.000 A 
ATOM     22  H   UNL     1       8.179  10.538  23.674  0.00  0.00    +0.000 HD
ENDROOT
BRANCH  14  23
ATOM     23  C   UNL     1       7.348  15.619  19.558  0.00  0.00    +0.000 A 
ATOM     24  C   UNL     1       6.516  16.755  19.619  0.00  0.00    +0.000 A 
ATOM     25  C   UNL     1       5.340  16.825  18.869  0.00  0.00    +0.000 A 
ATOM     26  C   UNL     1       4.998  15.782  18.020  0.00  0.00    +0.000 A 
ATOM     27 CL   UNL     1       3.518  15.848  17.143  0.00  0.00    +0.000 Cl
ATOM     28  C   UNL     1       5.840  14.678  17.888  0.00  0.00    +0.000 A 
ATOM     29  C   UNL     1       7.006  14.600  18.657  0.00  0.00    +0.000 A 
ENDBRANCH  14  23
TORSDOF 1
ENDMDL
