MODEL 1
REMARK VINA RESULT:      -8.6      0.000      0.000
REMARK  Name = 
REMARK  5 active torsions:
REMARK  status: ('A' for Active; 'I' for Inactive)
REMARK    1  A    between atoms: C_6  and  C_7
REMARK    2  A    between atoms: N_18  and  C_19
REMARK    3  A    between atoms: C_19  and  C_20
REMARK    4  A    between atoms: C_27  and  C_28
REMARK    5  A    between atoms: C_28  and  C_29
REMARK                            x       y       z     vdW  Elec       q    Type
REMARK                         _______ _______ _______ _____ _____    ______ ____
ROOT
ATOM      1  O   UNL     1       2.849   7.122  19.699  0.00  0.00    +0.000 OA
ATOM      2  C   UNL     1       3.030   7.301  18.496  0.00  0.00    +0.000 C 
ATOM      3  N   UNL     1       2.295   8.166  17.729  0.00  0.00    +0.000 N 
ATOM      4  C   UNL     1       1.332   8.951  18.309  0.00  0.00    +0.000 A 
ATOM      5  N   UNL     1       1.148   9.218  19.573  0.00  0.00    +0.000 NA
ATOM      6  C   UNL     1       0.009   9.982  19.754  0.00  0.00    +0.000 A 
ATOM      7  C   UNL     1      -0.633  10.318  18.576  0.00  0.00    +0.000 A 
ATOM      8  S   UNL     1       0.226   9.667  17.228  0.00  0.00    +0.000 S 
ATOM      9  N   UNL     1       4.021   6.588  17.828  0.00  0.00    +0.000 N 
ATOM     10  C   UNL     1       4.432   6.720  16.421  0.00  0.00    +0.000 C 
ATOM     11  C   UNL     1       5.970   6.712  16.241  0.00  0.00    +0.000 C 
ATOM     12  N   UNL     1       6.718   5.678  16.980  0.00  0.00    +0.000 NA
ATOM     13  C   UNL     1       6.241   5.634  18.376  0.00  0.00    +0.000 C 
ATOM     14  C   UNL     1       4.710   5.518  18.591  0.00  0.00    +0.000 C 
ATOM     15  H   UNL     1       2.236   8.050  16.735  0.00  0.00    +0.000 HD
ENDROOT
BRANCH   6  16
ATOM     16  C   UNL     1      -0.410  10.356  21.104  0.00  0.00    +0.000 A 
ATOM     17  C   UNL     1      -1.052  11.586  21.296  0.00  0.00    +0.000 A 
ATOM     18  C   UNL     1      -1.459  11.941  22.571  0.00  0.00    +0.000 A 
ATOM     19  N   UNL     1      -1.270  11.166  23.658  0.00  0.00    +0.000 NA
ATOM     20  C   UNL     1      -0.639   9.991  23.459  0.00  0.00    +0.000 A 
ATOM     21  C   UNL     1      -0.196   9.546  22.221  0.00  0.00    +0.000 A 
ENDBRANCH   6  16
BRANCH  12  22
ATOM     22  C   UNL     1       6.712   4.349  16.367  0.00  0.00    +0.000 C 
BRANCH  22  23
ATOM     23  C   UNL     1       6.790   4.359  14.860  0.00  0.00    +0.000 A 
ATOM     24  C   UNL     1       7.776   5.099  14.195  0.00  0.00    +0.000 A 
ATOM     25  C   UNL     1       7.846   5.084  12.802  0.00  0.00    +0.000 A 
ATOM     26  C   UNL     1       6.933   4.331  12.064  0.00  0.00    +0.000 A 
ATOM     27  C   UNL     1       5.955   3.585  12.717  0.00  0.00    +0.000 A 
ATOM     28  C   UNL     1       5.884   3.596  14.107  0.00  0.00    +0.000 A 
ENDBRANCH  22  23
ENDBRANCH  12  22
BRANCH  14  29
ATOM     29  C   UNL     1       4.043   4.148  18.300  0.00  0.00    +0.000 C 
BRANCH  29  30
ATOM     30  C   UNL     1       3.061   3.629  19.325  0.00  0.00    +0.000 A 
ATOM     31  C   UNL     1       3.498   3.000  20.497  0.00  0.00    +0.000 A 
ATOM     32  C   UNL     1       2.583   2.575  21.463  0.00  0.00    +0.000 A 
ATOM     33  C   UNL     1       1.221   2.794  21.279  0.00  0.00    +0.000 A 
ATOM     34  C   UNL     1       0.769   3.432  20.127  0.00  0.00    +0.000 A 
ATOM     35  C   UNL     1       1.684   3.846  19.157  0.00  0.00    +0.000 A 
ENDBRANCH  29  30
ENDBRANCH  14  29
TORSDOF 5
ENDMDL
MODEL 2
REMARK VINA RESULT:      -8.5      0.175      1.167
REMARK  Name = 
REMARK  5 active torsions:
REMARK  status: ('A' for Active; 'I' for Inactive)
REMARK    1  A    between atoms: C_6  and  C_7
REMARK    2  A    between atoms: N_18  and  C_19
REMARK    3  A    between atoms: C_19  and  C_20
REMARK    4  A    between atoms: C_27  and  C_28
REMARK    5  A    between atoms: C_28  and  C_29
REMARK                            x       y       z     vdW  Elec       q    Type
REMARK                         _______ _______ _______ _____ _____    ______ ____
ROOT
ATOM      1  O   UNL     1       2.929   7.038  19.673  0.00  0.00    +0.000 OA
ATOM      2  C   UNL     1       3.105   7.226  18.470  0.00  0.00    +0.000 C 
ATOM      3  N   UNL     1       2.365   8.093  17.712  0.00  0.00    +0.000 N 
ATOM      4  C   UNL     1       1.403   8.873  18.301  0.00  0.00    +0.000 A 
ATOM      5  N   UNL     1       1.224   9.132  19.567  0.00  0.00    +0.000 NA
ATOM      6  C   UNL     1       0.084   9.892  19.757  0.00  0.00    +0.000 A 
ATOM      7  C   UNL     1      -0.563  10.234  18.583  0.00  0.00    +0.000 A 
ATOM      8  S   UNL     1       0.291   9.594  17.228  0.00  0.00    +0.000 S 
ATOM      9  N   UNL     1       4.095   6.519  17.795  0.00  0.00    +0.000 N 
ATOM     10  C   UNL     1       4.501   6.660  16.387  0.00  0.00    +0.000 C 
ATOM     11  C   UNL     1       6.037   6.656  16.201  0.00  0.00    +0.000 C 
ATOM     12  N   UNL     1       6.791   5.620  16.931  0.00  0.00    +0.000 NA
ATOM     13  C   UNL     1       6.320   5.566  18.328  0.00  0.00    +0.000 C 
ATOM     14  C   UNL     1       4.789   5.445  18.548  0.00  0.00    +0.000 C 
ATOM     15  H   UNL     1       2.303   7.984  16.718  0.00  0.00    +0.000 HD
ENDROOT
BRANCH   6  16
ATOM     16  C   UNL     1      -0.331  10.257  21.111  0.00  0.00    +0.000 A 
ATOM     17  C   UNL     1      -0.136   9.338  22.149  0.00  0.00    +0.000 A 
ATOM     18  C   UNL     1      -0.518   9.682  23.434  0.00  0.00    +0.000 A 
ATOM     19  N   UNL     1      -1.081  10.865  23.754  0.00  0.00    +0.000 NA
ATOM     20  C   UNL     1      -1.275  11.734  22.741  0.00  0.00    +0.000 A 
ATOM     21  C   UNL     1      -0.924  11.483  21.422  0.00  0.00    +0.000 A 
ENDBRANCH   6  16
BRANCH  12  22
ATOM     22  C   UNL     1       6.786   4.295  16.310  0.00  0.00    +0.000 C 
BRANCH  22  23
ATOM     23  C   UNL     1       6.849   4.315  14.802  0.00  0.00    +0.000 A 
ATOM     24  C   UNL     1       5.951   3.561  14.034  0.00  0.00    +0.000 A 
ATOM     25  C   UNL     1       6.010   3.605  12.641  0.00  0.00    +0.000 A 
ATOM     26  C   UNL     1       6.964   4.399  12.006  0.00  0.00    +0.000 A 
ATOM     27  C   UNL     1       7.854   5.160  12.760  0.00  0.00    +0.000 A 
ATOM     28  C   UNL     1       7.796   5.121  14.151  0.00  0.00    +0.000 A 
ENDBRANCH  22  23
ENDBRANCH  12  22
BRANCH  14  29
ATOM     29  C   UNL     1       4.124   4.076  18.251  0.00  0.00    +0.000 C 
BRANCH  29  30
ATOM     30  C   UNL     1       3.098   3.579  19.244  0.00  0.00    +0.000 A 
ATOM     31  C   UNL     1       3.472   3.159  20.526  0.00  0.00    +0.000 A 
ATOM     32  C   UNL     1       2.510   2.755  21.453  0.00  0.00    +0.000 A 
ATOM     33  C   UNL     1       1.159   2.788  21.118  0.00  0.00    +0.000 A 
ATOM     34  C   UNL     1       0.767   3.219  19.854  0.00  0.00    +0.000 A 
ATOM     35  C   UNL     1       1.732   3.611  18.924  0.00  0.00    +0.000 A 
ENDBRANCH  29  30
ENDBRANCH  14  29
TORSDOF 5
ENDMDL
MODEL 3
REMARK VINA RESULT:      -8.3      2.487     10.681
REMARK  Name = 
REMARK  5 active torsions:
REMARK  status: ('A' for Active; 'I' for Inactive)
REMARK    1  A    between atoms: C_6  and  C_7
REMARK    2  A    between atoms: N_18  and  C_19
REMARK    3  A    between atoms: C_19  and  C_20
REMARK    4  A    between atoms: C_27  and  C_28
REMARK    5  A    between atoms: C_28  and  C_29
REMARK                            x       y       z     vdW  Elec       q    Type
REMARK                         _______ _______ _______ _____ _____    ______ ____
ROOT
ATOM      1  O   UNL     1       1.373   8.606  18.324  0.00  0.00    +0.000 OA
ATOM      2  C   UNL     1       1.192   8.514  19.536  0.00  0.00    +0.000 C 
ATOM      3  N   UNL     1       1.706   7.512  20.315  0.00  0.00    +0.000 N 
ATOM      4  C   UNL     1       2.536   6.569  19.764  0.00  0.00    +0.000 A 
ATOM      5  N   UNL     1       3.158   6.599  18.618  0.00  0.00    +0.000 NA
ATOM      6  C   UNL     1       3.829   5.411  18.391  0.00  0.00    +0.000 A 
ATOM      7  C   UNL     1       3.725   4.502  19.429  0.00  0.00    +0.000 A 
ATOM      8  S   UNL     1       2.777   5.170  20.707  0.00  0.00    +0.000 S 
ATOM      9  N   UNL     1       0.406   9.455  20.196  0.00  0.00    +0.000 N 
ATOM     10  C   UNL     1       0.139   9.552  21.640  0.00  0.00    +0.000 C 
ATOM     11  C   UNL     1       0.223  11.004  22.170  0.00  0.00    +0.000 C 
ATOM     12  N   UNL     1      -0.459  12.041  21.373  0.00  0.00    +0.000 NA
ATOM     13  C   UNL     1      -0.118  11.864  19.948  0.00  0.00    +0.000 C 
ATOM     14  C   UNL     1      -0.308  10.445  19.352  0.00  0.00    +0.000 C 
ATOM     15  H   UNL     1       1.286   7.276  21.195  0.00  0.00    +0.000 HD
ENDROOT
BRANCH   6  16
ATOM     16  C   UNL     1       4.557   5.213  17.138  0.00  0.00    +0.000 A 
ATOM     17  C   UNL     1       4.949   3.917  16.782  0.00  0.00    +0.000 A 
ATOM     18  C   UNL     1       5.630   3.723  15.592  0.00  0.00    +0.000 A 
ATOM     19  N   UNL     1       5.949   4.721  14.743  0.00  0.00    +0.000 NA
ATOM     20  C   UNL     1       5.576   5.964  15.107  0.00  0.00    +0.000 A 
ATOM     21  C   UNL     1       4.889   6.260  16.276  0.00  0.00    +0.000 A 
ENDBRANCH   6  16
BRANCH  12  22
ATOM     22  C   UNL     1      -1.906  12.128  21.574  0.00  0.00    +0.000 C 
BRANCH  22  23
ATOM     23  C   UNL     1      -2.318  12.926  22.787  0.00  0.00    +0.000 A 
ATOM     24  C   UNL     1      -1.547  14.009  23.232  0.00  0.00    +0.000 A 
ATOM     25  C   UNL     1      -1.951  14.748  24.343  0.00  0.00    +0.000 A 
ATOM     26  C   UNL     1      -3.125  14.413  25.017  0.00  0.00    +0.000 A 
ATOM     27  C   UNL     1      -3.903  13.346  24.576  0.00  0.00    +0.000 A 
ATOM     28  C   UNL     1      -3.504  12.607  23.465  0.00  0.00    +0.000 A 
ENDBRANCH  22  23
ENDBRANCH  12  22
BRANCH  14  29
ATOM     29  C   UNL     1      -1.759   9.963  19.085  0.00  0.00    +0.000 C 
BRANCH  29  30
ATOM     30  C   UNL     1      -2.378  10.346  17.761  0.00  0.00    +0.000 A 
ATOM     31  C   UNL     1      -1.928   9.786  16.559  0.00  0.00    +0.000 A 
ATOM     32  C   UNL     1      -2.546  10.105  15.348  0.00  0.00    +0.000 A 
ATOM     33  C   UNL     1      -3.635  10.971  15.326  0.00  0.00    +0.000 A 
ATOM     34  C   UNL     1      -4.107  11.525  16.513  0.00  0.00    +0.000 A 
ATOM     35  C   UNL     1      -3.481  11.213  17.722  0.00  0.00    +0.000 A 
ENDBRANCH  29  30
ENDBRANCH  14  29
TORSDOF 5
ENDMDL
MODEL 4
REMARK VINA RESULT:      -8.3      2.533     10.694
REMARK  Name = 
REMARK  5 active torsions:
REMARK  status: ('A' for Active; 'I' for Inactive)
REMARK    1  A    between atoms: C_6  and  C_7
REMARK    2  A    between atoms: N_18  and  C_19
REMARK    3  A    between atoms: C_19  and  C_20
REMARK    4  A    between atoms: C_27  and  C_28
REMARK    5  A    between atoms: C_28  and  C_29
REMARK                            x       y       z     vdW  Elec       q    Type
REMARK                         _______ _______ _______ _____ _____    ______ ____
ROOT
ATOM      1  O   UNL     1       1.260   8.718  18.237  0.00  0.00    +0.000 OA
ATOM      2  C   UNL     1       1.077   8.665  19.452  0.00  0.00    +0.000 C 
ATOM      3  N   UNL     1       1.595   7.692  20.264  0.00  0.00    +0.000 N 
ATOM      4  C   UNL     1       2.431   6.736  19.746  0.00  0.00    +0.000 A 
ATOM      5  N   UNL     1       3.055   6.731  18.601  0.00  0.00    +0.000 NA
ATOM      6  C   UNL     1       3.732   5.539  18.414  0.00  0.00    +0.000 A 
ATOM      7  C   UNL     1       3.631   4.665  19.481  0.00  0.00    +0.000 A 
ATOM      8  S   UNL     1       2.678   5.369  20.735  0.00  0.00    +0.000 S 
ATOM      9  N   UNL     1       0.286   9.623  20.078  0.00  0.00    +0.000 N 
ATOM     10  C   UNL     1       0.015   9.767  21.518  0.00  0.00    +0.000 C 
ATOM     11  C   UNL     1       0.090  11.236  22.000  0.00  0.00    +0.000 C 
ATOM     12  N   UNL     1      -0.594  12.242  21.168  0.00  0.00    +0.000 NA
ATOM     13  C   UNL     1      -0.250  12.020  19.750  0.00  0.00    +0.000 C 
ATOM     14  C   UNL     1      -0.432  10.581  19.201  0.00  0.00    +0.000 C 
ATOM     15  H   UNL     1       1.174   7.484  21.150  0.00  0.00    +0.000 HD
ENDROOT
BRANCH   6  16
ATOM     16  C   UNL     1       4.463   5.304  17.170  0.00  0.00    +0.000 A 
ATOM     17  C   UNL     1       4.843   6.403  16.390  0.00  0.00    +0.000 A 
ATOM     18  C   UNL     1       5.543   6.186  15.216  0.00  0.00    +0.000 A 
ATOM     19  N   UNL     1       5.885   4.962  14.766  0.00  0.00    +0.000 NA
ATOM     20  C   UNL     1       5.501   3.913  15.522  0.00  0.00    +0.000 A 
ATOM     21  C   UNL     1       4.799   4.027  16.713  0.00  0.00    +0.000 A 
ENDBRANCH   6  16
BRANCH  12  22
ATOM     22  C   UNL     1      -2.042  12.329  21.363  0.00  0.00    +0.000 C 
BRANCH  22  23
ATOM     23  C   UNL     1      -2.458  13.056  22.619  0.00  0.00    +0.000 A 
ATOM     24  C   UNL     1      -3.483  12.558  23.433  0.00  0.00    +0.000 A 
ATOM     25  C   UNL     1      -3.844  13.232  24.600  0.00  0.00    +0.000 A 
ATOM     26  C   UNL     1      -3.184  14.407  24.961  0.00  0.00    +0.000 A 
ATOM     27  C   UNL     1      -2.156  14.904  24.163  0.00  0.00    +0.000 A 
ATOM     28  C   UNL     1      -1.792  14.232  22.999  0.00  0.00    +0.000 A 
ENDBRANCH  22  23
ENDBRANCH  12  22
BRANCH  14  29
ATOM     29  C   UNL     1      -1.880  10.083  18.948  0.00  0.00    +0.000 C 
BRANCH  29  30
ATOM     30  C   UNL     1      -2.484  10.384  17.596  0.00  0.00    +0.000 A 
ATOM     31  C   UNL     1      -2.045   9.725  16.441  0.00  0.00    +0.000 A 
ATOM     32  C   UNL     1      -2.649   9.970  15.206  0.00  0.00    +0.000 A 
ATOM     33  C   UNL     1      -3.715  10.860  15.114  0.00  0.00    +0.000 A 
ATOM     34  C   UNL     1      -4.177  11.512  16.255  0.00  0.00    +0.000 A 
ATOM     35  C   UNL     1      -3.564  11.274  17.487  0.00  0.00    +0.000 A 
ENDBRANCH  29  30
ENDBRANCH  14  29
TORSDOF 5
ENDMDL
MODEL 5
REMARK VINA RESULT:      -8.2      2.313     10.405
REMARK  Name = 
REMARK  5 active torsions:
REMARK  status: ('A' for Active; 'I' for Inactive)
REMARK    1  A    between atoms: C_6  and  C_7
REMARK    2  A    between atoms: N_18  and  C_19
REMARK    3  A    between atoms: C_19  and  C_20
REMARK    4  A    between atoms: C_27  and  C_28
REMARK    5  A    between atoms: C_28  and  C_29
REMARK                            x       y       z     vdW  Elec       q    Type
REMARK                         _______ _______ _______ _____ _____    ______ ____
ROOT
ATOM      1  O   UNL     1       2.233   7.993  18.244  0.00  0.00    +0.000 OA
ATOM      2  C   UNL     1       2.074   7.754  19.440  0.00  0.00    +0.000 C 
ATOM      3  N   UNL     1       2.614   6.673  20.085  0.00  0.00    +0.000 N 
ATOM      4  C   UNL     1       3.445   5.815  19.412  0.00  0.00    +0.000 A 
ATOM      5  N   UNL     1       4.047   5.990  18.268  0.00  0.00    +0.000 NA
ATOM      6  C   UNL     1       4.727   4.847  17.889  0.00  0.00    +0.000 A 
ATOM      7  C   UNL     1       4.653   3.820  18.813  0.00  0.00    +0.000 A 
ATOM      8  S   UNL     1       3.721   4.316  20.176  0.00  0.00    +0.000 S 
ATOM      9  N   UNL     1       1.289   8.598  20.220  0.00  0.00    +0.000 N 
ATOM     10  C   UNL     1       1.047   8.519  21.669  0.00  0.00    +0.000 C 
ATOM     11  C   UNL     1       1.122   9.898  22.368  0.00  0.00    +0.000 C 
ATOM     12  N   UNL     1       0.415  11.013  21.712  0.00  0.00    +0.000 NA
ATOM     13  C   UNL     1       0.732  11.012  20.270  0.00  0.00    +0.000 C 
ATOM     14  C   UNL     1       0.548   9.671  19.512  0.00  0.00    +0.000 C 
ATOM     15  H   UNL     1       2.213   6.329  20.937  0.00  0.00    +0.000 HD
ENDROOT
BRANCH   6  16
ATOM     16  C   UNL     1       5.435   4.810  16.610  0.00  0.00    +0.000 A 
ATOM     17  C   UNL     1       4.809   4.217  15.507  0.00  0.00    +0.000 A 
ATOM     18  C   UNL     1       5.471   4.188  14.292  0.00  0.00    +0.000 A 
ATOM     19  N   UNL     1       6.704   4.700  14.101  0.00  0.00    +0.000 NA
ATOM     20  C   UNL     1       7.299   5.256  15.176  0.00  0.00    +0.000 A 
ATOM     21  C   UNL     1       6.717   5.335  16.433  0.00  0.00    +0.000 A 
ENDBRANCH   6  16
BRANCH  12  22
ATOM     22  C   UNL     1      -1.029  11.055  21.945  0.00  0.00    +0.000 C 
BRANCH  22  23
ATOM     23  C   UNL     1      -1.501  12.271  22.705  0.00  0.00    +0.000 A 
ATOM     24  C   UNL     1      -0.697  13.413  22.805  0.00  0.00    +0.000 A 
ATOM     25  C   UNL     1      -1.154  14.536  23.496  0.00  0.00    +0.000 A 
ATOM     26  C   UNL     1      -2.416  14.525  24.090  0.00  0.00    +0.000 A 
ATOM     27  C   UNL     1      -3.227  13.398  23.987  0.00  0.00    +0.000 A 
ATOM     28  C   UNL     1      -2.774  12.277  23.296  0.00  0.00    +0.000 A 
ENDBRANCH  22  23
ENDBRANCH  12  22
BRANCH  14  29
ATOM     29  C   UNL     1      -0.901   9.205  19.213  0.00  0.00    +0.000 C 
BRANCH  29  30
ATOM     30  C   UNL     1      -1.695  10.021  18.220  0.00  0.00    +0.000 A 
ATOM     31  C   UNL     1      -1.686   9.714  16.854  0.00  0.00    +0.000 A 
ATOM     32  C   UNL     1      -2.468  10.441  15.954  0.00  0.00    +0.000 A 
ATOM     33  C   UNL     1      -3.287  11.469  16.412  0.00  0.00    +0.000 A 
ATOM     34  C   UNL     1      -3.323  11.778  17.769  0.00  0.00    +0.000 A 
ATOM     35  C   UNL     1      -2.531  11.057  18.666  0.00  0.00    +0.000 A 
ENDBRANCH  29  30
ENDBRANCH  14  29
TORSDOF 5
ENDMDL
MODEL 6
REMARK VINA RESULT:      -8.2      2.313     10.435
REMARK  Name = 
REMARK  5 active torsions:
REMARK  status: ('A' for Active; 'I' for Inactive)
REMARK    1  A    between atoms: C_6  and  C_7
REMARK    2  A    between atoms: N_18  and  C_19
REMARK    3  A    between atoms: C_19  and  C_20
REMARK    4  A    between atoms: C_27  and  C_28
REMARK    5  A    between atoms: C_28  and  C_29
REMARK                            x       y       z     vdW  Elec       q    Type
REMARK                         _______ _______ _______ _____ _____    ______ ____
ROOT
ATOM      1  O   UNL     1       2.211   7.970  18.314  0.00  0.00    +0.000 OA
ATOM      2  C   UNL     1       2.050   7.733  19.510  0.00  0.00    +0.000 C 
ATOM      3  N   UNL     1       2.577   6.646  20.154  0.00  0.00    +0.000 N 
ATOM      4  C   UNL     1       3.398   5.778  19.481  0.00  0.00    +0.000 A 
ATOM      5  N   UNL     1       4.002   5.947  18.337  0.00  0.00    +0.000 NA
ATOM      6  C   UNL     1       4.669   4.796  17.959  0.00  0.00    +0.000 A 
ATOM      7  C   UNL     1       4.583   3.769  18.882  0.00  0.00    +0.000 A 
ATOM      8  S   UNL     1       3.656   4.277  20.246  0.00  0.00    +0.000 S 
ATOM      9  N   UNL     1       1.275   8.587  20.289  0.00  0.00    +0.000 N 
ATOM     10  C   UNL     1       1.032   8.510  21.739  0.00  0.00    +0.000 C 
ATOM     11  C   UNL     1       1.123   9.888  22.437  0.00  0.00    +0.000 C 
ATOM     12  N   UNL     1       0.428  11.011  21.781  0.00  0.00    +0.000 NA
ATOM     13  C   UNL     1       0.745  11.007  20.340  0.00  0.00    +0.000 C 
ATOM     14  C   UNL     1       0.546   9.668  19.582  0.00  0.00    +0.000 C 
ATOM     15  H   UNL     1       2.172   6.306  21.006  0.00  0.00    +0.000 HD
ENDROOT
BRANCH   6  16
ATOM     16  C   UNL     1       5.376   4.751  16.679  0.00  0.00    +0.000 A 
ATOM     17  C   UNL     1       6.712   5.168  16.630  0.00  0.00    +0.000 A 
ATOM     18  C   UNL     1       7.389   5.119  15.424  0.00  0.00    +0.000 A 
ATOM     19  N   UNL     1       6.833   4.691  14.272  0.00  0.00    +0.000 NA
ATOM     20  C   UNL     1       5.542   4.305  14.333  0.00  0.00    +0.000 A 
ATOM     21  C   UNL     1       4.781   4.315  15.494  0.00  0.00    +0.000 A 
ENDBRANCH   6  16
BRANCH  12  22
ATOM     22  C   UNL     1      -1.015  11.070  22.015  0.00  0.00    +0.000 C 
BRANCH  22  23
ATOM     23  C   UNL     1      -1.481  12.324  22.714  0.00  0.00    +0.000 A 
ATOM     24  C   UNL     1      -2.731  12.372  23.347  0.00  0.00    +0.000 A 
ATOM     25  C   UNL     1      -3.140  13.532  24.005  0.00  0.00    +0.000 A 
ATOM     26  C   UNL     1      -2.305  14.650  24.036  0.00  0.00    +0.000 A 
ATOM     27  C   UNL     1      -1.058  14.607  23.420  0.00  0.00    +0.000 A 
ATOM     28  C   UNL     1      -0.645  13.450  22.764  0.00  0.00    +0.000 A 
ENDBRANCH  22  23
ENDBRANCH  12  22
BRANCH  14  29
ATOM     29  C   UNL     1      -0.908   9.218  19.283  0.00  0.00    +0.000 C 
BRANCH  29  30
ATOM     30  C   UNL     1      -1.687  10.033  18.276  0.00  0.00    +0.000 A 
ATOM     31  C   UNL     1      -1.679   9.706  16.915  0.00  0.00    +0.000 A 
ATOM     32  C   UNL     1      -2.448  10.431  16.002  0.00  0.00    +0.000 A 
ATOM     33  C   UNL     1      -3.251  11.479  16.442  0.00  0.00    +0.000 A 
ATOM     34  C   UNL     1      -3.285  11.808  17.795  0.00  0.00    +0.000 A 
ATOM     35  C   UNL     1      -2.507  11.089  18.704  0.00  0.00    +0.000 A 
ENDBRANCH  29  30
ENDBRANCH  14  29
TORSDOF 5
ENDMDL
MODEL 7
REMARK VINA RESULT:      -8.1      2.591     10.711
REMARK  Name = 
REMARK  5 active torsions:
REMARK  status: ('A' for Active; 'I' for Inactive)
REMARK    1  A    between atoms: C_6  and  C_7
REMARK    2  A    between atoms: N_18  and  C_19
REMARK    3  A    between atoms: C_19  and  C_20
REMARK    4  A    between atoms: C_27  and  C_28
REMARK    5  A    between atoms: C_28  and  C_29
REMARK                            x       y       z     vdW  Elec       q    Type
REMARK                         _______ _______ _______ _____ _____    ______ ____
ROOT
ATOM      1  O   UNL     1       1.078   8.892  18.213  0.00  0.00    +0.000 OA
ATOM      2  C   UNL     1       0.916   8.894  19.432  0.00  0.00    +0.000 C 
ATOM      3  N   UNL     1       1.454   7.962  20.280  0.00  0.00    +0.000 N 
ATOM      4  C   UNL     1       2.289   6.989  19.792  0.00  0.00    +0.000 A 
ATOM      5  N   UNL     1       2.894   6.936  18.637  0.00  0.00    +0.000 NA
ATOM      6  C   UNL     1       3.576   5.742  18.494  0.00  0.00    +0.000 A 
ATOM      7  C   UNL     1       3.500   4.917  19.602  0.00  0.00    +0.000 A 
ATOM      8  S   UNL     1       2.562   5.671  20.838  0.00  0.00    +0.000 S 
ATOM      9  N   UNL     1       0.128   9.874  20.028  0.00  0.00    +0.000 N 
ATOM     10  C   UNL     1      -0.119  10.082  21.463  0.00  0.00    +0.000 C 
ATOM     11  C   UNL     1      -0.048  11.572  21.876  0.00  0.00    +0.000 C 
ATOM     12  N   UNL     1      -0.754  12.534  21.011  0.00  0.00    +0.000 NA
ATOM     13  C   UNL     1      -0.432  12.250  19.599  0.00  0.00    +0.000 C 
ATOM     14  C   UNL     1      -0.612  10.786  19.120  0.00  0.00    +0.000 C 
ATOM     15  H   UNL     1       1.050   7.792  21.181  0.00  0.00    +0.000 HD
ENDROOT
BRANCH   6  16
ATOM     16  C   UNL     1       4.289   5.454  17.250  0.00  0.00    +0.000 A 
ATOM     17  C   UNL     1       4.742   6.523  16.467  0.00  0.00    +0.000 A 
ATOM     18  C   UNL     1       5.425   6.257  15.293  0.00  0.00    +0.000 A 
ATOM     19  N   UNL     1       5.682   5.011  14.845  0.00  0.00    +0.000 NA
ATOM     20  C   UNL     1       5.228   3.992  15.604  0.00  0.00    +0.000 A 
ATOM     21  C   UNL     1       4.536   4.157  16.796  0.00  0.00    +0.000 A 
ENDBRANCH   6  16
BRANCH  12  22
ATOM     22  C   UNL     1      -2.199  12.620  21.227  0.00  0.00    +0.000 C 
BRANCH  22  23
ATOM     23  C   UNL     1      -2.595  13.227  22.551  0.00  0.00    +0.000 A 
ATOM     24  C   UNL     1      -2.104  14.479  22.944  0.00  0.00    +0.000 A 
ATOM     25  C   UNL     1      -2.494  15.035  24.162  0.00  0.00    +0.000 A 
ATOM     26  C   UNL     1      -3.375  14.346  24.996  0.00  0.00    +0.000 A 
ATOM     27  C   UNL     1      -3.876  13.105  24.609  0.00  0.00    +0.000 A 
ATOM     28  C   UNL     1      -3.491  12.549  23.392  0.00  0.00    +0.000 A 
ENDBRANCH  22  23
ENDBRANCH  12  22
BRANCH  14  29
ATOM     29  C   UNL     1      -2.060  10.267  18.914  0.00  0.00    +0.000 C 
BRANCH  29  30
ATOM     30  C   UNL     1      -2.638  10.375  17.522  0.00  0.00    +0.000 A 
ATOM     31  C   UNL     1      -3.704  11.238  17.243  0.00  0.00    +0.000 A 
ATOM     32  C   UNL     1      -4.193  11.371  15.941  0.00  0.00    +0.000 A 
ATOM     33  C   UNL     1      -3.607  10.659  14.899  0.00  0.00    +0.000 A 
ATOM     34  C   UNL     1      -2.534   9.809  15.154  0.00  0.00    +0.000 A 
ATOM     35  C   UNL     1      -2.054   9.669  16.458  0.00  0.00    +0.000 A 
ENDBRANCH  29  30
ENDBRANCH  14  29
TORSDOF 5
ENDMDL
MODEL 8
REMARK VINA RESULT:      -8.0      2.589     10.770
REMARK  Name = 
REMARK  5 active torsions:
REMARK  status: ('A' for Active; 'I' for Inactive)
REMARK    1  A    between atoms: C_6  and  C_7
REMARK    2  A    between atoms: N_18  and  C_19
REMARK    3  A    between atoms: C_19  and  C_20
REMARK    4  A    between atoms: C_27  and  C_28
REMARK    5  A    between atoms: C_28  and  C_29
REMARK                            x       y       z     vdW  Elec       q    Type
REMARK                         _______ _______ _______ _____ _____    ______ ____
ROOT
ATOM      1  O   UNL     1       1.116   8.886  18.171  0.00  0.00    +0.000 OA
ATOM      2  C   UNL     1       0.954   8.882  19.390  0.00  0.00    +0.000 C 
ATOM      3  N   UNL     1       1.507   7.957  20.235  0.00  0.00    +0.000 N 
ATOM      4  C   UNL     1       2.357   6.998  19.744  0.00  0.00    +0.000 A 
ATOM      5  N   UNL     1       2.962   6.958  18.589  0.00  0.00    +0.000 NA
ATOM      6  C   UNL     1       3.663   5.775  18.443  0.00  0.00    +0.000 A 
ATOM      7  C   UNL     1       3.600   4.945  19.548  0.00  0.00    +0.000 A 
ATOM      8  S   UNL     1       2.651   5.682  20.786  0.00  0.00    +0.000 S 
ATOM      9  N   UNL     1       0.151   9.849  19.989  0.00  0.00    +0.000 N 
ATOM     10  C   UNL     1      -0.099  10.048  21.425  0.00  0.00    +0.000 C 
ATOM     11  C   UNL     1      -0.050  11.538  21.842  0.00  0.00    +0.000 C 
ATOM     12  N   UNL     1      -0.771  12.492  20.979  0.00  0.00    +0.000 NA
ATOM     13  C   UNL     1      -0.446  12.216  19.567  0.00  0.00    +0.000 C 
ATOM     14  C   UNL     1      -0.603  10.751  19.084  0.00  0.00    +0.000 C 
ATOM     15  H   UNL     1       1.107   7.778  21.136  0.00  0.00    +0.000 HD
ENDROOT
BRANCH   6  16
ATOM     16  C   UNL     1       4.379   5.501  17.197  0.00  0.00    +0.000 A 
ATOM     17  C   UNL     1       4.618   4.171  16.832  0.00  0.00    +0.000 A 
ATOM     18  C   UNL     1       5.287   3.907  15.649  0.00  0.00    +0.000 A 
ATOM     19  N   UNL     1       5.735   4.866  14.814  0.00  0.00    +0.000 NA
ATOM     20  C   UNL     1       5.509   6.143  15.186  0.00  0.00    +0.000 A 
ATOM     21  C   UNL     1       4.846   6.509  16.350  0.00  0.00    +0.000 A 
ENDBRANCH   6  16
BRANCH  12  22
ATOM     22  C   UNL     1      -2.217  12.554  21.196  0.00  0.00    +0.000 C 
BRANCH  22  23
ATOM     23  C   UNL     1      -2.623  13.187  22.506  0.00  0.00    +0.000 A 
ATOM     24  C   UNL     1      -3.445  12.502  23.411  0.00  0.00    +0.000 A 
ATOM     25  C   UNL     1      -3.796  13.092  24.625  0.00  0.00    +0.000 A 
ATOM     26  C   UNL     1      -3.330  14.368  24.943  0.00  0.00    +0.000 A 
ATOM     27  C   UNL     1      -2.505  15.051  24.054  0.00  0.00    +0.000 A 
ATOM     28  C   UNL     1      -2.150  14.464  22.843  0.00  0.00    +0.000 A 
ENDBRANCH  22  23
ENDBRANCH  12  22
BRANCH  14  29
ATOM     29  C   UNL     1      -2.043  10.210  18.877  0.00  0.00    +0.000 C 
BRANCH  29  30
ATOM     30  C   UNL     1      -2.644  10.364  17.500  0.00  0.00    +0.000 A 
ATOM     31  C   UNL     1      -3.703  11.249  17.264  0.00  0.00    +0.000 A 
ATOM     32  C   UNL     1      -4.214  11.424  15.976  0.00  0.00    +0.000 A 
ATOM     33  C   UNL     1      -3.656  10.733  14.904  0.00  0.00    +0.000 A 
ATOM     34  C   UNL     1      -2.592   9.862  15.116  0.00  0.00    +0.000 A 
ATOM     35  C   UNL     1      -2.090   9.679  16.407  0.00  0.00    +0.000 A 
ENDBRANCH  29  30
ENDBRANCH  14  29
TORSDOF 5
ENDMDL
MODEL 9
REMARK VINA RESULT:      -7.9      2.256     10.391
REMARK  Name = 
REMARK  5 active torsions:
REMARK  status: ('A' for Active; 'I' for Inactive)
REMARK    1  A    between atoms: C_6  and  C_7
REMARK    2  A    between atoms: N_18  and  C_19
REMARK    3  A    between atoms: C_19  and  C_20
REMARK    4  A    between atoms: C_27  and  C_28
REMARK    5  A    between atoms: C_28  and  C_29
REMARK                            x       y       z     vdW  Elec       q    Type
REMARK                         _______ _______ _______ _____ _____    ______ ____
ROOT
ATOM      1  O   UNL     1       1.563   8.527  19.071  0.00  0.00    +0.000 OA
ATOM      2  C   UNL     1       1.275   8.126  20.198  0.00  0.00    +0.000 C 
ATOM      3  N   UNL     1       1.645   6.905  20.696  0.00  0.00    +0.000 N 
ATOM      4  C   UNL     1       2.444   6.072  19.954  0.00  0.00    +0.000 A 
ATOM      5  N   UNL     1       3.159   6.353  18.900  0.00  0.00    +0.000 NA
ATOM      6  C   UNL     1       3.754   5.212  18.391  0.00  0.00    +0.000 A 
ATOM      7  C   UNL     1       3.495   4.070  19.127  0.00  0.00    +0.000 A 
ATOM      8  S   UNL     1       2.499   4.453  20.483  0.00  0.00    +0.000 S 
ATOM      9  N   UNL     1       0.512   8.923  21.046  0.00  0.00    +0.000 N 
ATOM     10  C   UNL     1       0.135   8.649  22.441  0.00  0.00    +0.000 C 
ATOM     11  C   UNL     1       0.285   9.887  23.358  0.00  0.00    +0.000 C 
ATOM     12  N   UNL     1      -0.247  11.162  22.842  0.00  0.00    +0.000 NA
ATOM     13  C   UNL     1       0.196  11.348  21.447  0.00  0.00    +0.000 C 
ATOM     14  C   UNL     1      -0.052  10.169  20.470  0.00  0.00    +0.000 C 
ATOM     15  H   UNL     1       1.137   6.481  21.449  0.00  0.00    +0.000 HD
ENDROOT
BRANCH   6  16
ATOM     16  C   UNL     1       4.566   5.293  17.177  0.00  0.00    +0.000 A 
ATOM     17  C   UNL     1       5.100   4.115  16.641  0.00  0.00    +0.000 A 
ATOM     18  C   UNL     1       5.861   4.185  15.487  0.00  0.00    +0.000 A 
ATOM     19  N   UNL     1       6.130   5.337  14.838  0.00  0.00    +0.000 NA
ATOM     20  C   UNL     1       5.620   6.464  15.375  0.00  0.00    +0.000 A 
ATOM     21  C   UNL     1       4.843   6.497  16.525  0.00  0.00    +0.000 A 
ENDBRANCH   6  16
BRANCH  12  22
ATOM     22  C   UNL     1      -1.695  11.330  22.975  0.00  0.00    +0.000 C 
BRANCH  22  23
ATOM     23  C   UNL     1      -2.198  12.704  22.601  0.00  0.00    +0.000 A 
ATOM     24  C   UNL     1      -3.093  12.877  21.536  0.00  0.00    +0.000 A 
ATOM     25  C   UNL     1      -3.563  14.149  21.214  0.00  0.00    +0.000 A 
ATOM     26  C   UNL     1      -3.145  15.257  21.951  0.00  0.00    +0.000 A 
ATOM     27  C   UNL     1      -2.264  15.094  23.018  0.00  0.00    +0.000 A 
ATOM     28  C   UNL     1      -1.795  13.824  23.343  0.00  0.00    +0.000 A 
ENDBRANCH  22  23
ENDBRANCH  12  22
BRANCH  14  29
ATOM     29  C   UNL     1      -1.508   9.920  19.995  0.00  0.00    +0.000 C 
BRANCH  29  30
ATOM     30  C   UNL     1      -1.851  10.330  18.582  0.00  0.00    +0.000 A 
ATOM     31  C   UNL     1      -2.643   9.519  17.761  0.00  0.00    +0.000 A 
ATOM     32  C   UNL     1      -2.999   9.934  16.476  0.00  0.00    +0.000 A 
ATOM     33  C   UNL     1      -2.587  11.177  16.005  0.00  0.00    +0.000 A 
ATOM     34  C   UNL     1      -1.812  12.005  16.812  0.00  0.00    +0.000 A 
ATOM     35  C   UNL     1      -1.447  11.583  18.093  0.00  0.00    +0.000 A 
ENDBRANCH  29  30
ENDBRANCH  14  29
TORSDOF 5
ENDMDL
