MODEL 1
REMARK VINA RESULT:      -8.9      0.000      0.000
REMARK  Name = 
REMARK  7 active torsions:
REMARK  status: ('A' for Active; 'I' for Inactive)
REMARK    1  A    between atoms: C_1  and  C_2
REMARK    2  A    between atoms: N_4  and  C_5
REMARK    3  A    between atoms: C_8  and  C_9
REMARK    4  A    between atoms: C_11  and  C_12
REMARK    5  A    between atoms: C_12  and  N_13
REMARK    6  A    between atoms: C_19  and  C_20
REMARK    7  A    between atoms: N_21  and  C_22
REMARK                            x       y       z     vdW  Elec       q    Type
REMARK                         _______ _______ _______ _____ _____    ______ ____
ROOT
ATOM      1  C   UNL     1       3.246   6.536  18.088  0.00  0.00    +0.000 A 
ATOM      2  C   UNL     1       4.088   6.919  17.055  0.00  0.00    +0.000 A 
ATOM      3  C   UNL     1       4.586   5.769  16.402  0.00  0.00    +0.000 A 
ATOM      4  C   UNL     1       4.103   4.670  17.115  0.00  0.00    +0.000 A 
ATOM      5  C   UNL     1       4.473   3.242  16.880  0.00  0.00    +0.000 C 
ATOM      6  N   UNL     1       3.293   5.129  18.175  0.00  0.00    +0.000 N 
ENDROOT
BRANCH   6   7
ATOM      7  C   UNL     1       2.643   4.331  19.196  0.00  0.00    +0.000 A 
ATOM      8  C   UNL     1       3.306   4.039  20.403  0.00  0.00    +0.000 A 
ATOM      9  C   UNL     1       2.645   3.407  21.463  0.00  0.00    +0.000 A 
ATOM     10  C   UNL     1       1.338   2.986  21.297  0.00  0.00    +0.000 A 
ATOM     11  F   UNL     1       0.701   2.380  22.307  0.00  0.00    +0.000 F 
ATOM     12  C   UNL     1       0.680   3.192  20.092  0.00  0.00    +0.000 A 
ATOM     13  C   UNL     1       1.322   3.880  19.052  0.00  0.00    +0.000 A 
ENDBRANCH   6   7
BRANCH   1  17
ATOM     14  C   UNL     1       0.721   9.139  20.403  0.00  0.00    +0.000 A 
ATOM     15  C   UNL     1       1.044   9.450  19.082  0.00  0.00    +0.000 A 
ATOM     16  C   UNL     1       1.911   8.640  18.343  0.00  0.00    +0.000 A 
ATOM     17  C   UNL     1       2.427   7.460  18.892  0.00  0.00    +0.000 A 
ATOM     18  C   UNL     1       2.138   7.169  20.231  0.00  0.00    +0.000 A 
ATOM     19  C   UNL     1       1.303   8.006  20.984  0.00  0.00    +0.000 A 
BRANCH  14  23
ATOM     20  C   UNL     1      -1.239  10.854  23.126  0.00  0.00    +0.000 C 
ATOM     21  C   UNL     1      -0.058  10.103  22.568  0.00  0.00    +0.000 C 
ATOM     22  O   UNL     1       0.841   9.715  23.305  0.00  0.00    +0.000 OA
ATOM     23  N   UNL     1      -0.143   9.922  21.196  0.00  0.00    +0.000 N 
ATOM     24  H   UNL     1      -0.847  10.457  20.704  0.00  0.00    +0.000 HD
ENDBRANCH  14  23
ENDBRANCH   1  17
BRANCH   3  25
ATOM     25  C   UNL     1       5.528   5.808  15.222  0.00  0.00    +0.000 C 
BRANCH  25  26
ATOM     26  N   UNL     1       6.407   4.629  15.158  0.00  0.00    +0.000 NA
ATOM     27  C   UNL     1       7.759   5.012  14.678  0.00  0.00    +0.000 C 
ATOM     28  C   UNL     1       7.837   5.324  13.168  0.00  0.00    +0.000 C 
ATOM     29  O   UNL     1       7.320   4.254  12.371  0.00  0.00    +0.000 OA
ATOM     30  C   UNL     1       5.990   3.895  12.768  0.00  0.00    +0.000 C 
ATOM     31  C   UNL     1       5.925   3.550  14.264  0.00  0.00    +0.000 C 
ENDBRANCH  25  26
ENDBRANCH   3  25
TORSDOF 5
ENDMDL
MODEL 2
REMARK VINA RESULT:      -8.9      0.762      1.159
REMARK  Name = 
REMARK  7 active torsions:
REMARK  status: ('A' for Active; 'I' for Inactive)
REMARK    1  A    between atoms: C_1  and  C_2
REMARK    2  A    between atoms: N_4  and  C_5
REMARK    3  A    between atoms: C_8  and  C_9
REMARK    4  A    between atoms: C_11  and  C_12
REMARK    5  A    between atoms: C_12  and  N_13
REMARK    6  A    between atoms: C_19  and  C_20
REMARK    7  A    between atoms: N_21  and  C_22
REMARK                            x       y       z     vdW  Elec       q    Type
REMARK                         _______ _______ _______ _____ _____    ______ ____
ROOT
ATOM      1  C   UNL     1       3.124   6.779  18.115  0.00  0.00    +0.000 A 
ATOM      2  C   UNL     1       3.974   7.095  17.067  0.00  0.00    +0.000 A 
ATOM      3  C   UNL     1       4.483   5.907  16.497  0.00  0.00    +0.000 A 
ATOM      4  C   UNL     1       3.998   4.856  17.278  0.00  0.00    +0.000 A 
ATOM      5  C   UNL     1       4.377   3.417  17.143  0.00  0.00    +0.000 C 
ATOM      6  N   UNL     1       3.177   5.380  18.297  0.00  0.00    +0.000 N 
ENDROOT
BRANCH   6   7
ATOM      7  C   UNL     1       2.521   4.649  19.364  0.00  0.00    +0.000 A 
ATOM      8  C   UNL     1       1.283   4.018  19.138  0.00  0.00    +0.000 A 
ATOM      9  C   UNL     1       0.708   3.179  20.098  0.00  0.00    +0.000 A 
ATOM     10  C   UNL     1       1.323   3.027  21.328  0.00  0.00    +0.000 A 
ATOM     11  F   UNL     1       0.777   2.226  22.251  0.00  0.00    +0.000 F 
ATOM     12  C   UNL     1       2.507   3.695  21.609  0.00  0.00    +0.000 A 
ATOM     13  C   UNL     1       3.114   4.487  20.624  0.00  0.00    +0.000 A 
ENDBRANCH   6   7
BRANCH   1  17
ATOM     14  C   UNL     1       0.567   9.514  20.232  0.00  0.00    +0.000 A 
ATOM     15  C   UNL     1       0.862   9.715  18.883  0.00  0.00    +0.000 A 
ATOM     16  C   UNL     1       1.739   8.863  18.205  0.00  0.00    +0.000 A 
ATOM     17  C   UNL     1       2.294   7.749  18.848  0.00  0.00    +0.000 A 
ATOM     18  C   UNL     1       2.031   7.572  20.212  0.00  0.00    +0.000 A 
ATOM     19  C   UNL     1       1.186   8.452  20.902  0.00  0.00    +0.000 A 
BRANCH  14  23
ATOM     20  C   UNL     1      -1.096  12.101  22.411  0.00  0.00    +0.000 C 
ATOM     21  C   UNL     1       0.016  11.561  21.549  0.00  0.00    +0.000 C 
ATOM     22  O   UNL     1       1.068  12.177  21.426  0.00  0.00    +0.000 OA
ATOM     23  N   UNL     1      -0.305  10.344  20.968  0.00  0.00    +0.000 N 
ATOM     24  H   UNL     1      -1.273  10.054  21.013  0.00  0.00    +0.000 HD
ENDBRANCH  14  23
ENDBRANCH   1  17
BRANCH   3  25
ATOM     25  C   UNL     1       5.436   5.871  15.325  0.00  0.00    +0.000 C 
BRANCH  25  26
ATOM     26  N   UNL     1       6.262   4.652  15.302  0.00  0.00    +0.000 NA
ATOM     27  C   UNL     1       7.640   4.965  14.845  0.00  0.00    +0.000 C 
ATOM     28  C   UNL     1       7.764   5.245  13.332  0.00  0.00    +0.000 C 
ATOM     29  O   UNL     1       7.216   4.184  12.543  0.00  0.00    +0.000 OA
ATOM     30  C   UNL     1       5.863   3.893  12.917  0.00  0.00    +0.000 C 
ATOM     31  C   UNL     1       5.751   3.580  14.418  0.00  0.00    +0.000 C 
ENDBRANCH  25  26
ENDBRANCH   3  25
TORSDOF 5
ENDMDL
MODEL 3
REMARK VINA RESULT:      -8.8      0.431      1.308
REMARK  Name = 
REMARK  7 active torsions:
REMARK  status: ('A' for Active; 'I' for Inactive)
REMARK    1  A    between atoms: C_1  and  C_2
REMARK    2  A    between atoms: N_4  and  C_5
REMARK    3  A    between atoms: C_8  and  C_9
REMARK    4  A    between atoms: C_11  and  C_12
REMARK    5  A    between atoms: C_12  and  N_13
REMARK    6  A    between atoms: C_19  and  C_20
REMARK    7  A    between atoms: N_21  and  C_22
REMARK                            x       y       z     vdW  Elec       q    Type
REMARK                         _______ _______ _______ _____ _____    ______ ____
ROOT
ATOM      1  C   UNL     1       3.079   6.761  18.218  0.00  0.00    +0.000 A 
ATOM      2  C   UNL     1       3.936   7.098  17.182  0.00  0.00    +0.000 A 
ATOM      3  C   UNL     1       4.469   5.922  16.609  0.00  0.00    +0.000 A 
ATOM      4  C   UNL     1       3.991   4.858  17.376  0.00  0.00    +0.000 A 
ATOM      5  C   UNL     1       4.393   3.426  17.234  0.00  0.00    +0.000 C 
ATOM      6  N   UNL     1       3.151   5.362  18.390  0.00  0.00    +0.000 N 
ENDROOT
BRANCH   6   7
ATOM      7  C   UNL     1       2.493   4.613  19.442  0.00  0.00    +0.000 A 
ATOM      8  C   UNL     1       1.280   3.944  19.190  0.00  0.00    +0.000 A 
ATOM      9  C   UNL     1       0.709   3.089  20.139  0.00  0.00    +0.000 A 
ATOM     10  C   UNL     1       1.301   2.959  21.383  0.00  0.00    +0.000 A 
ATOM     11  F   UNL     1       0.758   2.143  22.295  0.00  0.00    +0.000 F 
ATOM     12  C   UNL     1       2.456   3.663  21.689  0.00  0.00    +0.000 A 
ATOM     13  C   UNL     1       3.062   4.472  20.716  0.00  0.00    +0.000 A 
ENDBRANCH   6   7
BRANCH   1  17
ATOM     14  C   UNL     1       0.721   9.639  20.377  0.00  0.00    +0.000 A 
ATOM     15  C   UNL     1       1.189   8.485  21.008  0.00  0.00    +0.000 A 
ATOM     16  C   UNL     1       1.906   7.518  20.297  0.00  0.00    +0.000 A 
ATOM     17  C   UNL     1       2.226   7.714  18.948  0.00  0.00    +0.000 A 
ATOM     18  C   UNL     1       1.720   8.851  18.304  0.00  0.00    +0.000 A 
ATOM     19  C   UNL     1       0.964   9.799  19.008  0.00  0.00    +0.000 A 
BRANCH  14  23
ATOM     20  C   UNL     1      -1.204  11.824  22.769  0.00  0.00    +0.000 C 
ATOM     21  C   UNL     1      -0.236  10.728  22.408  0.00  0.00    +0.000 C 
ATOM     22  O   UNL     1       0.256  10.017  23.277  0.00  0.00    +0.000 OA
ATOM     23  N   UNL     1      -0.011  10.644  21.043  0.00  0.00    +0.000 N 
ATOM     24  H   UNL     1      -0.342  11.413  20.474  0.00  0.00    +0.000 HD
ENDBRANCH  14  23
ENDBRANCH   1  17
BRANCH   3  25
ATOM     25  C   UNL     1       5.436   5.910  15.448  0.00  0.00    +0.000 C 
BRANCH  25  26
ATOM     26  N   UNL     1       6.265   4.693  15.412  0.00  0.00    +0.000 NA
ATOM     27  C   UNL     1       7.628   5.005  14.912  0.00  0.00    +0.000 C 
ATOM     28  C   UNL     1       7.706   5.270  13.393  0.00  0.00    +0.000 C 
ATOM     29  O   UNL     1       7.138   4.201  12.631  0.00  0.00    +0.000 OA
ATOM     30  C   UNL     1       5.798   3.909  13.047  0.00  0.00    +0.000 C 
ATOM     31  C   UNL     1       5.731   3.611  14.554  0.00  0.00    +0.000 C 
ENDBRANCH  25  26
ENDBRANCH   3  25
TORSDOF 5
ENDMDL
MODEL 4
REMARK VINA RESULT:      -8.7      1.613      2.371
REMARK  Name = 
REMARK  7 active torsions:
REMARK  status: ('A' for Active; 'I' for Inactive)
REMARK    1  A    between atoms: C_1  and  C_2
REMARK    2  A    between atoms: N_4  and  C_5
REMARK    3  A    between atoms: C_8  and  C_9
REMARK    4  A    between atoms: C_11  and  C_12
REMARK    5  A    between atoms: C_12  and  N_13
REMARK    6  A    between atoms: C_19  and  C_20
REMARK    7  A    between atoms: N_21  and  C_22
REMARK                            x       y       z     vdW  Elec       q    Type
REMARK                         _______ _______ _______ _____ _____    ______ ____
ROOT
ATOM      1  C   UNL     1       2.930   6.796  18.452  0.00  0.00    +0.000 A 
ATOM      2  C   UNL     1       3.786   7.167  17.427  0.00  0.00    +0.000 A 
ATOM      3  C   UNL     1       4.337   6.010  16.831  0.00  0.00    +0.000 A 
ATOM      4  C   UNL     1       3.871   4.924  17.573  0.00  0.00    +0.000 A 
ATOM      5  C   UNL     1       4.292   3.501  17.402  0.00  0.00    +0.000 C 
ATOM      6  N   UNL     1       3.020   5.395  18.595  0.00  0.00    +0.000 N 
ENDROOT
BRANCH   6   7
ATOM      7  C   UNL     1       2.369   4.615  19.629  0.00  0.00    +0.000 A 
ATOM      8  C   UNL     1       1.153   3.956  19.366  0.00  0.00    +0.000 A 
ATOM      9  C   UNL     1       0.588   3.073  20.293  0.00  0.00    +0.000 A 
ATOM     10  C   UNL     1       1.190   2.902  21.526  0.00  0.00    +0.000 A 
ATOM     11  F   UNL     1       0.653   2.060  22.418  0.00  0.00    +0.000 F 
ATOM     12  C   UNL     1       2.350   3.595  21.845  0.00  0.00    +0.000 A 
ATOM     13  C   UNL     1       2.949   4.432  20.893  0.00  0.00    +0.000 A 
ENDBRANCH   6   7
BRANCH   1  17
ATOM     14  C   UNL     1       0.524   9.600  20.655  0.00  0.00    +0.000 A 
ATOM     15  C   UNL     1       1.078   8.487  21.287  0.00  0.00    +0.000 A 
ATOM     16  C   UNL     1       1.811   7.541  20.565  0.00  0.00    +0.000 A 
ATOM     17  C   UNL     1       2.062   7.721  19.200  0.00  0.00    +0.000 A 
ATOM     18  C   UNL     1       1.471   8.816  18.556  0.00  0.00    +0.000 A 
ATOM     19  C   UNL     1       0.699   9.741  19.273  0.00  0.00    +0.000 A 
BRANCH  14  23
ATOM     20  C   UNL     1      -1.437  11.723  23.073  0.00  0.00    +0.000 C 
ATOM     21  C   UNL     1      -0.443  10.655  22.699  0.00  0.00    +0.000 C 
ATOM     22  O   UNL     1       0.076   9.954  23.560  0.00  0.00    +0.000 OA
ATOM     23  N   UNL     1      -0.229  10.583  21.331  0.00  0.00    +0.000 N 
ATOM     24  H   UNL     1      -0.586  11.345  20.769  0.00  0.00    +0.000 HD
ENDBRANCH  14  23
ENDBRANCH   1  17
BRANCH   3  25
ATOM     25  C   UNL     1       5.307   6.036  15.673  0.00  0.00    +0.000 C 
BRANCH  25  26
ATOM     26  N   UNL     1       6.648   6.502  16.066  0.00  0.00    +0.000 NA
ATOM     27  C   UNL     1       7.655   5.432  15.853  0.00  0.00    +0.000 C 
ATOM     28  C   UNL     1       7.599   4.287  16.887  0.00  0.00    +0.000 C 
ATOM     29  O   UNL     1       7.677   4.772  18.231  0.00  0.00    +0.000 OA
ATOM     30  C   UNL     1       6.680   5.768  18.491  0.00  0.00    +0.000 C 
ATOM     31  C   UNL     1       6.762   6.923  17.481  0.00  0.00    +0.000 C 
ENDBRANCH  25  26
ENDBRANCH   3  25
TORSDOF 5
ENDMDL
MODEL 5
REMARK VINA RESULT:      -8.7      1.705      2.261
REMARK  Name = 
REMARK  7 active torsions:
REMARK  status: ('A' for Active; 'I' for Inactive)
REMARK    1  A    between atoms: C_1  and  C_2
REMARK    2  A    between atoms: N_4  and  C_5
REMARK    3  A    between atoms: C_8  and  C_9
REMARK    4  A    between atoms: C_11  and  C_12
REMARK    5  A    between atoms: C_12  and  N_13
REMARK    6  A    between atoms: C_19  and  C_20
REMARK    7  A    between atoms: N_21  and  C_22
REMARK                            x       y       z     vdW  Elec       q    Type
REMARK                         _______ _______ _______ _____ _____    ______ ____
ROOT
ATOM      1  C   UNL     1       2.963   6.842  18.461  0.00  0.00    +0.000 A 
ATOM      2  C   UNL     1       3.815   7.211  17.432  0.00  0.00    +0.000 A 
ATOM      3  C   UNL     1       4.341   6.054  16.817  0.00  0.00    +0.000 A 
ATOM      4  C   UNL     1       3.863   4.966  17.549  0.00  0.00    +0.000 A 
ATOM      5  C   UNL     1       4.259   3.538  17.356  0.00  0.00    +0.000 C 
ATOM      6  N   UNL     1       3.030   5.438  18.585  0.00  0.00    +0.000 N 
ENDROOT
BRANCH   6   7
ATOM      7  C   UNL     1       2.375   4.655  19.614  0.00  0.00    +0.000 A 
ATOM      8  C   UNL     1       1.160   3.996  19.345  0.00  0.00    +0.000 A 
ATOM      9  C   UNL     1       0.592   3.111  20.267  0.00  0.00    +0.000 A 
ATOM     10  C   UNL     1       1.188   2.939  21.504  0.00  0.00    +0.000 A 
ATOM     11  F   UNL     1       0.648   2.094  22.391  0.00  0.00    +0.000 F 
ATOM     12  C   UNL     1       2.346   3.632  21.828  0.00  0.00    +0.000 A 
ATOM     13  C   UNL     1       2.949   4.471  20.881  0.00  0.00    +0.000 A 
ENDBRANCH   6   7
BRANCH   1  17
ATOM     14  C   UNL     1       0.363   9.458  20.676  0.00  0.00    +0.000 A 
ATOM     15  C   UNL     1       0.656   9.713  19.336  0.00  0.00    +0.000 A 
ATOM     16  C   UNL     1       1.546   8.901  18.627  0.00  0.00    +0.000 A 
ATOM     17  C   UNL     1       2.117   7.772  19.228  0.00  0.00    +0.000 A 
ATOM     18  C   UNL     1       1.856   7.540  20.585  0.00  0.00    +0.000 A 
ATOM     19  C   UNL     1       0.997   8.381  21.306  0.00  0.00    +0.000 A 
BRANCH  14  23
ATOM     20  C   UNL     1      -1.357  12.003  22.859  0.00  0.00    +0.000 C 
ATOM     21  C   UNL     1      -0.271  11.516  21.935  0.00  0.00    +0.000 C 
ATOM     22  O   UNL     1       0.707  12.216  21.697  0.00  0.00    +0.000 OA
ATOM     23  N   UNL     1      -0.522  10.246  21.440  0.00  0.00    +0.000 N 
ATOM     24  H   UNL     1      -1.453   9.874  21.579  0.00  0.00    +0.000 HD
ENDBRANCH  14  23
ENDBRANCH   1  17
BRANCH   3  25
ATOM     25  C   UNL     1       5.301   6.078  15.651  0.00  0.00    +0.000 C 
BRANCH  25  26
ATOM     26  N   UNL     1       6.655   6.507  16.039  0.00  0.00    +0.000 NA
ATOM     27  C   UNL     1       7.638   5.423  15.787  0.00  0.00    +0.000 C 
ATOM     28  C   UNL     1       7.571   4.253  16.791  0.00  0.00    +0.000 C 
ATOM     29  O   UNL     1       7.675   4.701  18.146  0.00  0.00    +0.000 OA
ATOM     30  C   UNL     1       6.701   5.709  18.444  0.00  0.00    +0.000 C 
ATOM     31  C   UNL     1       6.795   6.889  17.463  0.00  0.00    +0.000 C 
ENDBRANCH  25  26
ENDBRANCH   3  25
TORSDOF 5
ENDMDL
MODEL 6
REMARK VINA RESULT:      -8.7      0.808      1.190
REMARK  Name = 
REMARK  7 active torsions:
REMARK  status: ('A' for Active; 'I' for Inactive)
REMARK    1  A    between atoms: C_1  and  C_2
REMARK    2  A    between atoms: N_4  and  C_5
REMARK    3  A    between atoms: C_8  and  C_9
REMARK    4  A    between atoms: C_11  and  C_12
REMARK    5  A    between atoms: C_12  and  N_13
REMARK    6  A    between atoms: C_19  and  C_20
REMARK    7  A    between atoms: N_21  and  C_22
REMARK                            x       y       z     vdW  Elec       q    Type
REMARK                         _______ _______ _______ _____ _____    ______ ____
ROOT
ATOM      1  C   UNL     1       3.238   6.650  17.937  0.00  0.00    +0.000 A 
ATOM      2  C   UNL     1       4.102   7.032  16.922  0.00  0.00    +0.000 A 
ATOM      3  C   UNL     1       4.678   5.883  16.336  0.00  0.00    +0.000 A 
ATOM      4  C   UNL     1       4.219   4.791  17.075  0.00  0.00    +0.000 A 
ATOM      5  C   UNL     1       4.664   3.374  16.914  0.00  0.00    +0.000 C 
ATOM      6  N   UNL     1       3.348   5.251  18.084  0.00  0.00    +0.000 N 
ENDROOT
BRANCH   6   7
ATOM      7  C   UNL     1       2.695   4.464  19.111  0.00  0.00    +0.000 A 
ATOM      8  C   UNL     1       3.334   4.229  20.344  0.00  0.00    +0.000 A 
ATOM      9  C   UNL     1       2.665   3.609  21.405  0.00  0.00    +0.000 A 
ATOM     10  C   UNL     1       1.376   3.142  21.218  0.00  0.00    +0.000 A 
ATOM     11  F   UNL     1       0.731   2.546  22.229  0.00  0.00    +0.000 F 
ATOM     12  C   UNL     1       0.745   3.291  19.991  0.00  0.00    +0.000 A 
ATOM     13  C   UNL     1       1.393   3.967  18.948  0.00  0.00    +0.000 A 
ENDBRANCH   6   7
BRANCH   1  17
ATOM     14  C   UNL     1       0.758   9.425  20.094  0.00  0.00    +0.000 A 
ATOM     15  C   UNL     1       1.351   8.344  20.747  0.00  0.00    +0.000 A 
ATOM     16  C   UNL     1       2.109   7.406  20.041  0.00  0.00    +0.000 A 
ATOM     17  C   UNL     1       2.346   7.564  18.670  0.00  0.00    +0.000 A 
ATOM     18  C   UNL     1       1.717   8.626  18.007  0.00  0.00    +0.000 A 
ATOM     19  C   UNL     1       0.921   9.541  18.709  0.00  0.00    +0.000 A 
BRANCH  14  23
ATOM     20  C   UNL     1      -0.621  12.305  22.096  0.00  0.00    +0.000 C 
ATOM     21  C   UNL     1       0.442  11.579  21.313  0.00  0.00    +0.000 C 
ATOM     22  O   UNL     1       1.576  12.036  21.227  0.00  0.00    +0.000 OA
ATOM     23  N   UNL     1      -0.021  10.398  20.755  0.00  0.00    +0.000 N 
ATOM     24  H   UNL     1      -1.022  10.250  20.757  0.00  0.00    +0.000 HD
ENDBRANCH  14  23
ENDBRANCH   1  17
BRANCH   3  25
ATOM     25  C   UNL     1       5.664   5.920  15.192  0.00  0.00    +0.000 C 
BRANCH  25  26
ATOM     26  N   UNL     1       6.486   4.701  15.110  0.00  0.00    +0.000 NA
ATOM     27  C   UNL     1       7.840   5.019  14.588  0.00  0.00    +0.000 C 
ATOM     28  C   UNL     1       7.887   5.319  13.075  0.00  0.00    +0.000 C 
ATOM     29  O   UNL     1       7.298   4.269  12.301  0.00  0.00    +0.000 OA
ATOM     30  C   UNL     1       5.966   3.973  12.739  0.00  0.00    +0.000 C 
ATOM     31  C   UNL     1       5.929   3.641  14.239  0.00  0.00    +0.000 C 
ENDBRANCH  25  26
ENDBRANCH   3  25
TORSDOF 5
ENDMDL
MODEL 7
REMARK VINA RESULT:      -8.5      1.197      1.719
REMARK  Name = 
REMARK  7 active torsions:
REMARK  status: ('A' for Active; 'I' for Inactive)
REMARK    1  A    between atoms: C_1  and  C_2
REMARK    2  A    between atoms: N_4  and  C_5
REMARK    3  A    between atoms: C_8  and  C_9
REMARK    4  A    between atoms: C_11  and  C_12
REMARK    5  A    between atoms: C_12  and  N_13
REMARK    6  A    between atoms: C_19  and  C_20
REMARK    7  A    between atoms: N_21  and  C_22
REMARK                            x       y       z     vdW  Elec       q    Type
REMARK                         _______ _______ _______ _____ _____    ______ ____
ROOT
ATOM      1  C   UNL     1       3.146   6.821  18.024  0.00  0.00    +0.000 A 
ATOM      2  C   UNL     1       4.007   7.131  16.983  0.00  0.00    +0.000 A 
ATOM      3  C   UNL     1       4.531   5.940  16.434  0.00  0.00    +0.000 A 
ATOM      4  C   UNL     1       4.043   4.895  17.220  0.00  0.00    +0.000 A 
ATOM      5  C   UNL     1       4.433   3.457  17.107  0.00  0.00    +0.000 C 
ATOM      6  N   UNL     1       3.205   5.426  18.223  0.00  0.00    +0.000 N 
ENDROOT
BRANCH   6   7
ATOM      7  C   UNL     1       2.540   4.703  19.289  0.00  0.00    +0.000 A 
ATOM      8  C   UNL     1       1.336   4.016  19.041  0.00  0.00    +0.000 A 
ATOM      9  C   UNL     1       0.759   3.185  20.008  0.00  0.00    +0.000 A 
ATOM     10  C   UNL     1       1.336   3.096  21.262  0.00  0.00    +0.000 A 
ATOM     11  F   UNL     1       0.788   2.303  22.192  0.00  0.00    +0.000 F 
ATOM     12  C   UNL     1       2.482   3.819  21.562  0.00  0.00    +0.000 A 
ATOM     13  C   UNL     1       3.093   4.604  20.574  0.00  0.00    +0.000 A 
ENDBRANCH   6   7
BRANCH   1  17
ATOM     14  C   UNL     1       0.809   9.757  20.129  0.00  0.00    +0.000 A 
ATOM     15  C   UNL     1       1.234   8.592  20.769  0.00  0.00    +0.000 A 
ATOM     16  C   UNL     1       1.943   7.608  20.075  0.00  0.00    +0.000 A 
ATOM     17  C   UNL     1       2.299   7.795  18.734  0.00  0.00    +0.000 A 
ATOM     18  C   UNL     1       1.837   8.944  18.079  0.00  0.00    +0.000 A 
ATOM     19  C   UNL     1       1.089   9.911  18.766  0.00  0.00    +0.000 A 
BRANCH  14  23
ATOM     20  C   UNL     1      -1.485  12.563  21.162  0.00  0.00    +0.000 C 
ATOM     21  C   UNL     1      -1.071  11.387  20.315  0.00  0.00    +0.000 C 
ATOM     22  O   UNL     1      -1.727  11.061  19.333  0.00  0.00    +0.000 OA
ATOM     23  N   UNL     1       0.087  10.780  20.777  0.00  0.00    +0.000 N 
ATOM     24  H   UNL     1       0.408  11.045  21.700  0.00  0.00    +0.000 HD
ENDBRANCH  14  23
ENDBRANCH   1  17
BRANCH   3  25
ATOM     25  C   UNL     1       5.499   5.897  15.275  0.00  0.00    +0.000 C 
BRANCH  25  26
ATOM     26  N   UNL     1       6.290   4.656  15.241  0.00  0.00    +0.000 NA
ATOM     27  C   UNL     1       7.665   4.927  14.748  0.00  0.00    +0.000 C 
ATOM     28  C   UNL     1       7.758   5.191  13.230  0.00  0.00    +0.000 C 
ATOM     29  O   UNL     1       7.162   4.139  12.464  0.00  0.00    +0.000 OA
ATOM     30  C   UNL     1       5.812   3.888  12.874  0.00  0.00    +0.000 C 
ATOM     31  C   UNL     1       5.728   3.591  14.380  0.00  0.00    +0.000 C 
ENDBRANCH  25  26
ENDBRANCH   3  25
TORSDOF 5
ENDMDL
MODEL 8
REMARK VINA RESULT:      -8.3      4.286     10.384
REMARK  Name = 
REMARK  7 active torsions:
REMARK  status: ('A' for Active; 'I' for Inactive)
REMARK    1  A    between atoms: C_1  and  C_2
REMARK    2  A    between atoms: N_4  and  C_5
REMARK    3  A    between atoms: C_8  and  C_9
REMARK    4  A    between atoms: C_11  and  C_12
REMARK    5  A    between atoms: C_12  and  N_13
REMARK    6  A    between atoms: C_19  and  C_20
REMARK    7  A    between atoms: N_21  and  C_22
REMARK                            x       y       z     vdW  Elec       q    Type
REMARK                         _______ _______ _______ _____ _____    ______ ____
ROOT
ATOM      1  C   UNL     1      -0.314  10.825  20.225  0.00  0.00    +0.000 A 
ATOM      2  C   UNL     1      -0.091  11.515  21.407  0.00  0.00    +0.000 A 
ATOM      3  C   UNL     1      -1.203  12.338  21.690  0.00  0.00    +0.000 A 
ATOM      4  C   UNL     1      -2.076  12.208  20.608  0.00  0.00    +0.000 A 
ATOM      5  C   UNL     1      -3.329  12.993  20.394  0.00  0.00    +0.000 C 
ATOM      6  N   UNL     1      -1.529  11.295  19.682  0.00  0.00    +0.000 N 
ENDROOT
BRANCH   6   7
ATOM      7  C   UNL     1      -2.074  10.914  18.394  0.00  0.00    +0.000 A 
ATOM      8  C   UNL     1      -2.831   9.734  18.262  0.00  0.00    +0.000 A 
ATOM      9  C   UNL     1      -3.497   9.426  17.070  0.00  0.00    +0.000 A 
ATOM     10  C   UNL     1      -3.345  10.253  15.971  0.00  0.00    +0.000 A 
ATOM     11  F   UNL     1      -3.979   9.962  14.828  0.00  0.00    +0.000 F 
ATOM     12  C   UNL     1      -2.545  11.384  16.047  0.00  0.00    +0.000 A 
ATOM     13  C   UNL     1      -1.927  11.724  17.259  0.00  0.00    +0.000 A 
ENDBRANCH   6   7
BRANCH   1  17
ATOM     14  C   UNL     1       2.362   7.807  18.729  0.00  0.00    +0.000 A 
ATOM     15  C   UNL     1       1.880   8.812  17.888  0.00  0.00    +0.000 A 
ATOM     16  C   UNL     1       0.964   9.760  18.353  0.00  0.00    +0.000 A 
ATOM     17  C   UNL     1       0.557   9.764  19.693  0.00  0.00    +0.000 A 
ATOM     18  C   UNL     1       1.007   8.731  20.526  0.00  0.00    +0.000 A 
ATOM     19  C   UNL     1       1.891   7.755  20.046  0.00  0.00    +0.000 A 
BRANCH  14  23
ATOM     20  C   UNL     1       4.215   4.677  17.743  0.00  0.00    +0.000 C 
ATOM     21  C   UNL     1       2.981   5.513  17.968  0.00  0.00    +0.000 C 
ATOM     22  O   UNL     1       1.864   5.023  17.852  0.00  0.00    +0.000 OA
ATOM     23  N   UNL     1       3.281   6.822  18.312  0.00  0.00    +0.000 N 
ATOM     24  H   UNL     1       4.239   7.123  18.187  0.00  0.00    +0.000 HD
ENDBRANCH  14  23
ENDBRANCH   1  17
BRANCH   3  25
ATOM     25  C   UNL     1      -1.309  13.228  22.906  0.00  0.00    +0.000 C 
BRANCH  25  26
ATOM     26  N   UNL     1      -0.337  14.334  22.888  0.00  0.00    +0.000 NA
ATOM     27  C   UNL     1      -0.609  15.285  23.996  0.00  0.00    +0.000 C 
ATOM     28  C   UNL     1      -1.845  16.183  23.778  0.00  0.00    +0.000 C 
ATOM     29  O   UNL     1      -1.785  16.887  22.533  0.00  0.00    +0.000 OA
ATOM     30  C   UNL     1      -1.581  15.993  21.431  0.00  0.00    +0.000 C 
ATOM     31  C   UNL     1      -0.329  15.125  21.636  0.00  0.00    +0.000 C 
ENDBRANCH  25  26
ENDBRANCH   3  25
TORSDOF 5
ENDMDL
MODEL 9
REMARK VINA RESULT:      -8.3      5.123     10.188
REMARK  Name = 
REMARK  7 active torsions:
REMARK  status: ('A' for Active; 'I' for Inactive)
REMARK    1  A    between atoms: C_1  and  C_2
REMARK    2  A    between atoms: N_4  and  C_5
REMARK    3  A    between atoms: C_8  and  C_9
REMARK    4  A    between atoms: C_11  and  C_12
REMARK    5  A    between atoms: C_12  and  N_13
REMARK    6  A    between atoms: C_19  and  C_20
REMARK    7  A    between atoms: N_21  and  C_22
REMARK                            x       y       z     vdW  Elec       q    Type
REMARK                         _______ _______ _______ _____ _____    ______ ____
ROOT
ATOM      1  C   UNL     1      -0.263  10.798  19.204  0.00  0.00    +0.000 A 
ATOM      2  C   UNL     1      -1.637  10.614  19.179  0.00  0.00    +0.000 A 
ATOM      3  C   UNL     1      -2.282  11.870  19.159  0.00  0.00    +0.000 A 
ATOM      4  C   UNL     1      -1.275  12.832  19.264  0.00  0.00    +0.000 A 
ATOM      5  C   UNL     1      -1.482  14.304  19.419  0.00  0.00    +0.000 C 
ATOM      6  N   UNL     1      -0.023  12.184  19.318  0.00  0.00    +0.000 N 
ENDROOT
BRANCH   6   7
ATOM      7  C   UNL     1       1.279  12.797  19.489  0.00  0.00    +0.000 A 
ATOM      8  C   UNL     1       2.041  13.176  18.367  0.00  0.00    +0.000 A 
ATOM      9  C   UNL     1       3.225  13.908  18.504  0.00  0.00    +0.000 A 
ATOM     10  C   UNL     1       3.704  14.199  19.769  0.00  0.00    +0.000 A 
ATOM     11  F   UNL     1       4.838  14.899  19.906  0.00  0.00    +0.000 F 
ATOM     12  C   UNL     1       3.015  13.776  20.896  0.00  0.00    +0.000 A 
ATOM     13  C   UNL     1       1.797  13.095  20.758  0.00  0.00    +0.000 A 
ENDBRANCH   6   7
BRANCH   1  17
ATOM     14  C   UNL     1       2.528   7.553  18.779  0.00  0.00    +0.000 A 
ATOM     15  C   UNL     1       1.931   7.822  20.011  0.00  0.00    +0.000 A 
ATOM     16  C   UNL     1       1.069   8.911  20.170  0.00  0.00    +0.000 A 
ATOM     17  C   UNL     1       0.733   9.721  19.079  0.00  0.00    +0.000 A 
ATOM     18  C   UNL     1       1.363   9.477  17.852  0.00  0.00    +0.000 A 
ATOM     19  C   UNL     1       2.262   8.411  17.705  0.00  0.00    +0.000 A 
BRANCH  14  23
ATOM     20  C   UNL     1       4.406   4.286  18.707  0.00  0.00    +0.000 C 
ATOM     21  C   UNL     1       3.192   5.152  18.923  0.00  0.00    +0.000 C 
ATOM     22  O   UNL     1       2.158   4.677  19.380  0.00  0.00    +0.000 OA
ATOM     23  N   UNL     1       3.409   6.473  18.562  0.00  0.00    +0.000 N 
ATOM     24  H   UNL     1       4.246   6.672  18.031  0.00  0.00    +0.000 HD
ENDBRANCH  14  23
ENDBRANCH   1  17
BRANCH   3  25
ATOM     25  C   UNL     1      -3.781  12.052  19.121  0.00  0.00    +0.000 C 
BRANCH  25  26
ATOM     26  N   UNL     1      -4.439  11.143  18.167  0.00  0.00    +0.000 NA
ATOM     27  C   UNL     1      -4.828  11.875  16.934  0.00  0.00    +0.000 C 
ATOM     28  C   UNL     1      -6.047  12.807  17.101  0.00  0.00    +0.000 C 
ATOM     29  O   UNL     1      -7.180  12.117  17.639  0.00  0.00    +0.000 OA
ATOM     30  C   UNL     1      -6.857  11.445  18.862  0.00  0.00    +0.000 C 
ATOM     31  C   UNL     1      -5.665  10.492  18.683  0.00  0.00    +0.000 C 
ENDBRANCH  25  26
ENDBRANCH   3  25
TORSDOF 5
ENDMDL
