MODEL 1
REMARK VINA RESULT:      -9.2      0.000      0.000
REMARK  Name = 
REMARK  11 active torsions:
REMARK  status: ('A' for Active; 'I' for Inactive)
REMARK    1  A    between atoms: C_1  and  O_2
REMARK    2  A    between atoms: O_2  and  C_3
REMARK    3  A    between atoms: C_9  and  O_10
REMARK    4  A    between atoms: O_10  and  C_11
REMARK    5  A    between atoms: C_11  and  C_12
REMARK    6  A    between atoms: N_14  and  S_15
REMARK    7  A    between atoms: S_15  and  C_18
REMARK    8  A    between atoms: C_21  and  O_22
REMARK    9  A    between atoms: O_22  and  C_23
REMARK   10  A    between atoms: C_24  and  O_25
REMARK   11  A    between atoms: O_25  and  C_26
REMARK                            x       y       z     vdW  Elec       q    Type
REMARK                         _______ _______ _______ _____ _____    ______ ____
ROOT
ATOM      1  C   UNL     1       7.700   7.358  17.805  0.00  0.00    +0.000 C 
ATOM      2  O   UNL     1       7.900   6.562  18.716  0.00  0.00    +0.000 OA
ATOM      3  N   UNL     1       7.128   6.973  16.582  0.00  0.00    +0.000 N 
ATOM      4  H   UNL     1       6.898   7.651  15.862  0.00  0.00    +0.000 HD
ENDROOT
BRANCH   3   5
ATOM      5  S   UNL     1       6.761   5.409  16.165  0.00  0.00    +0.000 S 
ATOM      6  O   UNL     1       6.571   5.430  14.728  0.00  0.00    +0.000 OA
ATOM      7  O   UNL     1       7.734   4.528  16.770  0.00  0.00    +0.000 OA
BRANCH   5   8
ATOM      8  C   UNL     1       5.167   5.127  16.890  0.00  0.00    +0.000 A 
ATOM      9  C   UNL     1       4.451   6.184  17.442  0.00  0.00    +0.000 A 
ATOM     10  C   UNL     1       3.217   5.925  18.033  0.00  0.00    +0.000 A 
ATOM     11  C   UNL     1       2.691   4.622  18.087  0.00  0.00    +0.000 A 
ATOM     12  C   UNL     1       3.427   3.553  17.538  0.00  0.00    +0.000 A 
ATOM     13  C   UNL     1       4.667   3.820  16.939  0.00  0.00    +0.000 A 
BRANCH  11  14
ATOM     14  O   UNL     1       1.467   4.588  18.706  0.00  0.00    +0.000 OA
ATOM     15  C   UNL     1       1.399   4.292  20.092  0.00  0.00    +0.000 C 
ENDBRANCH  11  14
BRANCH  12  16
ATOM     16  O   UNL     1       2.907   2.289  17.630  0.00  0.00    +0.000 OA
ATOM     17  C   UNL     1       3.537   1.356  18.495  0.00  0.00    +0.000 C 
ENDBRANCH  12  16
ENDBRANCH   5   8
ENDBRANCH   3   5
BRANCH   1  18
ATOM     18  C   UNL     1       8.037   8.839  17.933  0.00  0.00    +0.000 C 
BRANCH  18  19
ATOM     19  O   UNL     1       8.836   9.047  19.093  0.00  0.00    +0.000 OA
BRANCH  19  26
ATOM     20  C   UNL     1      11.052  14.660  17.831  0.00  0.00    +0.000 A 
ATOM     21  C   UNL     1      11.204  15.038  19.162  0.00  0.00    +0.000 A 
ATOM     22  C   UNL     1      10.870  14.144  20.185  0.00  0.00    +0.000 A 
ATOM     23  C   UNL     1      10.378  12.862  19.890  0.00  0.00    +0.000 A 
ATOM     24  C   UNL     1      10.041  11.954  20.906  0.00  0.00    +0.000 A 
ATOM     25  C   UNL     1       9.538  10.687  20.592  0.00  0.00    +0.000 A 
ATOM     26  C   UNL     1       9.364  10.301  19.262  0.00  0.00    +0.000 A 
ATOM     27  C   UNL     1       9.712  11.192  18.244  0.00  0.00    +0.000 A 
ATOM     28  C   UNL     1      10.215  12.475  18.544  0.00  0.00    +0.000 A 
ATOM     29  C   UNL     1      10.551  13.390  17.530  0.00  0.00    +0.000 A 
BRANCH  20  31
ATOM     30  C   UNL     1      10.597  16.674  16.674  0.00  0.00    +0.000 C 
ATOM     31  O   UNL     1      11.320  15.450  16.747  0.00  0.00    +0.000 OA
ENDBRANCH  20  31
ENDBRANCH  19  26
ENDBRANCH  18  19
ENDBRANCH   1  18
TORSDOF 8
ENDMDL
MODEL 2
REMARK VINA RESULT:      -8.9      0.950      1.757
REMARK  Name = 
REMARK  11 active torsions:
REMARK  status: ('A' for Active; 'I' for Inactive)
REMARK    1  A    between atoms: C_1  and  O_2
REMARK    2  A    between atoms: O_2  and  C_3
REMARK    3  A    between atoms: C_9  and  O_10
REMARK    4  A    between atoms: O_10  and  C_11
REMARK    5  A    between atoms: C_11  and  C_12
REMARK    6  A    between atoms: N_14  and  S_15
REMARK    7  A    between atoms: S_15  and  C_18
REMARK    8  A    between atoms: C_21  and  O_22
REMARK    9  A    between atoms: O_22  and  C_23
REMARK   10  A    between atoms: C_24  and  O_25
REMARK   11  A    between atoms: O_25  and  C_26
REMARK                            x       y       z     vdW  Elec       q    Type
REMARK                         _______ _______ _______ _____ _____    ______ ____
ROOT
ATOM      1  C   UNL     1       7.757   7.428  17.831  0.00  0.00    +0.000 C 
ATOM      2  O   UNL     1       7.907   6.671  18.783  0.00  0.00    +0.000 OA
ATOM      3  N   UNL     1       7.176   7.012  16.622  0.00  0.00    +0.000 N 
ATOM      4  H   UNL     1       6.989   7.664  15.867  0.00  0.00    +0.000 HD
ENDROOT
BRANCH   3   5
ATOM      5  S   UNL     1       6.729   5.450  16.281  0.00  0.00    +0.000 S 
ATOM      6  O   UNL     1       6.160   5.498  14.949  0.00  0.00    +0.000 OA
ATOM      7  O   UNL     1       7.839   4.576  16.581  0.00  0.00    +0.000 OA
BRANCH   5   8
ATOM      8  C   UNL     1       5.392   5.125  17.399  0.00  0.00    +0.000 A 
ATOM      9  C   UNL     1       5.372   3.954  18.147  0.00  0.00    +0.000 A 
ATOM     10  C   UNL     1       4.292   3.712  18.992  0.00  0.00    +0.000 A 
ATOM     11  C   UNL     1       3.225   4.622  19.093  0.00  0.00    +0.000 A 
ATOM     12  C   UNL     1       3.243   5.801  18.322  0.00  0.00    +0.000 A 
ATOM     13  C   UNL     1       4.336   6.043  17.477  0.00  0.00    +0.000 A 
BRANCH  11  14
ATOM     14  O   UNL     1       2.269   4.195  19.981  0.00  0.00    +0.000 OA
ATOM     15  C   UNL     1       1.184   3.414  19.508  0.00  0.00    +0.000 C 
ENDBRANCH  11  14
BRANCH  12  16
ATOM     16  O   UNL     1       2.178   6.657  18.416  0.00  0.00    +0.000 OA
ATOM     17  C   UNL     1       2.162   7.608  19.472  0.00  0.00    +0.000 C 
ENDBRANCH  12  16
ENDBRANCH   5   8
ENDBRANCH   3   5
BRANCH   1  18
ATOM     18  C   UNL     1       8.172   8.894  17.887  0.00  0.00    +0.000 C 
BRANCH  18  19
ATOM     19  O   UNL     1       8.992   9.113  19.030  0.00  0.00    +0.000 OA
BRANCH  19  26
ATOM     20  C   UNL     1      10.970  14.835  17.869  0.00  0.00    +0.000 A 
ATOM     21  C   UNL     1      11.069  15.209  19.207  0.00  0.00    +0.000 A 
ATOM     22  C   UNL     1      10.751  14.291  20.213  0.00  0.00    +0.000 A 
ATOM     23  C   UNL     1      10.329  12.989  19.896  0.00  0.00    +0.000 A 
ATOM     24  C   UNL     1      10.010  12.057  20.896  0.00  0.00    +0.000 A 
ATOM     25  C   UNL     1       9.575  10.771  20.559  0.00  0.00    +0.000 A 
ATOM     26  C   UNL     1       9.455  10.389  19.223  0.00  0.00    +0.000 A 
ATOM     27  C   UNL     1       9.786  11.304  18.221  0.00  0.00    +0.000 A 
ATOM     28  C   UNL     1      10.219  12.607  18.543  0.00  0.00    +0.000 A 
ATOM     29  C   UNL     1      10.537  13.546  17.546  0.00  0.00    +0.000 A 
BRANCH  20  31
ATOM     30  C   UNL     1      10.879  17.017  16.957  0.00  0.00    +0.000 C 
ATOM     31  O   UNL     1      11.228  15.647  16.798  0.00  0.00    +0.000 OA
ENDBRANCH  20  31
ENDBRANCH  19  26
ENDBRANCH  18  19
ENDBRANCH   1  18
TORSDOF 8
ENDMDL
MODEL 3
REMARK VINA RESULT:      -8.7      1.423      2.108
REMARK  Name = 
REMARK  11 active torsions:
REMARK  status: ('A' for Active; 'I' for Inactive)
REMARK    1  A    between atoms: C_1  and  O_2
REMARK    2  A    between atoms: O_2  and  C_3
REMARK    3  A    between atoms: C_9  and  O_10
REMARK    4  A    between atoms: O_10  and  C_11
REMARK    5  A    between atoms: C_11  and  C_12
REMARK    6  A    between atoms: N_14  and  S_15
REMARK    7  A    between atoms: S_15  and  C_18
REMARK    8  A    between atoms: C_21  and  O_22
REMARK    9  A    between atoms: O_22  and  C_23
REMARK   10  A    between atoms: C_24  and  O_25
REMARK   11  A    between atoms: O_25  and  C_26
REMARK                            x       y       z     vdW  Elec       q    Type
REMARK                         _______ _______ _______ _____ _____    ______ ____
ROOT
ATOM      1  C   UNL     1       7.793   7.396  17.862  0.00  0.00    +0.000 C 
ATOM      2  O   UNL     1       7.999   6.624  18.792  0.00  0.00    +0.000 OA
ATOM      3  N   UNL     1       7.253   6.970  16.637  0.00  0.00    +0.000 N 
ATOM      4  H   UNL     1       7.016   7.627  15.900  0.00  0.00    +0.000 HD
ENDROOT
BRANCH   3   5
ATOM      5  S   UNL     1       6.935   5.388  16.247  0.00  0.00    +0.000 S 
ATOM      6  O   UNL     1       6.809   5.368  14.803  0.00  0.00    +0.000 OA
ATOM      7  O   UNL     1       7.897   4.544  16.918  0.00  0.00    +0.000 OA
BRANCH   5   8
ATOM      8  C   UNL     1       5.316   5.093  16.907  0.00  0.00    +0.000 A 
ATOM      9  C   UNL     1       4.571   6.142  17.433  0.00  0.00    +0.000 A 
ATOM     10  C   UNL     1       3.316   5.873  17.974  0.00  0.00    +0.000 A 
ATOM     11  C   UNL     1       2.799   4.566  18.004  0.00  0.00    +0.000 A 
ATOM     12  C   UNL     1       3.564   3.504  17.483  0.00  0.00    +0.000 A 
ATOM     13  C   UNL     1       4.825   3.782  16.934  0.00  0.00    +0.000 A 
BRANCH  11  14
ATOM     14  O   UNL     1       1.551   4.521  18.575  0.00  0.00    +0.000 OA
ATOM     15  C   UNL     1       1.437   4.381  19.982  0.00  0.00    +0.000 C 
ENDBRANCH  11  14
BRANCH  12  16
ATOM     16  O   UNL     1       3.050   2.236  17.552  0.00  0.00    +0.000 OA
ATOM     17  C   UNL     1       3.575   1.342  18.522  0.00  0.00    +0.000 C 
ENDBRANCH  12  16
ENDBRANCH   5   8
ENDBRANCH   3   5
BRANCH   1  18
ATOM     18  C   UNL     1       8.088   8.888  17.964  0.00  0.00    +0.000 C 
BRANCH  18  19
ATOM     19  O   UNL     1       9.009   9.119  19.024  0.00  0.00    +0.000 OA
BRANCH  19  26
ATOM     20  C   UNL     1      10.265  14.589  21.575  0.00  0.00    +0.000 A 
ATOM     21  C   UNL     1      10.957  15.086  20.475  0.00  0.00    +0.000 A 
ATOM     22  C   UNL     1      11.098  14.301  19.325  0.00  0.00    +0.000 A 
ATOM     23  C   UNL     1      10.550  13.009  19.262  0.00  0.00    +0.000 A 
ATOM     24  C   UNL     1      10.681  12.212  18.115  0.00  0.00    +0.000 A 
ATOM     25  C   UNL     1      10.143  10.921  18.078  0.00  0.00    +0.000 A 
ATOM     26  C   UNL     1       9.461  10.404  19.180  0.00  0.00    +0.000 A 
ATOM     27  C   UNL     1       9.312  11.196  20.320  0.00  0.00    +0.000 A 
ATOM     28  C   UNL     1       9.854  12.496  20.377  0.00  0.00    +0.000 A 
ATOM     29  C   UNL     1       9.729  13.299  21.525  0.00  0.00    +0.000 A 
BRANCH  20  31
ATOM     30  C   UNL     1       9.354  16.468  22.688  0.00  0.00    +0.000 C 
ATOM     31  O   UNL     1      10.082  15.247  22.761  0.00  0.00    +0.000 OA
ENDBRANCH  20  31
ENDBRANCH  19  26
ENDBRANCH  18  19
ENDBRANCH   1  18
TORSDOF 8
ENDMDL
MODEL 4
REMARK VINA RESULT:      -8.5      1.493      2.507
REMARK  Name = 
REMARK  11 active torsions:
REMARK  status: ('A' for Active; 'I' for Inactive)
REMARK    1  A    between atoms: C_1  and  O_2
REMARK    2  A    between atoms: O_2  and  C_3
REMARK    3  A    between atoms: C_9  and  O_10
REMARK    4  A    between atoms: O_10  and  C_11
REMARK    5  A    between atoms: C_11  and  C_12
REMARK    6  A    between atoms: N_14  and  S_15
REMARK    7  A    between atoms: S_15  and  C_18
REMARK    8  A    between atoms: C_21  and  O_22
REMARK    9  A    between atoms: O_22  and  C_23
REMARK   10  A    between atoms: C_24  and  O_25
REMARK   11  A    between atoms: O_25  and  C_26
REMARK                            x       y       z     vdW  Elec       q    Type
REMARK                         _______ _______ _______ _____ _____    ______ ____
ROOT
ATOM      1  C   UNL     1       7.809   7.784  17.810  0.00  0.00    +0.000 C 
ATOM      2  O   UNL     1       8.334   7.134  18.707  0.00  0.00    +0.000 OA
ATOM      3  N   UNL     1       7.088   7.181  16.766  0.00  0.00    +0.000 N 
ATOM      4  H   UNL     1       6.594   7.732  16.071  0.00  0.00    +0.000 HD
ENDROOT
BRANCH   3   5
ATOM      5  S   UNL     1       6.948   5.543  16.543  0.00  0.00    +0.000 S 
ATOM      6  O   UNL     1       7.008   5.346  15.108  0.00  0.00    +0.000 OA
ATOM      7  O   UNL     1       7.880   4.875  17.422  0.00  0.00    +0.000 OA
BRANCH   5   8
ATOM      8  C   UNL     1       5.286   5.175  17.042  0.00  0.00    +0.000 A 
ATOM      9  C   UNL     1       4.756   3.907  16.834  0.00  0.00    +0.000 A 
ATOM     10  C   UNL     1       3.438   3.659  17.207  0.00  0.00    +0.000 A 
ATOM     11  C   UNL     1       2.638   4.665  17.778  0.00  0.00    +0.000 A 
ATOM     12  C   UNL     1       3.175   5.952  17.973  0.00  0.00    +0.000 A 
ATOM     13  C   UNL     1       4.506   6.195  17.601  0.00  0.00    +0.000 A 
BRANCH  11  14
ATOM     14  O   UNL     1       1.377   4.211  18.074  0.00  0.00    +0.000 OA
ATOM     15  C   UNL     1       1.180   3.412  19.229  0.00  0.00    +0.000 C 
ENDBRANCH  11  14
BRANCH  12  16
ATOM     16  O   UNL     1       2.367   6.922  18.503  0.00  0.00    +0.000 OA
ATOM     17  C   UNL     1       2.464   8.243  17.990  0.00  0.00    +0.000 C 
ENDBRANCH  12  16
ENDBRANCH   5   8
ENDBRANCH   3   5
BRANCH   1  18
ATOM     18  C   UNL     1       7.878   9.306  17.764  0.00  0.00    +0.000 C 
BRANCH  18  19
ATOM     19  O   UNL     1       9.033   9.751  18.468  0.00  0.00    +0.000 OA
BRANCH  19  26
ATOM     20  C   UNL     1       9.101  15.887  17.875  0.00  0.00    +0.000 A 
ATOM     21  C   UNL     1      10.440  15.964  17.502  0.00  0.00    +0.000 A 
ATOM     22  C   UNL     1      11.200  14.795  17.387  0.00  0.00    +0.000 A 
ATOM     23  C   UNL     1      10.633  13.536  17.644  0.00  0.00    +0.000 A 
ATOM     24  C   UNL     1      11.383  12.356  17.530  0.00  0.00    +0.000 A 
ATOM     25  C   UNL     1      10.804  11.113  17.807  0.00  0.00    +0.000 A 
ATOM     26  C   UNL     1       9.468  11.023  18.199  0.00  0.00    +0.000 A 
ATOM     27  C   UNL     1       8.709  12.191  18.299  0.00  0.00    +0.000 A 
ATOM     28  C   UNL     1       9.279  13.452  18.030  0.00  0.00    +0.000 A 
ATOM     29  C   UNL     1       8.533  14.639  18.146  0.00  0.00    +0.000 A 
BRANCH  20  31
ATOM     30  C   UNL     1       7.026  16.679  18.693  0.00  0.00    +0.000 C 
ATOM     31  O   UNL     1       8.263  16.955  18.045  0.00  0.00    +0.000 OA
ENDBRANCH  20  31
ENDBRANCH  19  26
ENDBRANCH  18  19
ENDBRANCH   1  18
TORSDOF 8
ENDMDL
MODEL 5
REMARK VINA RESULT:      -8.1      1.189      1.231
REMARK  Name = 
REMARK  11 active torsions:
REMARK  status: ('A' for Active; 'I' for Inactive)
REMARK    1  A    between atoms: C_1  and  O_2
REMARK    2  A    between atoms: O_2  and  C_3
REMARK    3  A    between atoms: C_9  and  O_10
REMARK    4  A    between atoms: O_10  and  C_11
REMARK    5  A    between atoms: C_11  and  C_12
REMARK    6  A    between atoms: N_14  and  S_15
REMARK    7  A    between atoms: S_15  and  C_18
REMARK    8  A    between atoms: C_21  and  O_22
REMARK    9  A    between atoms: O_22  and  C_23
REMARK   10  A    between atoms: C_24  and  O_25
REMARK   11  A    between atoms: O_25  and  C_26
REMARK                            x       y       z     vdW  Elec       q    Type
REMARK                         _______ _______ _______ _____ _____    ______ ____
ROOT
ATOM      1  C   UNL     1       7.520   6.934  18.054  0.00  0.00    +0.000 C 
ATOM      2  O   UNL     1       7.309   5.953  18.757  0.00  0.00    +0.000 OA
ATOM      3  N   UNL     1       6.858   7.141  16.832  0.00  0.00    +0.000 N 
ATOM      4  H   UNL     1       6.984   7.992  16.294  0.00  0.00    +0.000 HD
ENDROOT
BRANCH   3   5
ATOM      5  S   UNL     1       5.813   6.058  16.133  0.00  0.00    +0.000 S 
ATOM      6  O   UNL     1       5.049   6.829  15.172  0.00  0.00    +0.000 OA
ATOM      7  O   UNL     1       6.562   4.893  15.720  0.00  0.00    +0.000 OA
BRANCH   5   8
ATOM      8  C   UNL     1       4.699   5.620  17.441  0.00  0.00    +0.000 A 
ATOM      9  C   UNL     1       3.881   6.584  18.018  0.00  0.00    +0.000 A 
ATOM     10  C   UNL     1       3.041   6.216  19.065  0.00  0.00    +0.000 A 
ATOM     11  C   UNL     1       3.012   4.896  19.550  0.00  0.00    +0.000 A 
ATOM     12  C   UNL     1       3.854   3.926  18.972  0.00  0.00    +0.000 A 
ATOM     13  C   UNL     1       4.695   4.301  17.913  0.00  0.00    +0.000 A 
BRANCH  11  14
ATOM     14  O   UNL     1       2.116   4.747  20.579  0.00  0.00    +0.000 OA
ATOM     15  C   UNL     1       0.905   4.045  20.347  0.00  0.00    +0.000 C 
ENDBRANCH  11  14
BRANCH  12  16
ATOM     16  O   UNL     1       3.830   2.655  19.482  0.00  0.00    +0.000 OA
ATOM     17  C   UNL     1       3.468   1.584  18.621  0.00  0.00    +0.000 C 
ENDBRANCH  12  16
ENDBRANCH   5   8
ENDBRANCH   3   5
BRANCH   1  18
ATOM     18  C   UNL     1       8.506   8.025  18.457  0.00  0.00    +0.000 C 
BRANCH  18  19
ATOM     19  O   UNL     1       8.046   9.283  17.976  0.00  0.00    +0.000 OA
BRANCH  19  26
ATOM     20  C   UNL     1       9.957  15.110  18.613  0.00  0.00    +0.000 A 
ATOM     21  C   UNL     1      10.551  14.913  19.856  0.00  0.00    +0.000 A 
ATOM     22  C   UNL     1      10.534  13.645  20.445  0.00  0.00    +0.000 A 
ATOM     23  C   UNL     1       9.920  12.558  19.801  0.00  0.00    +0.000 A 
ATOM     24  C   UNL     1       9.897  11.279  20.379  0.00  0.00    +0.000 A 
ATOM     25  C   UNL     1       9.267  10.214  19.729  0.00  0.00    +0.000 A 
ATOM     26  C   UNL     1       8.651  10.400  18.491  0.00  0.00    +0.000 A 
ATOM     27  C   UNL     1       8.684  11.665  17.900  0.00  0.00    +0.000 A 
ATOM     28  C   UNL     1       9.309  12.752  18.545  0.00  0.00    +0.000 A 
ATOM     29  C   UNL     1       9.333  14.036  17.972  0.00  0.00    +0.000 A 
BRANCH  20  31
ATOM     30  C   UNL     1      10.822  16.481  16.889  0.00  0.00    +0.000 C 
ATOM     31  O   UNL     1       9.887  16.303  17.947  0.00  0.00    +0.000 OA
ENDBRANCH  20  31
ENDBRANCH  19  26
ENDBRANCH  18  19
ENDBRANCH   1  18
TORSDOF 8
ENDMDL
MODEL 6
REMARK VINA RESULT:      -8.1      4.869      8.374
REMARK  Name = 
REMARK  11 active torsions:
REMARK  status: ('A' for Active; 'I' for Inactive)
REMARK    1  A    between atoms: C_1  and  O_2
REMARK    2  A    between atoms: O_2  and  C_3
REMARK    3  A    between atoms: C_9  and  O_10
REMARK    4  A    between atoms: O_10  and  C_11
REMARK    5  A    between atoms: C_11  and  C_12
REMARK    6  A    between atoms: N_14  and  S_15
REMARK    7  A    between atoms: S_15  and  C_18
REMARK    8  A    between atoms: C_21  and  O_22
REMARK    9  A    between atoms: O_22  and  C_23
REMARK   10  A    between atoms: C_24  and  O_25
REMARK   11  A    between atoms: O_25  and  C_26
REMARK                            x       y       z     vdW  Elec       q    Type
REMARK                         _______ _______ _______ _____ _____    ______ ____
ROOT
ATOM      1  C   UNL     1       2.023   4.485  19.812  0.00  0.00    +0.000 C 
ATOM      2  O   UNL     1       1.422   3.441  20.035  0.00  0.00    +0.000 OA
ATOM      3  N   UNL     1       2.941   4.615  18.757  0.00  0.00    +0.000 N 
ATOM      4  H   UNL     1       3.377   5.504  18.534  0.00  0.00    +0.000 HD
ENDROOT
BRANCH   3   5
ATOM      5  S   UNL     1       3.414   3.373  17.763  0.00  0.00    +0.000 S 
ATOM      6  O   UNL     1       3.997   2.379  18.642  0.00  0.00    +0.000 OA
ATOM      7  O   UNL     1       2.312   3.034  16.890  0.00  0.00    +0.000 OA
BRANCH   5   8
ATOM      8  C   UNL     1       4.743   4.059  16.810  0.00  0.00    +0.000 A 
ATOM      9  C   UNL     1       4.831   3.806  15.446  0.00  0.00    +0.000 A 
ATOM     10  C   UNL     1       5.904   4.332  14.731  0.00  0.00    +0.000 A 
ATOM     11  C   UNL     1       6.896   5.102  15.364  0.00  0.00    +0.000 A 
ATOM     12  C   UNL     1       6.810   5.343  16.749  0.00  0.00    +0.000 A 
ATOM     13  C   UNL     1       5.724   4.816  17.463  0.00  0.00    +0.000 A 
BRANCH  11  14
ATOM     14  O   UNL     1       7.858   5.524  14.481  0.00  0.00    +0.000 OA
ATOM     15  C   UNL     1       7.760   5.149  13.116  0.00  0.00    +0.000 C 
ENDBRANCH  11  14
BRANCH  12  16
ATOM     16  O   UNL     1       7.804   6.071  17.346  0.00  0.00    +0.000 OA
ATOM     17  C   UNL     1       7.555   7.433  17.660  0.00  0.00    +0.000 C 
ENDBRANCH  12  16
ENDBRANCH   5   8
ENDBRANCH   3   5
BRANCH   1  18
ATOM     18  C   UNL     1       1.809   5.740  20.652  0.00  0.00    +0.000 C 
BRANCH  18  19
ATOM     19  O   UNL     1       2.565   6.814  20.103  0.00  0.00    +0.000 OA
BRANCH  19  26
ATOM     20  C   UNL     1      -0.976  11.831  20.637  0.00  0.00    +0.000 A 
ATOM     21  C   UNL     1      -0.805  12.249  19.321  0.00  0.00    +0.000 A 
ATOM     22  C   UNL     1      -0.019  11.492  18.445  0.00  0.00    +0.000 A 
ATOM     23  C   UNL     1       0.606  10.310  18.875  0.00  0.00    +0.000 A 
ATOM     24  C   UNL     1       1.396   9.540  18.007  0.00  0.00    +0.000 A 
ATOM     25  C   UNL     1       2.024   8.374  18.459  0.00  0.00    +0.000 A 
ATOM     26  C   UNL     1       1.875   7.954  19.781  0.00  0.00    +0.000 A 
ATOM     27  C   UNL     1       1.078   8.705  20.648  0.00  0.00    +0.000 A 
ATOM     28  C   UNL     1       0.443   9.886  20.210  0.00  0.00    +0.000 A 
ATOM     29  C   UNL     1      -0.346  10.664  21.076  0.00  0.00    +0.000 A 
BRANCH  20  31
ATOM     30  C   UNL     1      -1.911  13.883  21.358  0.00  0.00    +0.000 C 
ATOM     31  O   UNL     1      -1.698  12.495  21.592  0.00  0.00    +0.000 OA
ENDBRANCH  20  31
ENDBRANCH  19  26
ENDBRANCH  18  19
ENDBRANCH   1  18
TORSDOF 8
ENDMDL
MODEL 7
REMARK VINA RESULT:      -8.1      4.748      8.576
REMARK  Name = 
REMARK  11 active torsions:
REMARK  status: ('A' for Active; 'I' for Inactive)
REMARK    1  A    between atoms: C_1  and  O_2
REMARK    2  A    between atoms: O_2  and  C_3
REMARK    3  A    between atoms: C_9  and  O_10
REMARK    4  A    between atoms: O_10  and  C_11
REMARK    5  A    between atoms: C_11  and  C_12
REMARK    6  A    between atoms: N_14  and  S_15
REMARK    7  A    between atoms: S_15  and  C_18
REMARK    8  A    between atoms: C_21  and  O_22
REMARK    9  A    between atoms: O_22  and  C_23
REMARK   10  A    between atoms: C_24  and  O_25
REMARK   11  A    between atoms: O_25  and  C_26
REMARK                            x       y       z     vdW  Elec       q    Type
REMARK                         _______ _______ _______ _____ _____    ______ ____
ROOT
ATOM      1  C   UNL     1       2.248   4.828  19.408  0.00  0.00    +0.000 C 
ATOM      2  O   UNL     1       2.198   5.056  18.205  0.00  0.00    +0.000 OA
ATOM      3  N   UNL     1       3.197   3.959  19.971  0.00  0.00    +0.000 N 
ATOM      4  H   UNL     1       3.278   3.835  20.976  0.00  0.00    +0.000 HD
ENDROOT
BRANCH   3   5
ATOM      5  S   UNL     1       4.279   3.053  19.098  0.00  0.00    +0.000 S 
ATOM      6  O   UNL     1       5.057   2.331  20.085  0.00  0.00    +0.000 OA
ATOM      7  O   UNL     1       3.560   2.347  18.062  0.00  0.00    +0.000 OA
BRANCH   5   8
ATOM      8  C   UNL     1       5.362   4.251  18.366  0.00  0.00    +0.000 A 
ATOM      9  C   UNL     1       6.022   5.179  19.164  0.00  0.00    +0.000 A 
ATOM     10  C   UNL     1       6.839   6.128  18.556  0.00  0.00    +0.000 A 
ATOM     11  C   UNL     1       7.000   6.168  17.159  0.00  0.00    +0.000 A 
ATOM     12  C   UNL     1       6.318   5.235  16.355  0.00  0.00    +0.000 A 
ATOM     13  C   UNL     1       5.499   4.277  16.973  0.00  0.00    +0.000 A 
BRANCH  11  14
ATOM     14  O   UNL     1       7.848   7.175  16.769  0.00  0.00    +0.000 OA
ATOM     15  C   UNL     1       7.968   8.333  17.579  0.00  0.00    +0.000 C 
ENDBRANCH  11  14
BRANCH  12  16
ATOM     16  O   UNL     1       6.467   5.313  14.996  0.00  0.00    +0.000 OA
ATOM     17  C   UNL     1       5.981   4.245  14.196  0.00  0.00    +0.000 C 
ENDBRANCH  12  16
ENDBRANCH   5   8
ENDBRANCH   3   5
BRANCH   1  18
ATOM     18  C   UNL     1       1.295   5.488  20.398  0.00  0.00    +0.000 C 
BRANCH  18  19
ATOM     19  O   UNL     1       1.955   6.570  21.045  0.00  0.00    +0.000 OA
BRANCH  19  26
ATOM     20  C   UNL     1      -1.034  11.754  22.526  0.00  0.00    +0.000 A 
ATOM     21  C   UNL     1      -0.884  12.349  21.277  0.00  0.00    +0.000 A 
ATOM     22  C   UNL     1      -0.220  11.664  20.253  0.00  0.00    +0.000 A 
ATOM     23  C   UNL     1       0.303  10.378  20.466  0.00  0.00    +0.000 A 
ATOM     24  C   UNL     1       0.969   9.679  19.448  0.00  0.00    +0.000 A 
ATOM     25  C   UNL     1       1.497   8.405  19.685  0.00  0.00    +0.000 A 
ATOM     26  C   UNL     1       1.369   7.804  20.938  0.00  0.00    +0.000 A 
ATOM     27  C   UNL     1       0.693   8.486  21.952  0.00  0.00    +0.000 A 
ATOM     28  C   UNL     1       0.160   9.773  21.732  0.00  0.00    +0.000 A 
ATOM     29  C   UNL     1      -0.505  10.480  22.749  0.00  0.00    +0.000 A 
BRANCH  20  31
ATOM     30  C   UNL     1      -3.009  12.679  23.445  0.00  0.00    +0.000 C 
ATOM     31  O   UNL     1      -1.640  12.329  23.610  0.00  0.00    +0.000 OA
ENDBRANCH  20  31
ENDBRANCH  19  26
ENDBRANCH  18  19
ENDBRANCH   1  18
TORSDOF 8
ENDMDL
MODEL 8
REMARK VINA RESULT:      -8.1      1.795      2.384
REMARK  Name = 
REMARK  11 active torsions:
REMARK  status: ('A' for Active; 'I' for Inactive)
REMARK    1  A    between atoms: C_1  and  O_2
REMARK    2  A    between atoms: O_2  and  C_3
REMARK    3  A    between atoms: C_9  and  O_10
REMARK    4  A    between atoms: O_10  and  C_11
REMARK    5  A    between atoms: C_11  and  C_12
REMARK    6  A    between atoms: N_14  and  S_15
REMARK    7  A    between atoms: S_15  and  C_18
REMARK    8  A    between atoms: C_21  and  O_22
REMARK    9  A    between atoms: O_22  and  C_23
REMARK   10  A    between atoms: C_24  and  O_25
REMARK   11  A    between atoms: O_25  and  C_26
REMARK                            x       y       z     vdW  Elec       q    Type
REMARK                         _______ _______ _______ _____ _____    ______ ____
ROOT
ATOM      1  C   UNL     1       7.880   7.630  17.858  0.00  0.00    +0.000 C 
ATOM      2  O   UNL     1       8.051   6.897  18.825  0.00  0.00    +0.000 OA
ATOM      3  N   UNL     1       7.168   7.220  16.719  0.00  0.00    +0.000 N 
ATOM      4  H   UNL     1       6.968   7.859  15.956  0.00  0.00    +0.000 HD
ENDROOT
BRANCH   3   5
ATOM      5  S   UNL     1       6.574   5.689  16.481  0.00  0.00    +0.000 S 
ATOM      6  O   UNL     1       6.069   5.681  15.123  0.00  0.00    +0.000 OA
ATOM      7  O   UNL     1       7.573   4.735  16.904  0.00  0.00    +0.000 OA
BRANCH   5   8
ATOM      8  C   UNL     1       5.165   5.595  17.554  0.00  0.00    +0.000 A 
ATOM      9  C   UNL     1       4.245   6.636  17.595  0.00  0.00    +0.000 A 
ATOM     10  C   UNL     1       3.167   6.548  18.472  0.00  0.00    +0.000 A 
ATOM     11  C   UNL     1       3.000   5.435  19.315  0.00  0.00    +0.000 A 
ATOM     12  C   UNL     1       3.943   4.389  19.280  0.00  0.00    +0.000 A 
ATOM     13  C   UNL     1       5.025   4.481  18.391  0.00  0.00    +0.000 A 
BRANCH  11  14
ATOM     14  O   UNL     1       1.875   5.545  20.094  0.00  0.00    +0.000 OA
ATOM     15  C   UNL     1       1.545   6.804  20.660  0.00  0.00    +0.000 C 
ENDBRANCH  11  14
BRANCH  12  16
ATOM     16  O   UNL     1       3.774   3.330  20.132  0.00  0.00    +0.000 OA
ATOM     17  C   UNL     1       4.565   2.167  19.935  0.00  0.00    +0.000 C 
ENDBRANCH  12  16
ENDBRANCH   5   8
ENDBRANCH   3   5
BRANCH   1  18
ATOM     18  C   UNL     1       8.410   9.059  17.819  0.00  0.00    +0.000 C 
BRANCH  18  19
ATOM     19  O   UNL     1       8.942   9.404  19.094  0.00  0.00    +0.000 OA
BRANCH  19  26
ATOM     20  C   UNL     1      10.312  14.837  21.664  0.00  0.00    +0.000 A 
ATOM     21  C   UNL     1      10.941  15.356  20.536  0.00  0.00    +0.000 A 
ATOM     22  C   UNL     1      11.022  14.591  19.368  0.00  0.00    +0.000 A 
ATOM     23  C   UNL     1      10.477  13.298  19.313  0.00  0.00    +0.000 A 
ATOM     24  C   UNL     1      10.548  12.520  18.147  0.00  0.00    +0.000 A 
ATOM     25  C   UNL     1      10.014  11.228  18.118  0.00  0.00    +0.000 A 
ATOM     26  C   UNL     1       9.396  10.688  19.246  0.00  0.00    +0.000 A 
ATOM     27  C   UNL     1       9.306  11.461  20.406  0.00  0.00    +0.000 A 
ATOM     28  C   UNL     1       9.845  12.763  20.455  0.00  0.00    +0.000 A 
ATOM     29  C   UNL     1       9.779  13.546  21.621  0.00  0.00    +0.000 A 
BRANCH  20  31
ATOM     30  C   UNL     1       9.730  16.821  22.817  0.00  0.00    +0.000 C 
ATOM     31  O   UNL     1      10.191  15.475  22.868  0.00  0.00    +0.000 OA
ENDBRANCH  20  31
ENDBRANCH  19  26
ENDBRANCH  18  19
ENDBRANCH   1  18
TORSDOF 8
ENDMDL
MODEL 9
REMARK VINA RESULT:      -8.1      1.344      2.088
REMARK  Name = 
REMARK  11 active torsions:
REMARK  status: ('A' for Active; 'I' for Inactive)
REMARK    1  A    between atoms: C_1  and  O_2
REMARK    2  A    between atoms: O_2  and  C_3
REMARK    3  A    between atoms: C_9  and  O_10
REMARK    4  A    between atoms: O_10  and  C_11
REMARK    5  A    between atoms: C_11  and  C_12
REMARK    6  A    between atoms: N_14  and  S_15
REMARK    7  A    between atoms: S_15  and  C_18
REMARK    8  A    between atoms: C_21  and  O_22
REMARK    9  A    between atoms: O_22  and  C_23
REMARK   10  A    between atoms: C_24  and  O_25
REMARK   11  A    between atoms: O_25  and  C_26
REMARK                            x       y       z     vdW  Elec       q    Type
REMARK                         _______ _______ _______ _____ _____    ______ ____
ROOT
ATOM      1  C   UNL     1       7.655   6.877  17.875  0.00  0.00    +0.000 C 
ATOM      2  O   UNL     1       7.940   5.698  18.049  0.00  0.00    +0.000 OA
ATOM      3  N   UNL     1       6.642   7.285  16.992  0.00  0.00    +0.000 N 
ATOM      4  H   UNL     1       6.363   8.258  16.911  0.00  0.00    +0.000 HD
ENDROOT
BRANCH   3   5
ATOM      5  S   UNL     1       5.788   6.262  16.002  0.00  0.00    +0.000 S 
ATOM      6  O   UNL     1       4.923   7.122  15.219  0.00  0.00    +0.000 OA
ATOM      7  O   UNL     1       6.717   5.362  15.357  0.00  0.00    +0.000 OA
BRANCH   5   8
ATOM      8  C   UNL     1       4.744   5.352  17.109  0.00  0.00    +0.000 A 
ATOM      9  C   UNL     1       4.629   3.972  16.989  0.00  0.00    +0.000 A 
ATOM     10  C   UNL     1       3.776   3.290  17.852  0.00  0.00    +0.000 A 
ATOM     11  C   UNL     1       3.028   3.970  18.830  0.00  0.00    +0.000 A 
ATOM     12  C   UNL     1       3.137   5.371  18.938  0.00  0.00    +0.000 A 
ATOM     13  C   UNL     1       4.003   6.052  18.069  0.00  0.00    +0.000 A 
BRANCH  11  14
ATOM     14  O   UNL     1       2.256   3.113  19.574  0.00  0.00    +0.000 OA
ATOM     15  C   UNL     1       2.710   2.706  20.855  0.00  0.00    +0.000 C 
ENDBRANCH  11  14
BRANCH  12  16
ATOM     16  O   UNL     1       2.377   6.013  19.878  0.00  0.00    +0.000 OA
ATOM     17  C   UNL     1       2.172   7.413  19.746  0.00  0.00    +0.000 C 
ENDBRANCH  12  16
ENDBRANCH   5   8
ENDBRANCH   3   5
BRANCH   1  18
ATOM     18  C   UNL     1       8.367   8.002  18.619  0.00  0.00    +0.000 C 
BRANCH  18  19
ATOM     19  O   UNL     1       8.324   9.191  17.837  0.00  0.00    +0.000 OA
BRANCH  19  26
ATOM     20  C   UNL     1       9.945  15.079  18.678  0.00  0.00    +0.000 A 
ATOM     21  C   UNL     1      10.471  14.885  19.952  0.00  0.00    +0.000 A 
ATOM     22  C   UNL     1      10.472  13.606  20.520  0.00  0.00    +0.000 A 
ATOM     23  C   UNL     1       9.945  12.507  19.823  0.00  0.00    +0.000 A 
ATOM     24  C   UNL     1       9.941  11.218  20.379  0.00  0.00    +0.000 A 
ATOM     25  C   UNL     1       9.396  10.139  19.675  0.00  0.00    +0.000 A 
ATOM     26  C   UNL     1       8.850  10.322  18.405  0.00  0.00    +0.000 A 
ATOM     27  C   UNL     1       8.864  11.598  17.836  0.00  0.00    +0.000 A 
ATOM     28  C   UNL     1       9.403  12.698  18.535  0.00  0.00    +0.000 A 
ATOM     29  C   UNL     1       9.406  13.992  17.984  0.00  0.00    +0.000 A 
BRANCH  20  31
ATOM     30  C   UNL     1       9.965  17.439  18.847  0.00  0.00    +0.000 C 
ATOM     31  O   UNL     1       9.865  16.280  18.028  0.00  0.00    +0.000 OA
ENDBRANCH  20  31
ENDBRANCH  19  26
ENDBRANCH  18  19
ENDBRANCH   1  18
TORSDOF 8
ENDMDL
