MODEL 1
REMARK VINA RESULT:      -8.6      0.000      0.000
REMARK  Name = 
REMARK  5 active torsions:
REMARK  status: ('A' for Active; 'I' for Inactive)
REMARK    1  A    between atoms: O_1  and  C_2
REMARK    2  A    between atoms: N_16  and  C_17
REMARK    3  A    between atoms: C_17  and  C_18
REMARK    4  A    between atoms: C_18  and  C_19
REMARK    5  A    between atoms: C_19  and  C_20
REMARK                            x       y       z     vdW  Elec       q    Type
REMARK                         _______ _______ _______ _____ _____    ______ ____
ROOT
ATOM      1  C   UNL     1       7.098   4.727  13.122  0.00  0.00    +0.000 A 
ATOM      2  C   UNL     1       6.255   3.629  13.136  0.00  0.00    +0.000 A 
ATOM      3  C   UNL     1       5.514   3.358  14.291  0.00  0.00    +0.000 A 
ATOM      4  C   UNL     1       5.590   4.165  15.421  0.00  0.00    +0.000 A 
ATOM      5  N   UNL     1       4.831   3.868  16.474  0.00  0.00    +0.000 NA
ATOM      6  C   UNL     1       4.906   4.635  17.571  0.00  0.00    +0.000 A 
ATOM      7  N   UNL     1       4.089   4.319  18.629  0.00  0.00    +0.000 N 
ATOM      8  C   UNL     1       3.987   5.190  19.796  0.00  0.00    +0.000 C 
ATOM      9  C   UNL     1       2.571   5.801  19.902  0.00  0.00    +0.000 C 
ATOM     10  N   UNL     1       1.492   4.795  19.858  0.00  0.00    +0.000 NA
ATOM     11  C   UNL     1       1.629   3.995  18.625  0.00  0.00    +0.000 C 
ATOM     12  C   UNL     1       3.018   3.331  18.474  0.00  0.00    +0.000 C 
ATOM     13  N   UNL     1       5.750   5.677  17.668  0.00  0.00    +0.000 NA
ATOM     14  C   UNL     1       6.515   5.981  16.604  0.00  0.00    +0.000 A 
ATOM     15  N   UNL     1       7.387   7.081  16.662  0.00  0.00    +0.000 N 
ATOM     16  C   UNL     1       6.453   5.256  15.407  0.00  0.00    +0.000 A 
ATOM     17  C   UNL     1       7.215   5.533  14.245  0.00  0.00    +0.000 A 
ATOM     18  H   UNL     1       0.590   5.270  19.849  0.00  0.00    +0.000 HD
ATOM     19  H   UNL     1       7.005   7.840  16.103  0.00  0.00    +0.000 HD
ENDROOT
BRANCH   1  20
ATOM     20  O   UNL     1       7.835   5.049  12.024  0.00  0.00    +0.000 OA
ATOM     21  H   UNL     1       7.592   5.944  11.735  0.00  0.00    +0.000 HD
ENDBRANCH   1  20
BRANCH  15  22
ATOM     22  C   UNL     1       7.879   7.503  17.963  0.00  0.00    +0.000 C 
BRANCH  22  23
ATOM     23  C   UNL     1       8.106   9.019  17.890  0.00  0.00    +0.000 C 
BRANCH  23  24
ATOM     24  C   UNL     1       8.991   9.533  19.026  0.00  0.00    +0.000 C 
BRANCH  24  25
ATOM     25  C   UNL     1       9.572  10.894  18.718  0.00  0.00    +0.000 A 
ATOM     26  C   UNL     1      10.829  11.262  19.216  0.00  0.00    +0.000 A 
ATOM     27  C   UNL     1      11.362  12.523  18.940  0.00  0.00    +0.000 A 
ATOM     28  C   UNL     1      10.645  13.434  18.169  0.00  0.00    +0.000 A 
ATOM     29  C   UNL     1       9.392  13.084  17.674  0.00  0.00    +0.000 A 
ATOM     30  C   UNL     1       8.855  11.823  17.947  0.00  0.00    +0.000 A 
ENDBRANCH  24  25
ENDBRANCH  23  24
ENDBRANCH  22  23
ENDBRANCH  15  22
TORSDOF 5
ENDMDL
MODEL 2
REMARK VINA RESULT:      -8.6      4.642      7.811
REMARK  Name = 
REMARK  5 active torsions:
REMARK  status: ('A' for Active; 'I' for Inactive)
REMARK    1  A    between atoms: O_1  and  C_2
REMARK    2  A    between atoms: N_16  and  C_17
REMARK    3  A    between atoms: C_17  and  C_18
REMARK    4  A    between atoms: C_18  and  C_19
REMARK    5  A    between atoms: C_19  and  C_20
REMARK                            x       y       z     vdW  Elec       q    Type
REMARK                         _______ _______ _______ _____ _____    ______ ____
ROOT
ATOM      1  C   UNL     1       5.863   5.027  17.245  0.00  0.00    +0.000 A 
ATOM      2  C   UNL     1       5.704   5.985  16.258  0.00  0.00    +0.000 A 
ATOM      3  C   UNL     1       4.725   6.970  16.421  0.00  0.00    +0.000 A 
ATOM      4  C   UNL     1       3.915   7.024  17.551  0.00  0.00    +0.000 A 
ATOM      5  N   UNL     1       3.026   8.010  17.656  0.00  0.00    +0.000 NA
ATOM      6  C   UNL     1       2.235   8.063  18.738  0.00  0.00    +0.000 A 
ATOM      7  N   UNL     1       1.349   9.109  18.830  0.00  0.00    +0.000 N 
ATOM      8  C   UNL     1       0.566   9.335  20.042  0.00  0.00    +0.000 C 
ATOM      9  C   UNL     1       0.984  10.657  20.726  0.00  0.00    +0.000 C 
ATOM     10  N   UNL     1       0.961  11.821  19.818  0.00  0.00    +0.000 NA
ATOM     11  C   UNL     1       1.818  11.539  18.650  0.00  0.00    +0.000 C 
ATOM     12  C   UNL     1       1.432  10.240  17.903  0.00  0.00    +0.000 C 
ATOM     13  N   UNL     1       2.274   7.134  19.708  0.00  0.00    +0.000 NA
ATOM     14  C   UNL     1       3.174   6.139  19.605  0.00  0.00    +0.000 A 
ATOM     15  N   UNL     1       3.261   5.167  20.616  0.00  0.00    +0.000 N 
ATOM     16  C   UNL     1       4.068   6.048  18.529  0.00  0.00    +0.000 A 
ATOM     17  C   UNL     1       5.050   5.040  18.369  0.00  0.00    +0.000 A 
ATOM     18  H   UNL     1       1.324  12.636  20.309  0.00  0.00    +0.000 HD
ATOM     19  H   UNL     1       4.100   5.333  21.166  0.00  0.00    +0.000 HD
ENDROOT
BRANCH   1  20
ATOM     20  O   UNL     1       6.807   4.051  17.148  0.00  0.00    +0.000 OA
ATOM     21  H   UNL     1       6.775   3.504  17.950  0.00  0.00    +0.000 HD
ENDBRANCH   1  20
BRANCH  15  22
ATOM     22  C   UNL     1       2.078   4.899  21.418  0.00  0.00    +0.000 C 
BRANCH  22  23
ATOM     23  C   UNL     1       2.087   3.401  21.749  0.00  0.00    +0.000 C 
BRANCH  23  24
ATOM     24  C   UNL     1       1.264   2.578  20.758  0.00  0.00    +0.000 C 
BRANCH  24  25
ATOM     25  C   UNL     1       1.840   2.632  19.362  0.00  0.00    +0.000 A 
ATOM     26  C   UNL     1       2.965   1.867  19.026  0.00  0.00    +0.000 A 
ATOM     27  C   UNL     1       3.504   1.924  17.739  0.00  0.00    +0.000 A 
ATOM     28  C   UNL     1       2.932   2.748  16.774  0.00  0.00    +0.000 A 
ATOM     29  C   UNL     1       1.818   3.518  17.097  0.00  0.00    +0.000 A 
ATOM     30  C   UNL     1       1.275   3.465  18.384  0.00  0.00    +0.000 A 
ENDBRANCH  24  25
ENDBRANCH  23  24
ENDBRANCH  22  23
ENDBRANCH  15  22
TORSDOF 5
ENDMDL
MODEL 3
REMARK VINA RESULT:      -8.6      4.482      8.096
REMARK  Name = 
REMARK  5 active torsions:
REMARK  status: ('A' for Active; 'I' for Inactive)
REMARK    1  A    between atoms: O_1  and  C_2
REMARK    2  A    between atoms: N_16  and  C_17
REMARK    3  A    between atoms: C_17  and  C_18
REMARK    4  A    between atoms: C_18  and  C_19
REMARK    5  A    between atoms: C_19  and  C_20
REMARK                            x       y       z     vdW  Elec       q    Type
REMARK                         _______ _______ _______ _____ _____    ______ ____
ROOT
ATOM      1  C   UNL     1       1.512   2.802  21.359  0.00  0.00    +0.000 A 
ATOM      2  C   UNL     1       2.007   1.829  20.507  0.00  0.00    +0.000 A 
ATOM      3  C   UNL     1       2.739   2.222  19.382  0.00  0.00    +0.000 A 
ATOM      4  C   UNL     1       2.996   3.559  19.101  0.00  0.00    +0.000 A 
ATOM      5  N   UNL     1       3.729   3.861  18.031  0.00  0.00    +0.000 NA
ATOM      6  C   UNL     1       3.973   5.148  17.747  0.00  0.00    +0.000 A 
ATOM      7  N   UNL     1       4.757   5.424  16.653  0.00  0.00    +0.000 N 
ATOM      8  C   UNL     1       5.205   6.784  16.364  0.00  0.00    +0.000 C 
ATOM      9  C   UNL     1       6.740   6.897  16.509  0.00  0.00    +0.000 C 
ATOM     10  N   UNL     1       7.480   5.885  15.730  0.00  0.00    +0.000 NA
ATOM     11  C   UNL     1       7.013   4.540  16.119  0.00  0.00    +0.000 C 
ATOM     12  C   UNL     1       5.485   4.353  15.968  0.00  0.00    +0.000 C 
ATOM     13  N   UNL     1       3.471   6.157  18.480  0.00  0.00    +0.000 NA
ATOM     14  C   UNL     1       2.733   5.855  19.564  0.00  0.00    +0.000 A 
ATOM     15  N   UNL     1       2.219   6.885  20.368  0.00  0.00    +0.000 N 
ATOM     16  C   UNL     1       2.481   4.532  19.951  0.00  0.00    +0.000 A 
ATOM     17  C   UNL     1       1.729   4.145  21.088  0.00  0.00    +0.000 A 
ATOM     18  H   UNL     1       8.475   5.965  15.936  0.00  0.00    +0.000 HD
ATOM     19  H   UNL     1       2.750   6.929  21.234  0.00  0.00    +0.000 HD
ENDROOT
BRANCH   1  20
ATOM     20  O   UNL     1       0.804   2.481  22.476  0.00  0.00    +0.000 OA
ATOM     21  H   UNL     1       1.421   2.185  23.165  0.00  0.00    +0.000 HD
ENDBRANCH   1  20
BRANCH  15  22
ATOM     22  C   UNL     1       1.985   8.184  19.759  0.00  0.00    +0.000 C 
BRANCH  22  23
ATOM     23  C   UNL     1       0.849   8.853  20.544  0.00  0.00    +0.000 C 
BRANCH  23  24
ATOM     24  C   UNL     1       0.741  10.351  20.255  0.00  0.00    +0.000 C 
BRANCH  24  25
ATOM     25  C   UNL     1      -0.485  10.682  19.437  0.00  0.00    +0.000 A 
ATOM     26  C   UNL     1      -0.710  10.055  18.204  0.00  0.00    +0.000 A 
ATOM     27  C   UNL     1      -1.838  10.367  17.443  0.00  0.00    +0.000 A 
ATOM     28  C   UNL     1      -2.753  11.312  17.899  0.00  0.00    +0.000 A 
ATOM     29  C   UNL     1      -2.539  11.947  19.120  0.00  0.00    +0.000 A 
ATOM     30  C   UNL     1      -1.411  11.638  19.885  0.00  0.00    +0.000 A 
ENDBRANCH  24  25
ENDBRANCH  23  24
ENDBRANCH  22  23
ENDBRANCH  15  22
TORSDOF 5
ENDMDL
MODEL 4
REMARK VINA RESULT:      -8.4      4.526      7.272
REMARK  Name = 
REMARK  5 active torsions:
REMARK  status: ('A' for Active; 'I' for Inactive)
REMARK    1  A    between atoms: O_1  and  C_2
REMARK    2  A    between atoms: N_16  and  C_17
REMARK    3  A    between atoms: C_17  and  C_18
REMARK    4  A    between atoms: C_18  and  C_19
REMARK    5  A    between atoms: C_19  and  C_20
REMARK                            x       y       z     vdW  Elec       q    Type
REMARK                         _______ _______ _______ _____ _____    ______ ____
ROOT
ATOM      1  C   UNL     1       2.340   2.331  19.360  0.00  0.00    +0.000 A 
ATOM      2  C   UNL     1       1.649   2.505  20.547  0.00  0.00    +0.000 A 
ATOM      3  C   UNL     1       1.394   3.804  20.999  0.00  0.00    +0.000 A 
ATOM      4  C   UNL     1       1.801   4.925  20.285  0.00  0.00    +0.000 A 
ATOM      5  N   UNL     1       1.494   6.132  20.756  0.00  0.00    +0.000 NA
ATOM      6  C   UNL     1       1.892   7.219  20.079  0.00  0.00    +0.000 A 
ATOM      7  N   UNL     1       1.534   8.448  20.576  0.00  0.00    +0.000 N 
ATOM      8  C   UNL     1       1.784   9.674  19.822  0.00  0.00    +0.000 C 
ATOM      9  C   UNL     1       0.455  10.335  19.393  0.00  0.00    +0.000 C 
ATOM     10  N   UNL     1      -0.484  10.547  20.513  0.00  0.00    +0.000 NA
ATOM     11  C   UNL     1      -0.731   9.257  21.186  0.00  0.00    +0.000 C 
ATOM     12  C   UNL     1       0.562   8.557  21.667  0.00  0.00    +0.000 C 
ATOM     13  N   UNL     1       2.628   7.141  18.957  0.00  0.00    +0.000 NA
ATOM     14  C   UNL     1       2.936   5.922  18.476  0.00  0.00    +0.000 A 
ATOM     15  N   UNL     1       3.679   5.806  17.290  0.00  0.00    +0.000 N 
ATOM     16  C   UNL     1       2.511   4.743  19.102  0.00  0.00    +0.000 A 
ATOM     17  C   UNL     1       2.784   3.432  18.642  0.00  0.00    +0.000 A 
ATOM     18  H   UNL     1      -1.365  10.907  20.148  0.00  0.00    +0.000 HD
ATOM     19  H   UNL     1       3.063   5.509  16.538  0.00  0.00    +0.000 HD
ENDROOT
BRANCH   1  20
ATOM     20  O   UNL     1       2.608   1.093  18.863  0.00  0.00    +0.000 OA
ATOM     21  H   UNL     1       1.857   0.508  19.055  0.00  0.00    +0.000 HD
ENDBRANCH   1  20
BRANCH  15  22
ATOM     22  C   UNL     1       4.566   6.898  16.922  0.00  0.00    +0.000 C 
BRANCH  22  23
ATOM     23  C   UNL     1       5.778   6.276  16.214  0.00  0.00    +0.000 C 
BRANCH  23  24
ATOM     24  C   UNL     1       5.526   4.831  15.785  0.00  0.00    +0.000 C 
BRANCH  24  25
ATOM     25  C   UNL     1       6.077   4.547  14.407  0.00  0.00    +0.000 A 
ATOM     26  C   UNL     1       5.454   3.612  13.569  0.00  0.00    +0.000 A 
ATOM     27  C   UNL     1       5.967   3.342  12.299  0.00  0.00    +0.000 A 
ATOM     28  C   UNL     1       7.111   3.996  11.851  0.00  0.00    +0.000 A 
ATOM     29  C   UNL     1       7.744   4.923  12.676  0.00  0.00    +0.000 A 
ATOM     30  C   UNL     1       7.233   5.196  13.947  0.00  0.00    +0.000 A 
ENDBRANCH  24  25
ENDBRANCH  23  24
ENDBRANCH  22  23
ENDBRANCH  15  22
TORSDOF 5
ENDMDL
MODEL 5
REMARK VINA RESULT:      -8.3      7.178     10.668
REMARK  Name = 
REMARK  5 active torsions:
REMARK  status: ('A' for Active; 'I' for Inactive)
REMARK    1  A    between atoms: O_1  and  C_2
REMARK    2  A    between atoms: N_16  and  C_17
REMARK    3  A    between atoms: C_17  and  C_18
REMARK    4  A    between atoms: C_18  and  C_19
REMARK    5  A    between atoms: C_19  and  C_20
REMARK                            x       y       z     vdW  Elec       q    Type
REMARK                         _______ _______ _______ _____ _____    ______ ____
ROOT
ATOM      1  C   UNL     1      -3.464  10.404  15.739  0.00  0.00    +0.000 A 
ATOM      2  C   UNL     1      -4.482  11.092  16.379  0.00  0.00    +0.000 A 
ATOM      3  C   UNL     1      -4.242  11.632  17.646  0.00  0.00    +0.000 A 
ATOM      4  C   UNL     1      -3.009  11.511  18.277  0.00  0.00    +0.000 A 
ATOM      5  N   UNL     1      -2.840  12.080  19.469  0.00  0.00    +0.000 NA
ATOM      6  C   UNL     1      -1.657  11.959  20.089  0.00  0.00    +0.000 A 
ATOM      7  N   UNL     1      -1.506  12.582  21.304  0.00  0.00    +0.000 N 
ATOM      8  C   UNL     1      -0.208  12.639  21.971  0.00  0.00    +0.000 C 
ATOM      9  C   UNL     1       0.307  14.095  22.046  0.00  0.00    +0.000 C 
ATOM     10  N   UNL     1      -0.669  15.033  22.636  0.00  0.00    +0.000 NA
ATOM     11  C   UNL     1      -1.931  14.959  21.874  0.00  0.00    +0.000 C 
ATOM     12  C   UNL     1      -2.514  13.529  21.787  0.00  0.00    +0.000 C 
ATOM     13  N   UNL     1      -0.639  11.249  19.572  0.00  0.00    +0.000 NA
ATOM     14  C   UNL     1      -0.807  10.677  18.365  0.00  0.00    +0.000 A 
ATOM     15  N   UNL     1       0.247   9.952  17.784  0.00  0.00    +0.000 N 
ATOM     16  C   UNL     1      -1.997  10.804  17.637  0.00  0.00    +0.000 A 
ATOM     17  C   UNL     1      -2.233  10.244  16.357  0.00  0.00    +0.000 A 
ATOM     18  H   UNL     1      -0.299  15.981  22.578  0.00  0.00    +0.000 HD
ATOM     19  H   UNL     1       0.649  10.499  17.026  0.00  0.00    +0.000 HD
ENDROOT
BRANCH   1  20
ATOM     20  O   UNL     1      -3.633   9.867  14.500  0.00  0.00    +0.000 OA
ATOM     21  H   UNL     1      -3.466   8.911  14.547  0.00  0.00    +0.000 HD
ENDBRANCH   1  20
BRANCH  15  22
ATOM     22  C   UNL     1       1.237   9.351  18.661  0.00  0.00    +0.000 C 
BRANCH  22  23
ATOM     23  C   UNL     1       1.966   8.273  17.848  0.00  0.00    +0.000 C 
BRANCH  23  24
ATOM     24  C   UNL     1       2.883   7.408  18.713  0.00  0.00    +0.000 C 
BRANCH  24  25
ATOM     25  C   UNL     1       2.276   6.054  19.003  0.00  0.00    +0.000 A 
ATOM     26  C   UNL     1       2.057   5.136  17.968  0.00  0.00    +0.000 A 
ATOM     27  C   UNL     1       1.487   3.888  18.233  0.00  0.00    +0.000 A 
ATOM     28  C   UNL     1       1.123   3.545  19.532  0.00  0.00    +0.000 A 
ATOM     29  C   UNL     1       1.328   4.452  20.569  0.00  0.00    +0.000 A 
ATOM     30  C   UNL     1       1.898   5.701  20.308  0.00  0.00    +0.000 A 
ENDBRANCH  24  25
ENDBRANCH  23  24
ENDBRANCH  22  23
ENDBRANCH  15  22
TORSDOF 5
ENDMDL
MODEL 6
REMARK VINA RESULT:      -8.3      4.658      8.187
REMARK  Name = 
REMARK  5 active torsions:
REMARK  status: ('A' for Active; 'I' for Inactive)
REMARK    1  A    between atoms: O_1  and  C_2
REMARK    2  A    between atoms: N_16  and  C_17
REMARK    3  A    between atoms: C_17  and  C_18
REMARK    4  A    between atoms: C_18  and  C_19
REMARK    5  A    between atoms: C_19  and  C_20
REMARK                            x       y       z     vdW  Elec       q    Type
REMARK                         _______ _______ _______ _____ _____    ______ ____
ROOT
ATOM      1  C   UNL     1       1.460   2.706  21.371  0.00  0.00    +0.000 A 
ATOM      2  C   UNL     1       1.947   1.764  20.480  0.00  0.00    +0.000 A 
ATOM      3  C   UNL     1       2.683   2.196  19.372  0.00  0.00    +0.000 A 
ATOM      4  C   UNL     1       2.953   3.542  19.146  0.00  0.00    +0.000 A 
ATOM      5  N   UNL     1       3.689   3.880  18.090  0.00  0.00    +0.000 NA
ATOM      6  C   UNL     1       3.945   5.175  17.859  0.00  0.00    +0.000 A 
ATOM      7  N   UNL     1       4.732   5.489  16.778  0.00  0.00    +0.000 N 
ATOM      8  C   UNL     1       5.193   6.855  16.545  0.00  0.00    +0.000 C 
ATOM      9  C   UNL     1       6.729   6.948  16.695  0.00  0.00    +0.000 C 
ATOM     10  N   UNL     1       7.461   5.963  15.875  0.00  0.00    +0.000 NA
ATOM     11  C   UNL     1       6.981   4.607  16.209  0.00  0.00    +0.000 C 
ATOM     12  C   UNL     1       5.451   4.440  16.050  0.00  0.00    +0.000 C 
ATOM     13  N   UNL     1       3.452   6.158  18.633  0.00  0.00    +0.000 NA
ATOM     14  C   UNL     1       2.711   5.819  19.703  0.00  0.00    +0.000 A 
ATOM     15  N   UNL     1       2.205   6.820  20.548  0.00  0.00    +0.000 N 
ATOM     16  C   UNL     1       2.446   4.483  20.035  0.00  0.00    +0.000 A 
ATOM     17  C   UNL     1       1.690   4.057  21.155  0.00  0.00    +0.000 A 
ATOM     18  H   UNL     1       8.456   6.025  16.085  0.00  0.00    +0.000 HD
ATOM     19  H   UNL     1       2.735   6.823  21.416  0.00  0.00    +0.000 HD
ENDROOT
BRANCH   1  20
ATOM     20  O   UNL     1       0.748   2.346  22.474  0.00  0.00    +0.000 OA
ATOM     21  H   UNL     1       1.081   1.494  22.798  0.00  0.00    +0.000 HD
ENDBRANCH   1  20
BRANCH  15  22
ATOM     22  C   UNL     1       1.983   8.145  19.993  0.00  0.00    +0.000 C 
BRANCH  22  23
ATOM     23  C   UNL     1       0.758   8.734  20.705  0.00  0.00    +0.000 C 
BRANCH  23  24
ATOM     24  C   UNL     1       0.235   9.996  20.020  0.00  0.00    +0.000 C 
BRANCH  24  25
ATOM     25  C   UNL     1      -0.622  10.828  20.946  0.00  0.00    +0.000 A 
ATOM     26  C   UNL     1      -0.664  10.550  22.319  0.00  0.00    +0.000 A 
ATOM     27  C   UNL     1      -1.462  11.313  23.174  0.00  0.00    +0.000 A 
ATOM     28  C   UNL     1      -2.233  12.357  22.670  0.00  0.00    +0.000 A 
ATOM     29  C   UNL     1      -2.205  12.639  21.307  0.00  0.00    +0.000 A 
ATOM     30  C   UNL     1      -1.407  11.879  20.447  0.00  0.00    +0.000 A 
ENDBRANCH  24  25
ENDBRANCH  23  24
ENDBRANCH  22  23
ENDBRANCH  15  22
TORSDOF 5
ENDMDL
MODEL 7
REMARK VINA RESULT:      -8.3      4.626      8.176
REMARK  Name = 
REMARK  5 active torsions:
REMARK  status: ('A' for Active; 'I' for Inactive)
REMARK    1  A    between atoms: O_1  and  C_2
REMARK    2  A    between atoms: N_16  and  C_17
REMARK    3  A    between atoms: C_17  and  C_18
REMARK    4  A    between atoms: C_18  and  C_19
REMARK    5  A    between atoms: C_19  and  C_20
REMARK                            x       y       z     vdW  Elec       q    Type
REMARK                         _______ _______ _______ _____ _____    ______ ____
ROOT
ATOM      1  C   UNL     1       1.470   2.665  21.424  0.00  0.00    +0.000 A 
ATOM      2  C   UNL     1       1.995   1.744  20.533  0.00  0.00    +0.000 A 
ATOM      3  C   UNL     1       2.739   2.204  19.442  0.00  0.00    +0.000 A 
ATOM      4  C   UNL     1       2.977   3.558  19.232  0.00  0.00    +0.000 A 
ATOM      5  N   UNL     1       3.722   3.924  18.191  0.00  0.00    +0.000 NA
ATOM      6  C   UNL     1       3.948   5.228  17.976  0.00  0.00    +0.000 A 
ATOM      7  N   UNL     1       4.745   5.571  16.911  0.00  0.00    +0.000 N 
ATOM      8  C   UNL     1       5.174   6.951  16.697  0.00  0.00    +0.000 C 
ATOM      9  C   UNL     1       6.704   7.083  16.874  0.00  0.00    +0.000 C 
ATOM     10  N   UNL     1       7.475   6.123  16.059  0.00  0.00    +0.000 NA
ATOM     11  C   UNL     1       7.025   4.753  16.373  0.00  0.00    +0.000 C 
ATOM     12  C   UNL     1       5.503   4.548  16.187  0.00  0.00    +0.000 C 
ATOM     13  N   UNL     1       3.417   6.191  18.749  0.00  0.00    +0.000 NA
ATOM     14  C   UNL     1       2.667   5.823  19.804  0.00  0.00    +0.000 A 
ATOM     15  N   UNL     1       2.121   6.803  20.649  0.00  0.00    +0.000 N 
ATOM     16  C   UNL     1       2.431   4.479  20.120  0.00  0.00    +0.000 A 
ATOM     17  C   UNL     1       1.667   4.023  21.223  0.00  0.00    +0.000 A 
ATOM     18  H   UNL     1       8.465   6.209  16.286  0.00  0.00    +0.000 HD
ATOM     19  H   UNL     1       2.636   6.813  21.525  0.00  0.00    +0.000 HD
ENDROOT
BRANCH   1  20
ATOM     20  O   UNL     1       0.748   2.277  22.511  0.00  0.00    +0.000 OA
ATOM     21  H   UNL     1       0.293   1.444  22.305  0.00  0.00    +0.000 HD
ENDBRANCH   1  20
BRANCH  15  22
ATOM     22  C   UNL     1       1.874   8.127  20.100  0.00  0.00    +0.000 C 
BRANCH  22  23
ATOM     23  C   UNL     1       1.462   9.031  21.270  0.00  0.00    +0.000 C 
BRANCH  23  24
ATOM     24  C   UNL     1      -0.033   8.945  21.576  0.00  0.00    +0.000 C 
BRANCH  24  25
ATOM     25  C   UNL     1      -0.658  10.313  21.728  0.00  0.00    +0.000 A 
ATOM     26  C   UNL     1      -0.828  11.146  20.614  0.00  0.00    +0.000 A 
ATOM     27  C   UNL     1      -1.397  12.414  20.755  0.00  0.00    +0.000 A 
ATOM     28  C   UNL     1      -1.796  12.869  22.009  0.00  0.00    +0.000 A 
ATOM     29  C   UNL     1      -1.626  12.054  23.125  0.00  0.00    +0.000 A 
ATOM     30  C   UNL     1      -1.058  10.784  22.989  0.00  0.00    +0.000 A 
ENDBRANCH  24  25
ENDBRANCH  23  24
ENDBRANCH  22  23
ENDBRANCH  15  22
TORSDOF 5
ENDMDL
MODEL 8
REMARK VINA RESULT:      -8.2      4.333      7.122
REMARK  Name = 
REMARK  5 active torsions:
REMARK  status: ('A' for Active; 'I' for Inactive)
REMARK    1  A    between atoms: O_1  and  C_2
REMARK    2  A    between atoms: N_16  and  C_17
REMARK    3  A    between atoms: C_17  and  C_18
REMARK    4  A    between atoms: C_18  and  C_19
REMARK    5  A    between atoms: C_19  and  C_20
REMARK                            x       y       z     vdW  Elec       q    Type
REMARK                         _______ _______ _______ _____ _____    ______ ____
ROOT
ATOM      1  C   UNL     1       1.534   2.695  21.367  0.00  0.00    +0.000 A 
ATOM      2  C   UNL     1       2.042   1.746  20.496  0.00  0.00    +0.000 A 
ATOM      3  C   UNL     1       2.772   2.170  19.382  0.00  0.00    +0.000 A 
ATOM      4  C   UNL     1       3.014   3.516  19.129  0.00  0.00    +0.000 A 
ATOM      5  N   UNL     1       3.746   3.848  18.067  0.00  0.00    +0.000 NA
ATOM      6  C   UNL     1       3.976   5.143  17.811  0.00  0.00    +0.000 A 
ATOM      7  N   UNL     1       4.759   5.451  16.725  0.00  0.00    +0.000 N 
ATOM      8  C   UNL     1       5.192   6.821  16.465  0.00  0.00    +0.000 C 
ATOM      9  C   UNL     1       6.725   6.950  16.616  0.00  0.00    +0.000 C 
ATOM     10  N   UNL     1       7.479   5.963  15.818  0.00  0.00    +0.000 NA
ATOM     11  C   UNL     1       7.026   4.604  16.178  0.00  0.00    +0.000 C 
ATOM     12  C   UNL     1       5.501   4.403  16.020  0.00  0.00    +0.000 C 
ATOM     13  N   UNL     1       3.461   6.131  18.563  0.00  0.00    +0.000 NA
ATOM     14  C   UNL     1       2.724   5.798  19.639  0.00  0.00    +0.000 A 
ATOM     15  N   UNL     1       2.196   6.806  20.463  0.00  0.00    +0.000 N 
ATOM     16  C   UNL     1       2.485   4.465  19.997  0.00  0.00    +0.000 A 
ATOM     17  C   UNL     1       1.736   4.046  21.124  0.00  0.00    +0.000 A 
ATOM     18  H   UNL     1       8.472   6.050  16.029  0.00  0.00    +0.000 HD
ATOM     19  H   UNL     1       2.724   6.838  21.331  0.00  0.00    +0.000 HD
ENDROOT
BRANCH   1  20
ATOM     20  O   UNL     1       0.826   2.343  22.475  0.00  0.00    +0.000 OA
ATOM     21  H   UNL     1       1.448   2.093  23.178  0.00  0.00    +0.000 HD
ENDBRANCH   1  20
BRANCH  15  22
ATOM     22  C   UNL     1       1.948   8.114  19.879  0.00  0.00    +0.000 C 
BRANCH  22  23
ATOM     23  C   UNL     1       0.934   8.827  20.784  0.00  0.00    +0.000 C 
BRANCH  23  24
ATOM     24  C   UNL     1       0.129   9.890  20.036  0.00  0.00    +0.000 C 
BRANCH  24  25
ATOM     25  C   UNL     1       0.941  11.139  19.782  0.00  0.00    +0.000 A 
ATOM     26  C   UNL     1       1.546  11.355  18.536  0.00  0.00    +0.000 A 
ATOM     27  C   UNL     1       2.305  12.504  18.304  0.00  0.00    +0.000 A 
ATOM     28  C   UNL     1       2.475  13.448  19.312  0.00  0.00    +0.000 A 
ATOM     29  C   UNL     1       1.884  13.243  20.557  0.00  0.00    +0.000 A 
ATOM     30  C   UNL     1       1.124  12.095  20.793  0.00  0.00    +0.000 A 
ENDBRANCH  24  25
ENDBRANCH  23  24
ENDBRANCH  22  23
ENDBRANCH  15  22
TORSDOF 5
ENDMDL
MODEL 9
REMARK VINA RESULT:      -8.2      4.529      7.646
REMARK  Name = 
REMARK  5 active torsions:
REMARK  status: ('A' for Active; 'I' for Inactive)
REMARK    1  A    between atoms: O_1  and  C_2
REMARK    2  A    between atoms: N_16  and  C_17
REMARK    3  A    between atoms: C_17  and  C_18
REMARK    4  A    between atoms: C_18  and  C_19
REMARK    5  A    between atoms: C_19  and  C_20
REMARK                            x       y       z     vdW  Elec       q    Type
REMARK                         _______ _______ _______ _____ _____    ______ ____
ROOT
ATOM      1  C   UNL     1       1.484   2.726  21.431  0.00  0.00    +0.000 A 
ATOM      2  C   UNL     1       2.016   1.798  20.553  0.00  0.00    +0.000 A 
ATOM      3  C   UNL     1       2.758   2.249  19.457  0.00  0.00    +0.000 A 
ATOM      4  C   UNL     1       2.988   3.602  19.230  0.00  0.00    +0.000 A 
ATOM      5  N   UNL     1       3.732   3.960  18.186  0.00  0.00    +0.000 NA
ATOM      6  C   UNL     1       3.951   5.262  17.955  0.00  0.00    +0.000 A 
ATOM      7  N   UNL     1       4.747   5.598  16.886  0.00  0.00    +0.000 N 
ATOM      8  C   UNL     1       5.168   6.977  16.657  0.00  0.00    +0.000 C 
ATOM      9  C   UNL     1       6.697   7.120  16.833  0.00  0.00    +0.000 C 
ATOM     10  N   UNL     1       7.474   6.155  16.030  0.00  0.00    +0.000 NA
ATOM     11  C   UNL     1       7.032   4.786  16.360  0.00  0.00    +0.000 C 
ATOM     12  C   UNL     1       5.511   4.570  16.175  0.00  0.00    +0.000 C 
ATOM     13  N   UNL     1       3.413   6.231  18.716  0.00  0.00    +0.000 NA
ATOM     14  C   UNL     1       2.664   5.872  19.775  0.00  0.00    +0.000 A 
ATOM     15  N   UNL     1       2.112   6.859  20.607  0.00  0.00    +0.000 N 
ATOM     16  C   UNL     1       2.436   4.530  20.107  0.00  0.00    +0.000 A 
ATOM     17  C   UNL     1       1.674   4.083  21.214  0.00  0.00    +0.000 A 
ATOM     18  H   UNL     1       8.463   6.250  16.257  0.00  0.00    +0.000 HD
ATOM     19  H   UNL     1       2.627   6.882  21.484  0.00  0.00    +0.000 HD
ENDROOT
BRANCH   1  20
ATOM     20  O   UNL     1       0.764   2.348  22.523  0.00  0.00    +0.000 OA
ATOM     21  H   UNL     1      -0.036   1.884  22.226  0.00  0.00    +0.000 HD
ENDBRANCH   1  20
BRANCH  15  22
ATOM     22  C   UNL     1       1.858   8.175  20.042  0.00  0.00    +0.000 C 
BRANCH  22  23
ATOM     23  C   UNL     1       0.677   8.777  20.814  0.00  0.00    +0.000 C 
BRANCH  23  24
ATOM     24  C   UNL     1       0.928  10.227  21.229  0.00  0.00    +0.000 C 
BRANCH  24  25
ATOM     25  C   UNL     1       0.411  11.206  20.201  0.00  0.00    +0.000 A 
ATOM     26  C   UNL     1      -0.883  11.076  19.680  0.00  0.00    +0.000 A 
ATOM     27  C   UNL     1      -1.358  11.975  18.723  0.00  0.00    +0.000 A 
ATOM     28  C   UNL     1      -0.546  13.010  18.269  0.00  0.00    +0.000 A 
ATOM     29  C   UNL     1       0.744  13.147  18.773  0.00  0.00    +0.000 A 
ATOM     30  C   UNL     1       1.224  12.250  19.731  0.00  0.00    +0.000 A 
ENDBRANCH  24  25
ENDBRANCH  23  24
ENDBRANCH  22  23
ENDBRANCH  15  22
TORSDOF 5
ENDMDL
