MODEL 1
REMARK VINA RESULT:      -7.3      0.000      0.000
REMARK  Name = 
REMARK  6 active torsions:
REMARK  status: ('A' for Active; 'I' for Inactive)
REMARK    1  A    between atoms: C_1  and  C_2
REMARK    2  A    between atoms: C_2  and  C_3
REMARK    3  A    between atoms: C_8  and  C_9
REMARK    4  A    between atoms: C_9  and  C_10
REMARK    5  A    between atoms: C_9  and  C_11
REMARK    6  A    between atoms: C_11  and  O_13
REMARK                            x       y       z     vdW  Elec       q    Type
REMARK                         _______ _______ _______ _____ _____    ______ ____
ROOT
ATOM      1  C   UNL     1       1.394   3.750  19.296  0.00  0.00    +0.000 C 
ATOM      2  C   UNL     1       2.034   5.153  19.377  0.00  0.00    +0.000 C 
ATOM      3  C   UNL     1       3.077   5.058  18.305  0.00  0.00    +0.000 A 
ATOM      4  C   UNL     1       3.733   6.086  17.653  0.00  0.00    +0.000 A 
ATOM      5  C   UNL     1       4.675   5.768  16.664  0.00  0.00    +0.000 A 
ATOM      6  C   UNL     1       4.985   4.425  16.353  0.00  0.00    +0.000 A 
ATOM      7  C   UNL     1       4.316   3.397  17.048  0.00  0.00    +0.000 A 
ATOM      8  C   UNL     1       3.364   3.726  18.003  0.00  0.00    +0.000 A 
ATOM      9  C   UNL     1       2.531   2.804  18.841  0.00  0.00    +0.000 C 
ENDROOT
BRANCH   1  11
ATOM     10  C   UNL     1       1.707   2.781  21.622  0.00  0.00    +0.000 C 
ATOM     11  C   UNL     1       0.718   3.333  20.604  0.00  0.00    +0.000 C 
ENDBRANCH   1  11
BRANCH   6  12
ATOM     12  C   UNL     1       5.963   4.053  15.243  0.00  0.00    +0.000 C 
ATOM     13  C   UNL     1       5.336   4.284  13.866  0.00  0.00    +0.000 C 
BRANCH  12  14
ATOM     14  C   UNL     1       7.323   4.745  15.321  0.00  0.00    +0.000 C 
ATOM     15  O   UNL     1       7.808   5.441  14.443  0.00  0.00    +0.000 OA
BRANCH  14  16
ATOM     16  O   UNL     1       8.001   4.476  16.465  0.00  0.00    +0.000 OA
ATOM     17  H   UNL     1       7.977   3.533  16.716  0.00  0.00    +0.000 HD
ENDBRANCH  14  16
ENDBRANCH  12  14
ENDBRANCH   6  12
TORSDOF 4
ENDMDL
MODEL 2
REMARK VINA RESULT:      -7.1      3.046      6.009
REMARK  Name = 
REMARK  6 active torsions:
REMARK  status: ('A' for Active; 'I' for Inactive)
REMARK    1  A    between atoms: C_1  and  C_2
REMARK    2  A    between atoms: C_2  and  C_3
REMARK    3  A    between atoms: C_8  and  C_9
REMARK    4  A    between atoms: C_9  and  C_10
REMARK    5  A    between atoms: C_9  and  C_11
REMARK    6  A    between atoms: C_11  and  O_13
REMARK                            x       y       z     vdW  Elec       q    Type
REMARK                         _______ _______ _______ _____ _____    ______ ____
ROOT
ATOM      1  C   UNL     1       6.136   4.876  15.938  0.00  0.00    +0.000 C 
ATOM      2  C   UNL     1       5.405   6.222  16.136  0.00  0.00    +0.000 C 
ATOM      3  C   UNL     1       4.276   5.810  17.032  0.00  0.00    +0.000 A 
ATOM      4  C   UNL     1       3.489   6.607  17.842  0.00  0.00    +0.000 A 
ATOM      5  C   UNL     1       2.484   6.004  18.613  0.00  0.00    +0.000 A 
ATOM      6  C   UNL     1       2.247   4.613  18.547  0.00  0.00    +0.000 A 
ATOM      7  C   UNL     1       3.052   3.827  17.697  0.00  0.00    +0.000 A 
ATOM      8  C   UNL     1       4.062   4.432  16.962  0.00  0.00    +0.000 A 
ATOM      9  C   UNL     1       5.035   3.793  16.019  0.00  0.00    +0.000 C 
ENDROOT
BRANCH   1  11
ATOM     10  C   UNL     1       6.338   3.943  13.585  0.00  0.00    +0.000 C 
ATOM     11  C   UNL     1       6.961   4.836  14.649  0.00  0.00    +0.000 C 
ENDBRANCH   1  11
BRANCH   6  12
ATOM     12  C   UNL     1       1.199   3.927  19.418  0.00  0.00    +0.000 C 
ATOM     13  C   UNL     1       0.812   2.566  18.833  0.00  0.00    +0.000 C 
BRANCH  12  14
ATOM     14  C   UNL     1       1.580   3.774  20.889  0.00  0.00    +0.000 C 
ATOM     15  O   UNL     1       2.415   4.448  21.472  0.00  0.00    +0.000 OA
BRANCH  14  16
ATOM     16  O   UNL     1       0.932   2.759  21.513  0.00  0.00    +0.000 OA
ATOM     17  H   UNL     1       0.131   2.462  21.039  0.00  0.00    +0.000 HD
ENDBRANCH  14  16
ENDBRANCH  12  14
ENDBRANCH   6  12
TORSDOF 4
ENDMDL
MODEL 3
REMARK VINA RESULT:      -6.8      1.374      1.907
REMARK  Name = 
REMARK  6 active torsions:
REMARK  status: ('A' for Active; 'I' for Inactive)
REMARK    1  A    between atoms: C_1  and  C_2
REMARK    2  A    between atoms: C_2  and  C_3
REMARK    3  A    between atoms: C_8  and  C_9
REMARK    4  A    between atoms: C_9  and  C_10
REMARK    5  A    between atoms: C_9  and  C_11
REMARK    6  A    between atoms: C_11  and  O_13
REMARK                            x       y       z     vdW  Elec       q    Type
REMARK                         _______ _______ _______ _____ _____    ______ ____
ROOT
ATOM      1  C   UNL     1       1.890   3.366  19.378  0.00  0.00    +0.000 C 
ATOM      2  C   UNL     1       1.518   4.864  19.321  0.00  0.00    +0.000 C 
ATOM      3  C   UNL     1       2.744   5.442  18.680  0.00  0.00    +0.000 A 
ATOM      4  C   UNL     1       2.883   6.661  18.041  0.00  0.00    +0.000 A 
ATOM      5  C   UNL     1       4.131   7.001  17.499  0.00  0.00    +0.000 A 
ATOM      6  C   UNL     1       5.244   6.139  17.626  0.00  0.00    +0.000 A 
ATOM      7  C   UNL     1       5.077   4.912  18.301  0.00  0.00    +0.000 A 
ATOM      8  C   UNL     1       3.829   4.575  18.806  0.00  0.00    +0.000 A 
ATOM      9  C   UNL     1       3.428   3.329  19.536  0.00  0.00    +0.000 C 
ENDROOT
BRANCH   1  11
ATOM     10  C   UNL     1       1.806   2.715  21.831  0.00  0.00    +0.000 C 
ATOM     11  C   UNL     1       1.129   2.610  20.471  0.00  0.00    +0.000 C 
ENDBRANCH   1  11
BRANCH   6  12
ATOM     12  C   UNL     1       6.596   6.460  16.996  0.00  0.00    +0.000 C 
ATOM     13  C   UNL     1       7.657   6.691  18.074  0.00  0.00    +0.000 C 
BRANCH  12  14
ATOM     14  C   UNL     1       7.096   5.435  15.981  0.00  0.00    +0.000 C 
ATOM     15  O   UNL     1       6.780   5.401  14.802  0.00  0.00    +0.000 OA
BRANCH  14  16
ATOM     16  O   UNL     1       7.912   4.494  16.520  0.00  0.00    +0.000 OA
ATOM     17  H   UNL     1       8.239   4.729  17.410  0.00  0.00    +0.000 HD
ENDBRANCH  14  16
ENDBRANCH  12  14
ENDBRANCH   6  12
TORSDOF 4
ENDMDL
MODEL 4
REMARK VINA RESULT:      -6.7      1.298      1.991
REMARK  Name = 
REMARK  6 active torsions:
REMARK  status: ('A' for Active; 'I' for Inactive)
REMARK    1  A    between atoms: C_1  and  C_2
REMARK    2  A    between atoms: C_2  and  C_3
REMARK    3  A    between atoms: C_8  and  C_9
REMARK    4  A    between atoms: C_9  and  C_10
REMARK    5  A    between atoms: C_9  and  C_11
REMARK    6  A    between atoms: C_11  and  O_13
REMARK                            x       y       z     vdW  Elec       q    Type
REMARK                         _______ _______ _______ _____ _____    ______ ____
ROOT
ATOM      1  C   UNL     1       1.641   3.438  18.328  0.00  0.00    +0.000 C 
ATOM      2  C   UNL     1       1.509   4.914  18.765  0.00  0.00    +0.000 C 
ATOM      3  C   UNL     1       2.776   5.494  18.213  0.00  0.00    +0.000 A 
ATOM      4  C   UNL     1       3.075   6.821  17.963  0.00  0.00    +0.000 A 
ATOM      5  C   UNL     1       4.331   7.143  17.430  0.00  0.00    +0.000 A 
ATOM      6  C   UNL     1       5.298   6.143  17.180  0.00  0.00    +0.000 A 
ATOM      7  C   UNL     1       4.974   4.800  17.463  0.00  0.00    +0.000 A 
ATOM      8  C   UNL     1       3.716   4.493  17.962  0.00  0.00    +0.000 A 
ATOM      9  C   UNL     1       3.160   3.146  18.316  0.00  0.00    +0.000 C 
ENDROOT
BRANCH   1  11
ATOM     10  C   UNL     1       1.074   2.714  20.695  0.00  0.00    +0.000 C 
ATOM     11  C   UNL     1       0.827   2.487  19.209  0.00  0.00    +0.000 C 
ENDBRANCH   1  11
BRANCH   6  12
ATOM     12  C   UNL     1       6.650   6.461  16.547  0.00  0.00    +0.000 C 
ATOM     13  C   UNL     1       7.537   7.237  17.524  0.00  0.00    +0.000 C 
BRANCH  12  14
ATOM     14  C   UNL     1       7.407   5.254  15.998  0.00  0.00    +0.000 C 
ATOM     15  O   UNL     1       7.965   4.407  16.676  0.00  0.00    +0.000 OA
BRANCH  14  16
ATOM     16  O   UNL     1       7.459   5.220  14.642  0.00  0.00    +0.000 OA
ATOM     17  H   UNL     1       6.907   5.904  14.216  0.00  0.00    +0.000 HD
ENDBRANCH  14  16
ENDBRANCH  12  14
ENDBRANCH   6  12
TORSDOF 4
ENDMDL
MODEL 5
REMARK VINA RESULT:      -6.7      1.048      1.489
REMARK  Name = 
REMARK  6 active torsions:
REMARK  status: ('A' for Active; 'I' for Inactive)
REMARK    1  A    between atoms: C_1  and  C_2
REMARK    2  A    between atoms: C_2  and  C_3
REMARK    3  A    between atoms: C_8  and  C_9
REMARK    4  A    between atoms: C_9  and  C_10
REMARK    5  A    between atoms: C_9  and  C_11
REMARK    6  A    between atoms: C_11  and  O_13
REMARK                            x       y       z     vdW  Elec       q    Type
REMARK                         _______ _______ _______ _____ _____    ______ ____
ROOT
ATOM      1  C   UNL     1       1.999   4.705  18.780  0.00  0.00    +0.000 C 
ATOM      2  C   UNL     1       2.859   5.986  18.707  0.00  0.00    +0.000 C 
ATOM      3  C   UNL     1       3.762   5.662  17.555  0.00  0.00    +0.000 A 
ATOM      4  C   UNL     1       4.504   6.532  16.777  0.00  0.00    +0.000 A 
ATOM      5  C   UNL     1       5.281   6.010  15.732  0.00  0.00    +0.000 A 
ATOM      6  C   UNL     1       5.340   4.619  15.489  0.00  0.00    +0.000 A 
ATOM      7  C   UNL     1       4.589   3.754  16.311  0.00  0.00    +0.000 A 
ATOM      8  C   UNL     1       3.801   4.287  17.321  0.00  0.00    +0.000 A 
ATOM      9  C   UNL     1       2.920   3.561  18.292  0.00  0.00    +0.000 C 
ENDROOT
BRANCH   1  11
ATOM     10  C   UNL     1       1.192   3.000  20.480  0.00  0.00    +0.000 C 
ATOM     11  C   UNL     1       1.398   4.476  20.170  0.00  0.00    +0.000 C 
ENDBRANCH   1  11
BRANCH   6  12
ATOM     12  C   UNL     1       6.132   4.033  14.324  0.00  0.00    +0.000 C 
ATOM     13  C   UNL     1       5.201   3.659  13.167  0.00  0.00    +0.000 C 
BRANCH  12  14
ATOM     14  C   UNL     1       7.275   4.908  13.813  0.00  0.00    +0.000 C 
ATOM     15  O   UNL     1       7.974   5.627  14.510  0.00  0.00    +0.000 OA
BRANCH  14  16
ATOM     16  O   UNL     1       7.429   4.864  12.466  0.00  0.00    +0.000 OA
ATOM     17  H   UNL     1       7.219   5.710  12.025  0.00  0.00    +0.000 HD
ENDBRANCH  14  16
ENDBRANCH  12  14
ENDBRANCH   6  12
TORSDOF 4
ENDMDL
MODEL 6
REMARK VINA RESULT:      -6.6      1.182      1.596
REMARK  Name = 
REMARK  6 active torsions:
REMARK  status: ('A' for Active; 'I' for Inactive)
REMARK    1  A    between atoms: C_1  and  C_2
REMARK    2  A    between atoms: C_2  and  C_3
REMARK    3  A    between atoms: C_8  and  C_9
REMARK    4  A    between atoms: C_9  and  C_10
REMARK    5  A    between atoms: C_9  and  C_11
REMARK    6  A    between atoms: C_11  and  O_13
REMARK                            x       y       z     vdW  Elec       q    Type
REMARK                         _______ _______ _______ _____ _____    ______ ____
ROOT
ATOM      1  C   UNL     1       1.790   3.380  19.387  0.00  0.00    +0.000 C 
ATOM      2  C   UNL     1       1.702   4.911  19.198  0.00  0.00    +0.000 C 
ATOM      3  C   UNL     1       3.008   5.195  18.520  0.00  0.00    +0.000 A 
ATOM      4  C   UNL     1       3.365   6.307  17.780  0.00  0.00    +0.000 A 
ATOM      5  C   UNL     1       4.650   6.362  17.220  0.00  0.00    +0.000 A 
ATOM      6  C   UNL     1       5.584   5.323  17.429  0.00  0.00    +0.000 A 
ATOM      7  C   UNL     1       5.199   4.211  18.205  0.00  0.00    +0.000 A 
ATOM      8  C   UNL     1       3.915   4.155  18.728  0.00  0.00    +0.000 A 
ATOM      9  C   UNL     1       3.296   3.072  19.559  0.00  0.00    +0.000 C 
ENDROOT
BRANCH   1  11
ATOM     10  C   UNL     1       1.700   2.655  21.818  0.00  0.00    +0.000 C 
ATOM     11  C   UNL     1       0.912   2.875  20.534  0.00  0.00    +0.000 C 
ENDBRANCH   1  11
BRANCH   6  12
ATOM     12  C   UNL     1       6.967   5.334  16.783  0.00  0.00    +0.000 C 
ATOM     13  C   UNL     1       7.958   4.509  17.609  0.00  0.00    +0.000 C 
BRANCH  12  14
ATOM     14  C   UNL     1       7.003   4.885  15.324  0.00  0.00    +0.000 C 
ATOM     15  O   UNL     1       7.640   5.431  14.437  0.00  0.00    +0.000 OA
BRANCH  14  16
ATOM     16  O   UNL     1       6.200   3.823  15.065  0.00  0.00    +0.000 OA
ATOM     17  H   UNL     1       6.537   3.248  14.351  0.00  0.00    +0.000 HD
ENDBRANCH  14  16
ENDBRANCH  12  14
ENDBRANCH   6  12
TORSDOF 4
ENDMDL
MODEL 7
REMARK VINA RESULT:      -6.5      2.934      5.889
REMARK  Name = 
REMARK  6 active torsions:
REMARK  status: ('A' for Active; 'I' for Inactive)
REMARK    1  A    between atoms: C_1  and  C_2
REMARK    2  A    between atoms: C_2  and  C_3
REMARK    3  A    between atoms: C_8  and  C_9
REMARK    4  A    between atoms: C_9  and  C_10
REMARK    5  A    between atoms: C_9  and  C_11
REMARK    6  A    between atoms: C_11  and  O_13
REMARK                            x       y       z     vdW  Elec       q    Type
REMARK                         _______ _______ _______ _____ _____    ______ ____
ROOT
ATOM      1  C   UNL     1       6.299   5.045  15.554  0.00  0.00    +0.000 C 
ATOM      2  C   UNL     1       5.330   6.246  15.636  0.00  0.00    +0.000 C 
ATOM      3  C   UNL     1       4.557   5.910  16.875  0.00  0.00    +0.000 A 
ATOM      4  C   UNL     1       3.800   6.752  17.668  0.00  0.00    +0.000 A 
ATOM      5  C   UNL     1       3.161   6.223  18.799  0.00  0.00    +0.000 A 
ATOM      6  C   UNL     1       3.253   4.849  19.116  0.00  0.00    +0.000 A 
ATOM      7  C   UNL     1       4.014   4.009  18.277  0.00  0.00    +0.000 A 
ATOM      8  C   UNL     1       4.666   4.552  17.178  0.00  0.00    +0.000 A 
ATOM      9  C   UNL     1       5.531   3.854  16.174  0.00  0.00    +0.000 C 
ENDROOT
BRANCH   1  11
ATOM     10  C   UNL     1       5.946   3.788  13.376  0.00  0.00    +0.000 C 
ATOM     11  C   UNL     1       6.806   4.792  14.131  0.00  0.00    +0.000 C 
ENDBRANCH   1  11
BRANCH   6  12
ATOM     12  C   UNL     1       2.614   4.261  20.371  0.00  0.00    +0.000 C 
ATOM     13  C   UNL     1       1.167   4.737  20.518  0.00  0.00    +0.000 C 
BRANCH  12  14
ATOM     14  C   UNL     1       2.678   2.739  20.476  0.00  0.00    +0.000 C 
ATOM     15  O   UNL     1       1.882   1.966  19.969  0.00  0.00    +0.000 OA
BRANCH  14  16
ATOM     16  O   UNL     1       3.699   2.293  21.251  0.00  0.00    +0.000 OA
ATOM     17  H   UNL     1       4.495   2.049  20.741  0.00  0.00    +0.000 HD
ENDBRANCH  14  16
ENDBRANCH  12  14
ENDBRANCH   6  12
TORSDOF 4
ENDMDL
MODEL 8
REMARK VINA RESULT:      -6.5      1.973      2.333
REMARK  Name = 
REMARK  6 active torsions:
REMARK  status: ('A' for Active; 'I' for Inactive)
REMARK    1  A    between atoms: C_1  and  C_2
REMARK    2  A    between atoms: C_2  and  C_3
REMARK    3  A    between atoms: C_8  and  C_9
REMARK    4  A    between atoms: C_9  and  C_10
REMARK    5  A    between atoms: C_9  and  C_11
REMARK    6  A    between atoms: C_11  and  O_13
REMARK                            x       y       z     vdW  Elec       q    Type
REMARK                         _______ _______ _______ _____ _____    ______ ____
ROOT
ATOM      1  C   UNL     1       1.726   3.384  19.365  0.00  0.00    +0.000 C 
ATOM      2  C   UNL     1       1.467   4.888  19.125  0.00  0.00    +0.000 C 
ATOM      3  C   UNL     1       2.809   5.336  18.629  0.00  0.00    +0.000 A 
ATOM      4  C   UNL     1       3.121   6.479  17.916  0.00  0.00    +0.000 A 
ATOM      5  C   UNL     1       4.454   6.699  17.540  0.00  0.00    +0.000 A 
ATOM      6  C   UNL     1       5.476   5.794  17.905  0.00  0.00    +0.000 A 
ATOM      7  C   UNL     1       5.132   4.647  18.649  0.00  0.00    +0.000 A 
ATOM      8  C   UNL     1       3.804   4.427  18.989  0.00  0.00    +0.000 A 
ATOM      9  C   UNL     1       3.219   3.279  19.755  0.00  0.00    +0.000 C 
ENDROOT
BRANCH   1  11
ATOM     10  C   UNL     1       1.400   2.636  21.770  0.00  0.00    +0.000 C 
ATOM     11  C   UNL     1       0.766   2.777  20.392  0.00  0.00    +0.000 C 
ENDBRANCH   1  11
BRANCH   6  12
ATOM     12  C   UNL     1       6.923   5.981  17.459  0.00  0.00    +0.000 C 
ATOM     13  C   UNL     1       7.348   7.446  17.596  0.00  0.00    +0.000 C 
BRANCH  12  14
ATOM     14  C   UNL     1       7.937   5.075  18.155  0.00  0.00    +0.000 C 
ATOM     15  O   UNL     1       8.409   5.271  19.264  0.00  0.00    +0.000 OA
BRANCH  14  16
ATOM     16  O   UNL     1       8.329   4.021  17.397  0.00  0.00    +0.000 OA
ATOM     17  H   UNL     1       9.025   4.246  16.751  0.00  0.00    +0.000 HD
ENDBRANCH  14  16
ENDBRANCH  12  14
ENDBRANCH   6  12
TORSDOF 4
ENDMDL
MODEL 9
REMARK VINA RESULT:      -6.5      1.804      2.914
REMARK  Name = 
REMARK  6 active torsions:
REMARK  status: ('A' for Active; 'I' for Inactive)
REMARK    1  A    between atoms: C_1  and  C_2
REMARK    2  A    between atoms: C_2  and  C_3
REMARK    3  A    between atoms: C_8  and  C_9
REMARK    4  A    between atoms: C_9  and  C_10
REMARK    5  A    between atoms: C_9  and  C_11
REMARK    6  A    between atoms: C_11  and  O_13
REMARK                            x       y       z     vdW  Elec       q    Type
REMARK                         _______ _______ _______ _____ _____    ______ ____
ROOT
ATOM      1  C   UNL     1       2.141   6.962  20.337  0.00  0.00    +0.000 C 
ATOM      2  C   UNL     1       1.912   5.436  20.417  0.00  0.00    +0.000 C 
ATOM      3  C   UNL     1       2.903   4.941  19.407  0.00  0.00    +0.000 A 
ATOM      4  C   UNL     1       3.427   3.669  19.273  0.00  0.00    +0.000 A 
ATOM      5  C   UNL     1       4.359   3.425  18.253  0.00  0.00    +0.000 A 
ATOM      6  C   UNL     1       4.738   4.443  17.350  0.00  0.00    +0.000 A 
ATOM      7  C   UNL     1       4.171   5.726  17.497  0.00  0.00    +0.000 A 
ATOM      8  C   UNL     1       3.274   5.961  18.529  0.00  0.00    +0.000 A 
ATOM      9  C   UNL     1       2.570   7.238  18.876  0.00  0.00    +0.000 C 
ENDROOT
BRANCH   1  11
ATOM     10  C   UNL     1       1.277   8.817  21.839  0.00  0.00    +0.000 C 
ATOM     11  C   UNL     1       0.923   7.767  20.795  0.00  0.00    +0.000 C 
ENDBRANCH   1  11
BRANCH   6  12
ATOM     12  C   UNL     1       5.791   4.218  16.269  0.00  0.00    +0.000 C 
ATOM     13  C   UNL     1       5.295   4.727  14.913  0.00  0.00    +0.000 C 
BRANCH  12  14
ATOM     14  C   UNL     1       7.168   4.804  16.575  0.00  0.00    +0.000 C 
ATOM     15  O   UNL     1       7.938   4.382  17.423  0.00  0.00    +0.000 OA
BRANCH  14  16
ATOM     16  O   UNL     1       7.462   5.906  15.841  0.00  0.00    +0.000 OA
ATOM     17  H   UNL     1       8.184   6.443  16.221  0.00  0.00    +0.000 HD
ENDBRANCH  14  16
ENDBRANCH  12  14
ENDBRANCH   6  12
TORSDOF 4
ENDMDL
