MODEL 1
REMARK VINA RESULT:      -6.6      0.000      0.000
REMARK  Name = 
REMARK  10 active torsions:
REMARK  status: ('A' for Active; 'I' for Inactive)
REMARK    1  A    between atoms: C_1  and  C_2
REMARK    2  A    between atoms: C_2  and  C_3
REMARK    3  A    between atoms: C_3  and  O_4
REMARK    4  A    between atoms: O_4  and  C_5
REMARK    5  A    between atoms: C_6  and  C_7
REMARK    6  A    between atoms: C_17  and  C_18
REMARK    7  A    between atoms: C_26  and  O_27
REMARK    8  A    between atoms: O_27  and  C_28
REMARK    9  A    between atoms: C_28  and  C_29
REMARK   10  A    between atoms: C_29  and  C_30
REMARK                            x       y       z     vdW  Elec       q    Type
REMARK                         _______ _______ _______ _____ _____    ______ ____
ROOT
ATOM      1  C   UNL     1      -1.817  12.314  21.099  0.00  0.00    +0.000 C 
ATOM      2  C   UNL     1      -1.845  11.930  22.612  0.00  0.00    +0.000 C 
ATOM      3  O   UNL     1      -0.622  11.326  23.063  0.00  0.00    +0.000 OA
ATOM      4  C   UNL     1      -0.306  10.158  22.331  0.00  0.00    +0.000 C 
ATOM      5  C   UNL     1       0.942   9.483  22.902  0.00  0.00    +0.000 C 
ATOM      6  O   UNL     1       1.338   8.368  22.108  0.00  0.00    +0.000 OA
ATOM      7  C   UNL     1       1.528   8.743  20.745  0.00  0.00    +0.000 C 
ATOM      8  O   UNL     1       0.335   9.309  20.209  0.00  0.00    +0.000 OA
ATOM      9  C   UNL     1       0.004  10.518  20.891  0.00  0.00    +0.000 C 
ATOM     10  C   UNL     1      -1.188  11.199  20.211  0.00  0.00    +0.000 C 
ENDROOT
BRANCH   2  11
ATOM     11  C   UNL     1      -2.078  13.148  23.500  0.00  0.00    +0.000 A 
ATOM     12  C   UNL     1      -3.282  13.296  24.204  0.00  0.00    +0.000 A 
ATOM     13  C   UNL     1      -3.524  14.436  24.974  0.00  0.00    +0.000 A 
ATOM     14  C   UNL     1      -2.563  15.443  25.057  0.00  0.00    +0.000 A 
ATOM     15  C   UNL     1      -1.352  15.302  24.385  0.00  0.00    +0.000 A 
ATOM     16  C   UNL     1      -1.111  14.164  23.613  0.00  0.00    +0.000 A 
ENDBRANCH   2  11
BRANCH   7  17
ATOM     17  C   UNL     1       1.888   7.501  19.962  0.00  0.00    +0.000 A 
ATOM     18  C   UNL     1       1.774   6.216  20.517  0.00  0.00    +0.000 A 
ATOM     19  C   UNL     1       2.172   5.088  19.797  0.00  0.00    +0.000 A 
ATOM     20  C   UNL     1       2.691   5.230  18.513  0.00  0.00    +0.000 A 
ATOM     21  C   UNL     1       2.800   6.499  17.942  0.00  0.00    +0.000 A 
ATOM     22  C   UNL     1       2.401   7.625  18.662  0.00  0.00    +0.000 A 
ENDBRANCH   7  17
BRANCH   1  23
ATOM     23  O   UNL     1      -3.191  12.572  20.699  0.00  0.00    +0.000 OA
BRANCH  23  24
ATOM     24  C   UNL     1      -3.514  13.956  20.576  0.00  0.00    +0.000 C 
BRANCH  24  26
ATOM     25  C   UNL     1      -5.618  12.885  21.433  0.00  0.00    +0.000 C 
ATOM     26  C   UNL     1      -5.003  14.144  20.845  0.00  0.00    +0.000 C 
ENDBRANCH  24  26
ENDBRANCH  23  24
ENDBRANCH   1  23
BRANCH  10  27
ATOM     27  O   UNL     1      -0.738  11.817  18.965  0.00  0.00    +0.000 OA
BRANCH  27  28
ATOM     28  C   UNL     1      -1.643  11.647  17.869  0.00  0.00    +0.000 C 
BRANCH  28  29
ATOM     29  C   UNL     1      -1.780  10.174  17.503  0.00  0.00    +0.000 C 
ATOM     30  C   UNL     1      -3.230   9.717  17.512  0.00  0.00    +0.000 C 
ENDBRANCH  28  29
ENDBRANCH  27  28
ENDBRANCH  10  27
TORSDOF 8
ENDMDL
MODEL 2
REMARK VINA RESULT:      -6.5      0.438      1.066
REMARK  Name = 
REMARK  10 active torsions:
REMARK  status: ('A' for Active; 'I' for Inactive)
REMARK    1  A    between atoms: C_1  and  C_2
REMARK    2  A    between atoms: C_2  and  C_3
REMARK    3  A    between atoms: C_3  and  O_4
REMARK    4  A    between atoms: O_4  and  C_5
REMARK    5  A    between atoms: C_6  and  C_7
REMARK    6  A    between atoms: C_17  and  C_18
REMARK    7  A    between atoms: C_26  and  O_27
REMARK    8  A    between atoms: O_27  and  C_28
REMARK    9  A    between atoms: C_28  and  C_29
REMARK   10  A    between atoms: C_29  and  C_30
REMARK                            x       y       z     vdW  Elec       q    Type
REMARK                         _______ _______ _______ _____ _____    ______ ____
ROOT
ATOM      1  C   UNL     1      -1.858  12.305  21.093  0.00  0.00    +0.000 C 
ATOM      2  C   UNL     1      -1.860  11.948  22.613  0.00  0.00    +0.000 C 
ATOM      3  O   UNL     1      -0.627  11.356  23.054  0.00  0.00    +0.000 OA
ATOM      4  C   UNL     1      -0.318  10.177  22.337  0.00  0.00    +0.000 C 
ATOM      5  C   UNL     1       0.942   9.517  22.899  0.00  0.00    +0.000 C 
ATOM      6  O   UNL     1       1.328   8.389  22.118  0.00  0.00    +0.000 OA
ATOM      7  C   UNL     1       1.493   8.740  20.746  0.00  0.00    +0.000 C 
ATOM      8  O   UNL     1       0.290   9.292  20.220  0.00  0.00    +0.000 OA
ATOM      9  C   UNL     1      -0.034  10.512  20.886  0.00  0.00    +0.000 C 
ATOM     10  C   UNL     1      -1.240  11.176  20.214  0.00  0.00    +0.000 C 
ENDROOT
BRANCH   2  11
ATOM     11  C   UNL     1      -2.081  13.181  23.482  0.00  0.00    +0.000 A 
ATOM     12  C   UNL     1      -1.090  14.169  23.581  0.00  0.00    +0.000 A 
ATOM     13  C   UNL     1      -1.264  15.273  24.419  0.00  0.00    +0.000 A 
ATOM     14  C   UNL     1      -2.433  15.411  25.166  0.00  0.00    +0.000 A 
ATOM     15  C   UNL     1      -3.438  14.452  25.061  0.00  0.00    +0.000 A 
ATOM     16  C   UNL     1      -3.263  13.347  24.227  0.00  0.00    +0.000 A 
ENDBRANCH   2  11
BRANCH   7  17
ATOM     17  C   UNL     1       1.846   7.485  19.980  0.00  0.00    +0.000 A 
ATOM     18  C   UNL     1       1.714   6.208  20.548  0.00  0.00    +0.000 A 
ATOM     19  C   UNL     1       2.104   5.068  19.844  0.00  0.00    +0.000 A 
ATOM     20  C   UNL     1       2.633   5.189  18.561  0.00  0.00    +0.000 A 
ATOM     21  C   UNL     1       2.759   6.450  17.977  0.00  0.00    +0.000 A 
ATOM     22  C   UNL     1       2.368   7.589  18.682  0.00  0.00    +0.000 A 
ENDBRANCH   7  17
BRANCH   1  23
ATOM     23  O   UNL     1      -3.240  12.550  20.711  0.00  0.00    +0.000 OA
BRANCH  23  24
ATOM     24  C   UNL     1      -3.564  13.930  20.545  0.00  0.00    +0.000 C 
BRANCH  24  26
ATOM     25  C   UNL     1      -5.018  15.635  21.681  0.00  0.00    +0.000 C 
ATOM     26  C   UNL     1      -4.921  14.201  21.185  0.00  0.00    +0.000 C 
ENDBRANCH  24  26
ENDBRANCH  23  24
ENDBRANCH   1  23
BRANCH  10  27
ATOM     27  O   UNL     1      -0.813  11.773  18.949  0.00  0.00    +0.000 OA
BRANCH  27  28
ATOM     28  C   UNL     1      -1.748  11.601  17.879  0.00  0.00    +0.000 C 
BRANCH  28  29
ATOM     29  C   UNL     1      -1.754  10.156  17.392  0.00  0.00    +0.000 C 
ATOM     30  C   UNL     1      -2.532   9.994  16.096  0.00  0.00    +0.000 C 
ENDBRANCH  28  29
ENDBRANCH  27  28
ENDBRANCH  10  27
TORSDOF 8
ENDMDL
MODEL 3
REMARK VINA RESULT:      -6.4      1.957      3.070
REMARK  Name = 
REMARK  10 active torsions:
REMARK  status: ('A' for Active; 'I' for Inactive)
REMARK    1  A    between atoms: C_1  and  C_2
REMARK    2  A    between atoms: C_2  and  C_3
REMARK    3  A    between atoms: C_3  and  O_4
REMARK    4  A    between atoms: O_4  and  C_5
REMARK    5  A    between atoms: C_6  and  C_7
REMARK    6  A    between atoms: C_17  and  C_18
REMARK    7  A    between atoms: C_26  and  O_27
REMARK    8  A    between atoms: O_27  and  C_28
REMARK    9  A    between atoms: C_28  and  C_29
REMARK   10  A    between atoms: C_29  and  C_30
REMARK                            x       y       z     vdW  Elec       q    Type
REMARK                         _______ _______ _______ _____ _____    ______ ____
ROOT
ATOM      1  C   UNL     1      -0.438  11.949  19.846  0.00  0.00    +0.000 C 
ATOM      2  C   UNL     1      -1.196  11.282  21.037  0.00  0.00    +0.000 C 
ATOM      3  O   UNL     1      -0.401  10.312  21.739  0.00  0.00    +0.000 OA
ATOM      4  C   UNL     1       0.049   9.279  20.886  0.00  0.00    +0.000 C 
ATOM      5  C   UNL     1       0.802   8.211  21.681  0.00  0.00    +0.000 C 
ATOM      6  O   UNL     1       1.357   7.220  20.820  0.00  0.00    +0.000 OA
ATOM      7  C   UNL     1       2.189   7.806  19.821  0.00  0.00    +0.000 C 
ATOM      8  O   UNL     1       1.454   8.750  19.047  0.00  0.00    +0.000 OA
ATOM      9  C   UNL     1       1.019   9.837  19.862  0.00  0.00    +0.000 C 
ATOM     10  C   UNL     1       0.365  10.918  18.997  0.00  0.00    +0.000 C 
ENDROOT
BRANCH   2  11
ATOM     11  C   UNL     1      -1.634  12.311  22.073  0.00  0.00    +0.000 A 
ATOM     12  C   UNL     1      -0.740  13.295  22.521  0.00  0.00    +0.000 A 
ATOM     13  C   UNL     1      -1.118  14.206  23.511  0.00  0.00    +0.000 A 
ATOM     14  C   UNL     1      -2.396  14.151  24.064  0.00  0.00    +0.000 A 
ATOM     15  C   UNL     1      -3.305  13.197  23.614  0.00  0.00    +0.000 A 
ATOM     16  C   UNL     1      -2.927  12.284  22.628  0.00  0.00    +0.000 A 
ENDBRANCH   2  11
BRANCH   7  17
ATOM     17  C   UNL     1       2.691   6.701  18.920  0.00  0.00    +0.000 A 
ATOM     18  C   UNL     1       2.232   5.379  19.042  0.00  0.00    +0.000 A 
ATOM     19  C   UNL     1       2.756   4.364  18.240  0.00  0.00    +0.000 A 
ATOM     20  C   UNL     1       3.747   4.655  17.306  0.00  0.00    +0.000 A 
ATOM     21  C   UNL     1       4.204   5.965  17.163  0.00  0.00    +0.000 A 
ATOM     22  C   UNL     1       3.680   6.980  17.965  0.00  0.00    +0.000 A 
ENDBRANCH   7  17
BRANCH   1  23
ATOM     23  O   UNL     1      -1.435  12.618  19.027  0.00  0.00    +0.000 OA
BRANCH  23  24
ATOM     24  C   UNL     1      -1.821  11.887  17.862  0.00  0.00    +0.000 C 
BRANCH  24  26
ATOM     25  C   UNL     1      -3.441   9.990  17.568  0.00  0.00    +0.000 C 
ATOM     26  C   UNL     1      -3.267  11.431  18.019  0.00  0.00    +0.000 C 
ENDBRANCH  24  26
ENDBRANCH  23  24
ENDBRANCH   1  23
BRANCH  10  27
ATOM     27  O   UNL     1       1.407  11.646  18.274  0.00  0.00    +0.000 OA
BRANCH  27  28
ATOM     28  C   UNL     1       2.000  12.712  19.023  0.00  0.00    +0.000 C 
BRANCH  28  29
ATOM     29  C   UNL     1       2.946  13.528  18.149  0.00  0.00    +0.000 C 
ATOM     30  C   UNL     1       3.767  14.513  18.964  0.00  0.00    +0.000 C 
ENDBRANCH  28  29
ENDBRANCH  27  28
ENDBRANCH  10  27
TORSDOF 8
ENDMDL
MODEL 4
REMARK VINA RESULT:      -6.3      0.933      1.550
REMARK  Name = 
REMARK  10 active torsions:
REMARK  status: ('A' for Active; 'I' for Inactive)
REMARK    1  A    between atoms: C_1  and  C_2
REMARK    2  A    between atoms: C_2  and  C_3
REMARK    3  A    between atoms: C_3  and  O_4
REMARK    4  A    between atoms: O_4  and  C_5
REMARK    5  A    between atoms: C_6  and  C_7
REMARK    6  A    between atoms: C_17  and  C_18
REMARK    7  A    between atoms: C_26  and  O_27
REMARK    8  A    between atoms: O_27  and  C_28
REMARK    9  A    between atoms: C_28  and  C_29
REMARK   10  A    between atoms: C_29  and  C_30
REMARK                            x       y       z     vdW  Elec       q    Type
REMARK                         _______ _______ _______ _____ _____    ______ ____
ROOT
ATOM      1  C   UNL     1      -1.792  12.672  21.060  0.00  0.00    +0.000 C 
ATOM      2  C   UNL     1      -2.043  12.220  22.533  0.00  0.00    +0.000 C 
ATOM      3  O   UNL     1      -0.927  11.520  23.106  0.00  0.00    +0.000 OA
ATOM      4  C   UNL     1      -0.582  10.370  22.358  0.00  0.00    +0.000 C 
ATOM      5  C   UNL     1       0.539   9.592  23.049  0.00  0.00    +0.000 C 
ATOM      6  O   UNL     1       0.974   8.493  22.253  0.00  0.00    +0.000 OA
ATOM      7  C   UNL     1       1.364   8.918  20.950  0.00  0.00    +0.000 C 
ATOM      8  O   UNL     1       0.287   9.583  20.294  0.00  0.00    +0.000 OA
ATOM      9  C   UNL     1      -0.063  10.777  20.993  0.00  0.00    +0.000 C 
ATOM     10  C   UNL     1      -1.114  11.562  20.201  0.00  0.00    +0.000 C 
ENDROOT
BRANCH   2  11
ATOM     11  C   UNL     1      -2.323  13.407  23.448  0.00  0.00    +0.000 A 
ATOM     12  C   UNL     1      -1.276  14.242  23.870  0.00  0.00    +0.000 A 
ATOM     13  C   UNL     1      -1.517  15.298  24.753  0.00  0.00    +0.000 A 
ATOM     14  C   UNL     1      -2.807  15.540  25.222  0.00  0.00    +0.000 A 
ATOM     15  C   UNL     1      -3.862  14.737  24.795  0.00  0.00    +0.000 A 
ATOM     16  C   UNL     1      -3.621  13.679  23.916  0.00  0.00    +0.000 A 
ENDBRANCH   2  11
BRANCH   7  17
ATOM     17  C   UNL     1       1.756   7.694  20.153  0.00  0.00    +0.000 A 
ATOM     18  C   UNL     1       2.229   7.789  18.834  0.00  0.00    +0.000 A 
ATOM     19  C   UNL     1       2.525   6.641  18.097  0.00  0.00    +0.000 A 
ATOM     20  C   UNL     1       2.352   5.383  18.667  0.00  0.00    +0.000 A 
ATOM     21  C   UNL     1       1.895   5.272  19.981  0.00  0.00    +0.000 A 
ATOM     22  C   UNL     1       1.599   6.420  20.718  0.00  0.00    +0.000 A 
ENDBRANCH   7  17
BRANCH   1  23
ATOM     23  O   UNL     1      -3.084  13.033  20.499  0.00  0.00    +0.000 OA
BRANCH  23  24
ATOM     24  C   UNL     1      -3.930  11.920  20.215  0.00  0.00    +0.000 C 
BRANCH  24  26
ATOM     25  C   UNL     1      -5.819  11.161  18.744  0.00  0.00    +0.000 C 
ATOM     26  C   UNL     1      -4.998  12.349  19.215  0.00  0.00    +0.000 C 
ENDBRANCH  24  26
ENDBRANCH  23  24
ENDBRANCH   1  23
BRANCH  10  27
ATOM     27  O   UNL     1      -0.468  12.208  19.060  0.00  0.00    +0.000 OA
BRANCH  27  28
ATOM     28  C   UNL     1      -1.180  12.062  17.827  0.00  0.00    +0.000 C 
BRANCH  28  29
ATOM     29  C   UNL     1      -1.621  10.617  17.624  0.00  0.00    +0.000 C 
ATOM     30  C   UNL     1      -2.761  10.504  16.625  0.00  0.00    +0.000 C 
ENDBRANCH  28  29
ENDBRANCH  27  28
ENDBRANCH  10  27
TORSDOF 8
ENDMDL
MODEL 5
REMARK VINA RESULT:      -6.3      2.083      8.338
REMARK  Name = 
REMARK  10 active torsions:
REMARK  status: ('A' for Active; 'I' for Inactive)
REMARK    1  A    between atoms: C_1  and  C_2
REMARK    2  A    between atoms: C_2  and  C_3
REMARK    3  A    between atoms: C_3  and  O_4
REMARK    4  A    between atoms: O_4  and  C_5
REMARK    5  A    between atoms: C_6  and  C_7
REMARK    6  A    between atoms: C_17  and  C_18
REMARK    7  A    between atoms: C_26  and  O_27
REMARK    8  A    between atoms: O_27  and  C_28
REMARK    9  A    between atoms: C_28  and  C_29
REMARK   10  A    between atoms: C_29  and  C_30
REMARK                            x       y       z     vdW  Elec       q    Type
REMARK                         _______ _______ _______ _____ _____    ______ ____
ROOT
ATOM      1  C   UNL     1       1.710   7.920  18.420  0.00  0.00    +0.000 C 
ATOM      2  C   UNL     1       2.214   7.147  19.680  0.00  0.00    +0.000 C 
ATOM      3  O   UNL     1       1.413   7.388  20.847  0.00  0.00    +0.000 OA
ATOM      4  C   UNL     1       1.361   8.761  21.180  0.00  0.00    +0.000 C 
ATOM      5  C   UNL     1       0.589   8.973  22.483  0.00  0.00    +0.000 C 
ATOM      6  O   UNL     1       0.432  10.359  22.774  0.00  0.00    +0.000 OA
ATOM      7  C   UNL     1      -0.181  11.051  21.688  0.00  0.00    +0.000 C 
ATOM      8  O   UNL     1       0.586  10.899  20.497  0.00  0.00    +0.000 OA
ATOM      9  C   UNL     1       0.626   9.529  20.099  0.00  0.00    +0.000 C 
ATOM     10  C   UNL     1       1.320   9.394  18.740  0.00  0.00    +0.000 C 
ENDROOT
BRANCH   2  11
ATOM     11  C   UNL     1       2.207   5.638  19.456  0.00  0.00    +0.000 A 
ATOM     12  C   UNL     1       1.709   5.099  18.261  0.00  0.00    +0.000 A 
ATOM     13  C   UNL     1       1.648   3.716  18.072  0.00  0.00    +0.000 A 
ATOM     14  C   UNL     1       2.090   2.851  19.073  0.00  0.00    +0.000 A 
ATOM     15  C   UNL     1       2.610   3.369  20.256  0.00  0.00    +0.000 A 
ATOM     16  C   UNL     1       2.668   4.751  20.446  0.00  0.00    +0.000 A 
ENDBRANCH   2  11
BRANCH   7  17
ATOM     17  C   UNL     1      -0.259  12.517  22.049  0.00  0.00    +0.000 A 
ATOM     18  C   UNL     1       0.577  13.473  21.450  0.00  0.00    +0.000 A 
ATOM     19  C   UNL     1       0.530  14.812  21.844  0.00  0.00    +0.000 A 
ATOM     20  C   UNL     1      -0.353  15.213  22.843  0.00  0.00    +0.000 A 
ATOM     21  C   UNL     1      -1.199  14.278  23.440  0.00  0.00    +0.000 A 
ATOM     22  C   UNL     1      -1.152  12.940  23.045  0.00  0.00    +0.000 A 
ENDBRANCH   7  17
BRANCH   1  23
ATOM     23  O   UNL     1       2.780   7.877  17.437  0.00  0.00    +0.000 OA
BRANCH  23  24
ATOM     24  C   UNL     1       4.073   7.631  17.990  0.00  0.00    +0.000 C 
BRANCH  24  26
ATOM     25  C   UNL     1       5.490   5.568  17.787  0.00  0.00    +0.000 C 
ATOM     26  C   UNL     1       4.856   6.730  17.042  0.00  0.00    +0.000 C 
ENDBRANCH  24  26
ENDBRANCH  23  24
ENDBRANCH   1  23
BRANCH  10  27
ATOM     27  O   UNL     1       0.412   9.857  17.691  0.00  0.00    +0.000 OA
BRANCH  27  28
ATOM     28  C   UNL     1      -0.943  10.021  18.124  0.00  0.00    +0.000 C 
BRANCH  28  29
ATOM     29  C   UNL     1      -1.902   9.950  16.942  0.00  0.00    +0.000 C 
ATOM     30  C   UNL     1      -3.346   9.788  17.388  0.00  0.00    +0.000 C 
ENDBRANCH  28  29
ENDBRANCH  27  28
ENDBRANCH  10  27
TORSDOF 8
ENDMDL
MODEL 6
REMARK VINA RESULT:      -6.3      1.561      2.181
REMARK  Name = 
REMARK  10 active torsions:
REMARK  status: ('A' for Active; 'I' for Inactive)
REMARK    1  A    between atoms: C_1  and  C_2
REMARK    2  A    between atoms: C_2  and  C_3
REMARK    3  A    between atoms: C_3  and  O_4
REMARK    4  A    between atoms: O_4  and  C_5
REMARK    5  A    between atoms: C_6  and  C_7
REMARK    6  A    between atoms: C_17  and  C_18
REMARK    7  A    between atoms: C_26  and  O_27
REMARK    8  A    between atoms: O_27  and  C_28
REMARK    9  A    between atoms: C_28  and  C_29
REMARK   10  A    between atoms: C_29  and  C_30
REMARK                            x       y       z     vdW  Elec       q    Type
REMARK                         _______ _______ _______ _____ _____    ______ ____
ROOT
ATOM      1  C   UNL     1      -1.060  12.779  20.786  0.00  0.00    +0.000 C 
ATOM      2  C   UNL     1      -1.473  12.329  22.222  0.00  0.00    +0.000 C 
ATOM      3  O   UNL     1      -0.493  11.490  22.855  0.00  0.00    +0.000 OA
ATOM      4  C   UNL     1      -0.228  10.324  22.101  0.00  0.00    +0.000 C 
ATOM      5  C   UNL     1       0.739   9.405  22.849  0.00  0.00    +0.000 C 
ATOM      6  O   UNL     1       1.103   8.279  22.055  0.00  0.00    +0.000 OA
ATOM      7  C   UNL     1       1.638   8.681  20.797  0.00  0.00    +0.000 C 
ATOM      8  O   UNL     1       0.699   9.482  20.084  0.00  0.00    +0.000 OA
ATOM      9  C   UNL     1       0.437  10.695  20.790  0.00  0.00    +0.000 C 
ATOM     10  C   UNL     1      -0.452  11.614  19.947  0.00  0.00    +0.000 C 
ENDROOT
BRANCH   2  11
ATOM     11  C   UNL     1      -1.682  13.522  23.149  0.00  0.00    +0.000 A 
ATOM     12  C   UNL     1      -2.851  13.630  23.917  0.00  0.00    +0.000 A 
ATOM     13  C   UNL     1      -3.074  14.748  24.725  0.00  0.00    +0.000 A 
ATOM     14  C   UNL     1      -2.129  15.772  24.783  0.00  0.00    +0.000 A 
ATOM     15  C   UNL     1      -0.952  15.670  24.046  0.00  0.00    +0.000 A 
ATOM     16  C   UNL     1      -0.730  14.555  23.236  0.00  0.00    +0.000 A 
ENDBRANCH   2  11
BRANCH   7  17
ATOM     17  C   UNL     1       1.944   7.437  19.995  0.00  0.00    +0.000 A 
ATOM     18  C   UNL     1       2.426   7.504  18.678  0.00  0.00    +0.000 A 
ATOM     19  C   UNL     1       2.643   6.342  17.936  0.00  0.00    +0.000 A 
ATOM     20  C   UNL     1       2.380   5.096  18.500  0.00  0.00    +0.000 A 
ATOM     21  C   UNL     1       1.913   5.011  19.812  0.00  0.00    +0.000 A 
ATOM     22  C   UNL     1       1.697   6.174  20.553  0.00  0.00    +0.000 A 
ENDBRANCH   7  17
BRANCH   1  23
ATOM     23  O   UNL     1      -2.254  13.302  20.142  0.00  0.00    +0.000 OA
BRANCH  23  24
ATOM     24  C   UNL     1      -3.394  12.449  20.244  0.00  0.00    +0.000 C 
BRANCH  24  26
ATOM     25  C   UNL     1      -5.648  12.542  21.349  0.00  0.00    +0.000 C 
ATOM     26  C   UNL     1      -4.628  13.302  20.516  0.00  0.00    +0.000 C 
ENDBRANCH  24  26
ENDBRANCH  23  24
ENDBRANCH   1  23
BRANCH  10  27
ATOM     27  O   UNL     1       0.351  12.204  18.876  0.00  0.00    +0.000 OA
BRANCH  27  28
ATOM     28  C   UNL     1       1.455  12.988  19.339  0.00  0.00    +0.000 C 
BRANCH  28  29
ATOM     29  C   UNL     1       2.610  12.939  18.345  0.00  0.00    +0.000 C 
ATOM     30  C   UNL     1       3.535  14.136  18.486  0.00  0.00    +0.000 C 
ENDBRANCH  28  29
ENDBRANCH  27  28
ENDBRANCH  10  27
TORSDOF 8
ENDMDL
MODEL 7
REMARK VINA RESULT:      -6.2      2.789      9.792
REMARK  Name = 
REMARK  10 active torsions:
REMARK  status: ('A' for Active; 'I' for Inactive)
REMARK    1  A    between atoms: C_1  and  C_2
REMARK    2  A    between atoms: C_2  and  C_3
REMARK    3  A    between atoms: C_3  and  O_4
REMARK    4  A    between atoms: O_4  and  C_5
REMARK    5  A    between atoms: C_6  and  C_7
REMARK    6  A    between atoms: C_17  and  C_18
REMARK    7  A    between atoms: C_26  and  O_27
REMARK    8  A    between atoms: O_27  and  C_28
REMARK    9  A    between atoms: C_28  and  C_29
REMARK   10  A    between atoms: C_29  and  C_30
REMARK                            x       y       z     vdW  Elec       q    Type
REMARK                         _______ _______ _______ _____ _____    ______ ____
ROOT
ATOM      1  C   UNL     1       3.095   5.801  18.520  0.00  0.00    +0.000 C 
ATOM      2  C   UNL     1       3.584   6.548  17.239  0.00  0.00    +0.000 C 
ATOM      3  O   UNL     1       3.738   7.963  17.436  0.00  0.00    +0.000 OA
ATOM      4  C   UNL     1       2.534   8.574  17.854  0.00  0.00    +0.000 C 
ATOM      5  C   UNL     1       2.703  10.091  17.953  0.00  0.00    +0.000 C 
ATOM      6  O   UNL     1       1.532  10.710  18.480  0.00  0.00    +0.000 OA
ATOM      7  C   UNL     1       1.166  10.145  19.736  0.00  0.00    +0.000 C 
ATOM      8  O   UNL     1       0.948   8.742  19.612  0.00  0.00    +0.000 OA
ATOM      9  C   UNL     1       2.154   8.078  19.236  0.00  0.00    +0.000 C 
ATOM     10  C   UNL     1       1.948   6.560  19.253  0.00  0.00    +0.000 C 
ENDROOT
BRANCH   2  11
ATOM     11  C   UNL     1       4.938   6.029  16.766  0.00  0.00    +0.000 A 
ATOM     12  C   UNL     1       5.087   5.511  15.470  0.00  0.00    +0.000 A 
ATOM     13  C   UNL     1       6.311   4.983  15.050  0.00  0.00    +0.000 A 
ATOM     14  C   UNL     1       7.404   4.968  15.915  0.00  0.00    +0.000 A 
ATOM     15  C   UNL     1       7.280   5.500  17.195  0.00  0.00    +0.000 A 
ATOM     16  C   UNL     1       6.058   6.025  17.618  0.00  0.00    +0.000 A 
ENDBRANCH   2  11
BRANCH   7  17
ATOM     17  C   UNL     1      -0.109  10.811  20.198  0.00  0.00    +0.000 A 
ATOM     18  C   UNL     1      -1.097  11.229  19.291  0.00  0.00    +0.000 A 
ATOM     19  C   UNL     1      -2.239  11.898  19.736  0.00  0.00    +0.000 A 
ATOM     20  C   UNL     1      -2.407  12.161  21.093  0.00  0.00    +0.000 A 
ATOM     21  C   UNL     1      -1.442  11.742  22.008  0.00  0.00    +0.000 A 
ATOM     22  C   UNL     1      -0.301  11.072  21.563  0.00  0.00    +0.000 A 
ENDBRANCH   7  17
BRANCH   1  23
ATOM     23  O   UNL     1       2.647   4.483  18.101  0.00  0.00    +0.000 OA
BRANCH  23  24
ATOM     24  C   UNL     1       3.603   3.445  18.316  0.00  0.00    +0.000 C 
BRANCH  24  26
ATOM     25  C   UNL     1       1.456   2.142  18.327  0.00  0.00    +0.000 C 
ATOM     26  C   UNL     1       2.946   2.099  18.034  0.00  0.00    +0.000 C 
ENDBRANCH  24  26
ENDBRANCH  23  24
ENDBRANCH   1  23
BRANCH  10  27
ATOM     27  O   UNL     1       1.919   6.099  20.641  0.00  0.00    +0.000 OA
BRANCH  27  28
ATOM     28  C   UNL     1       1.292   4.824  20.818  0.00  0.00    +0.000 C 
BRANCH  28  29
ATOM     29  C   UNL     1       2.195   3.880  21.603  0.00  0.00    +0.000 C 
ATOM     30  C   UNL     1       1.545   2.524  21.825  0.00  0.00    +0.000 C 
ENDBRANCH  28  29
ENDBRANCH  27  28
ENDBRANCH  10  27
TORSDOF 8
ENDMDL
MODEL 8
REMARK VINA RESULT:      -6.2      2.417      8.539
REMARK  Name = 
REMARK  10 active torsions:
REMARK  status: ('A' for Active; 'I' for Inactive)
REMARK    1  A    between atoms: C_1  and  C_2
REMARK    2  A    between atoms: C_2  and  C_3
REMARK    3  A    between atoms: C_3  and  O_4
REMARK    4  A    between atoms: O_4  and  C_5
REMARK    5  A    between atoms: C_6  and  C_7
REMARK    6  A    between atoms: C_17  and  C_18
REMARK    7  A    between atoms: C_26  and  O_27
REMARK    8  A    between atoms: O_27  and  C_28
REMARK    9  A    between atoms: C_28  and  C_29
REMARK   10  A    between atoms: C_29  and  C_30
REMARK                            x       y       z     vdW  Elec       q    Type
REMARK                         _______ _______ _______ _____ _____    ______ ____
ROOT
ATOM      1  C   UNL     1       2.178   7.515  19.129  0.00  0.00    +0.000 C 
ATOM      2  C   UNL     1       1.977   6.633  20.402  0.00  0.00    +0.000 C 
ATOM      3  O   UNL     1       0.792   6.970  21.141  0.00  0.00    +0.000 OA
ATOM      4  C   UNL     1       0.792   8.322  21.553  0.00  0.00    +0.000 C 
ATOM      5  C   UNL     1      -0.430   8.622  22.423  0.00  0.00    +0.000 C 
ATOM      6  O   UNL     1      -0.503  10.006  22.755  0.00  0.00    +0.000 OA
ATOM      7  C   UNL     1      -0.486  10.822  21.586  0.00  0.00    +0.000 C 
ATOM      8  O   UNL     1       0.691  10.578  20.820  0.00  0.00    +0.000 OA
ATOM      9  C   UNL     1       0.709   9.233  20.344  0.00  0.00    +0.000 C 
ATOM     10  C   UNL     1       1.896   9.024  19.398  0.00  0.00    +0.000 C 
ENDROOT
BRANCH   2  11
ATOM     11  C   UNL     1       1.859   5.154  20.050  0.00  0.00    +0.000 A 
ATOM     12  C   UNL     1       1.552   4.757  18.739  0.00  0.00    +0.000 A 
ATOM     13  C   UNL     1       1.388   3.406  18.423  0.00  0.00    +0.000 A 
ATOM     14  C   UNL     1       1.533   2.431  19.409  0.00  0.00    +0.000 A 
ATOM     15  C   UNL     1       1.862   2.805  20.709  0.00  0.00    +0.000 A 
ATOM     16  C   UNL     1       2.023   4.155  21.027  0.00  0.00    +0.000 A 
ENDBRANCH   2  11
BRANCH   7  17
ATOM     17  C   UNL     1      -0.509  12.269  22.022  0.00  0.00    +0.000 A 
ATOM     18  C   UNL     1       0.324  13.234  21.432  0.00  0.00    +0.000 A 
ATOM     19  C   UNL     1       0.330  14.551  21.893  0.00  0.00    +0.000 A 
ATOM     20  C   UNL     1      -0.495  14.922  22.951  0.00  0.00    +0.000 A 
ATOM     21  C   UNL     1      -1.338  13.979  23.540  0.00  0.00    +0.000 A 
ATOM     22  C   UNL     1      -1.344  12.662  23.078  0.00  0.00    +0.000 A 
ENDBRANCH   7  17
BRANCH   1  23
ATOM     23  O   UNL     1       3.550   7.323  18.690  0.00  0.00    +0.000 OA
BRANCH  23  24
ATOM     24  C   UNL     1       3.700   7.202  17.275  0.00  0.00    +0.000 C 
BRANCH  24  26
ATOM     25  C   UNL     1       5.137   5.285  18.029  0.00  0.00    +0.000 C 
ATOM     26  C   UNL     1       4.937   6.363  16.977  0.00  0.00    +0.000 C 
ENDBRANCH  24  26
ENDBRANCH  23  24
ENDBRANCH   1  23
BRANCH  10  27
ATOM     27  O   UNL     1       1.603   9.662  18.115  0.00  0.00    +0.000 OA
BRANCH  27  28
ATOM     28  C   UNL     1       2.452  10.773  17.809  0.00  0.00    +0.000 C 
BRANCH  28  29
ATOM     29  C   UNL     1       1.785  12.088  18.199  0.00  0.00    +0.000 C 
ATOM     30  C   UNL     1       2.782  13.232  18.275  0.00  0.00    +0.000 C 
ENDBRANCH  28  29
ENDBRANCH  27  28
ENDBRANCH  10  27
TORSDOF 8
ENDMDL
MODEL 9
REMARK VINA RESULT:      -6.2      1.479      1.888
REMARK  Name = 
REMARK  10 active torsions:
REMARK  status: ('A' for Active; 'I' for Inactive)
REMARK    1  A    between atoms: C_1  and  C_2
REMARK    2  A    between atoms: C_2  and  C_3
REMARK    3  A    between atoms: C_3  and  O_4
REMARK    4  A    between atoms: O_4  and  C_5
REMARK    5  A    between atoms: C_6  and  C_7
REMARK    6  A    between atoms: C_17  and  C_18
REMARK    7  A    between atoms: C_26  and  O_27
REMARK    8  A    between atoms: O_27  and  C_28
REMARK    9  A    between atoms: C_28  and  C_29
REMARK   10  A    between atoms: C_29  and  C_30
REMARK                            x       y       z     vdW  Elec       q    Type
REMARK                         _______ _______ _______ _____ _____    ______ ____
ROOT
ATOM      1  C   UNL     1      -1.473  12.590  20.767  0.00  0.00    +0.000 C 
ATOM      2  C   UNL     1      -1.883  12.064  22.179  0.00  0.00    +0.000 C 
ATOM      3  O   UNL     1      -0.854  11.285  22.811  0.00  0.00    +0.000 OA
ATOM      4  C   UNL     1      -0.480  10.168  22.031  0.00  0.00    +0.000 C 
ATOM      5  C   UNL     1       0.539   9.304  22.776  0.00  0.00    +0.000 C 
ATOM      6  O   UNL     1       1.009   8.235  21.959  0.00  0.00    +0.000 OA
ATOM      7  C   UNL     1       1.540   8.718  20.727  0.00  0.00    +0.000 C 
ATOM      8  O   UNL     1       0.557   9.464  20.014  0.00  0.00    +0.000 OA
ATOM      9  C   UNL     1       0.184  10.630  20.748  0.00  0.00    +0.000 C 
ATOM     10  C   UNL     1      -0.755  11.503  19.910  0.00  0.00    +0.000 C 
ENDROOT
BRANCH   2  11
ATOM     11  C   UNL     1      -2.207  13.208  23.134  0.00  0.00    +0.000 A 
ATOM     12  C   UNL     1      -3.526  13.429  23.557  0.00  0.00    +0.000 A 
ATOM     13  C   UNL     1      -3.838  14.508  24.388  0.00  0.00    +0.000 A 
ATOM     14  C   UNL     1      -2.836  15.380  24.813  0.00  0.00    +0.000 A 
ATOM     15  C   UNL     1      -1.518  15.161  24.423  0.00  0.00    +0.000 A 
ATOM     16  C   UNL     1      -1.205  14.085  23.590  0.00  0.00    +0.000 A 
ENDBRANCH   2  11
BRANCH   7  17
ATOM     17  C   UNL     1       1.962   7.527  19.898  0.00  0.00    +0.000 A 
ATOM     18  C   UNL     1       1.877   6.214  20.390  0.00  0.00    +0.000 A 
ATOM     19  C   UNL     1       2.331   5.135  19.630  0.00  0.00    +0.000 A 
ATOM     20  C   UNL     1       2.878   5.353  18.368  0.00  0.00    +0.000 A 
ATOM     21  C   UNL     1       2.958   6.650  17.859  0.00  0.00    +0.000 A 
ATOM     22  C   UNL     1       2.504   7.728  18.620  0.00  0.00    +0.000 A 
ENDBRANCH   7  17
BRANCH   1  23
ATOM     23  O   UNL     1      -2.689  13.037  20.109  0.00  0.00    +0.000 OA
BRANCH  23  24
ATOM     24  C   UNL     1      -3.301  12.051  19.278  0.00  0.00    +0.000 C 
BRANCH  24  26
ATOM     25  C   UNL     1      -5.465  11.552  18.104  0.00  0.00    +0.000 C 
ATOM     26  C   UNL     1      -4.809  12.278  19.267  0.00  0.00    +0.000 C 
ENDBRANCH  24  26
ENDBRANCH  23  24
ENDBRANCH   1  23
BRANCH  10  27
ATOM     27  O   UNL     1       0.023  12.187  18.878  0.00  0.00    +0.000 OA
BRANCH  27  28
ATOM     28  C   UNL     1       0.702  13.359  19.340  0.00  0.00    +0.000 C 
BRANCH  28  29
ATOM     29  C   UNL     1       2.201  13.255  19.081  0.00  0.00    +0.000 C 
ATOM     30  C   UNL     1       2.532  12.159  18.082  0.00  0.00    +0.000 C 
ENDBRANCH  28  29
ENDBRANCH  27  28
ENDBRANCH  10  27
TORSDOF 8
ENDMDL
