MODEL 1
REMARK VINA RESULT:      -6.9      0.000      0.000
REMARK  Name = 
REMARK  3 active torsions:
REMARK  status: ('A' for Active; 'I' for Inactive)
REMARK    1  A    between atoms: N_2  and  C_4
REMARK    2  A    between atoms: C_7  and  C_8
REMARK    3  A    between atoms: N_9  and  N_10
REMARK                            x       y       z     vdW  Elec       q    Type
REMARK                         _______ _______ _______ _____ _____    ______ ____
ROOT
ATOM      1  C   UNL     1       3.844   4.667  17.552  0.00  0.00    +0.000 C 
ATOM      2  N   UNL     1       4.520   3.951  16.711  0.00  0.00    +0.000 NA
ENDROOT
BRANCH   2   3
ATOM      3  N   UNL     1       5.496   4.562  15.977  0.00  0.00    +0.000 N 
ATOM      4  C   UNL     1       5.430   4.489  14.530  0.00  0.00    +0.000 C 
ATOM      5  C   UNL     1       6.875   4.627  14.083  0.00  0.00    +0.000 C 
ATOM      6  N   UNL     1       7.552   5.164  15.234  0.00  0.00    +0.000 N 
ATOM      7  C   UNL     1       6.806   4.909  16.389  0.00  0.00    +0.000 C 
ATOM      8  S   UNL     1       7.506   4.972  17.890  0.00  0.00    +0.000 S 
ATOM      9  H   UNL     1       8.558   5.258  15.307  0.00  0.00    +0.000 HD
ENDBRANCH   2   3
BRANCH   1  13
ATOM     10  C   UNL     1       2.052   3.092  20.174  0.00  0.00    +0.000 A 
ATOM     11  C   UNL     1       1.014   3.078  19.274  0.00  0.00    +0.000 A 
ATOM     12  C   UNL     1       1.526   3.693  18.105  0.00  0.00    +0.000 A 
ATOM     13  C   UNL     1       2.842   4.037  18.369  0.00  0.00    +0.000 A 
ATOM     14  O   UNL     1       3.167   3.674  19.651  0.00  0.00    +0.000 OA
BRANCH  10  16
ATOM     15  O   UNL     1       1.097   2.626  22.176  0.00  0.00    +0.000 OA
ATOM     16  N   UNL     1       2.144   2.608  21.516  0.00  0.00    +0.000 N 
ATOM     17  O   UNL     1       3.247   2.216  21.915  0.00  0.00    +0.000 OA
ENDBRANCH  10  16
ENDBRANCH   1  13
TORSDOF 3
ENDMDL
MODEL 2
REMARK VINA RESULT:      -6.7      1.050      1.076
REMARK  Name = 
REMARK  3 active torsions:
REMARK  status: ('A' for Active; 'I' for Inactive)
REMARK    1  A    between atoms: N_2  and  C_4
REMARK    2  A    between atoms: C_7  and  C_8
REMARK    3  A    between atoms: N_9  and  N_10
REMARK                            x       y       z     vdW  Elec       q    Type
REMARK                         _______ _______ _______ _____ _____    ______ ____
ROOT
ATOM      1  C   UNL     1       4.337   3.511  17.182  0.00  0.00    +0.000 C 
ATOM      2  N   UNL     1       4.521   4.778  16.991  0.00  0.00    +0.000 NA
ENDROOT
BRANCH   2   3
ATOM      3  N   UNL     1       5.481   5.166  16.100  0.00  0.00    +0.000 N 
ATOM      4  C   UNL     1       5.512   4.543  14.791  0.00  0.00    +0.000 C 
ATOM      5  C   UNL     1       6.963   4.657  14.358  0.00  0.00    +0.000 C 
ATOM      6  N   UNL     1       7.516   5.660  15.229  0.00  0.00    +0.000 N 
ATOM      7  C   UNL     1       6.726   5.784  16.376  0.00  0.00    +0.000 C 
ATOM      8  S   UNL     1       7.322   6.487  17.754  0.00  0.00    +0.000 S 
ATOM      9  H   UNL     1       8.503   5.883  15.283  0.00  0.00    +0.000 HD
ENDBRANCH   2   3
BRANCH   1  13
ATOM     10  C   UNL     1       2.223   2.981  19.978  0.00  0.00    +0.000 A 
ATOM     11  C   UNL     1       1.547   2.132  19.135  0.00  0.00    +0.000 A 
ATOM     12  C   UNL     1       2.243   2.197  17.903  0.00  0.00    +0.000 A 
ATOM     13  C   UNL     1       3.300   3.077  18.079  0.00  0.00    +0.000 A 
ATOM     14  O   UNL     1       3.284   3.570  19.359  0.00  0.00    +0.000 OA
BRANCH  10  16
ATOM     15  O   UNL     1       1.502   2.445  22.059  0.00  0.00    +0.000 OA
ATOM     16  N   UNL     1       1.999   3.327  21.347  0.00  0.00    +0.000 N 
ATOM     17  O   UNL     1       2.311   4.466  21.714  0.00  0.00    +0.000 OA
ENDBRANCH  10  16
ENDBRANCH   1  13
TORSDOF 3
ENDMDL
MODEL 3
REMARK VINA RESULT:      -6.5      1.219      1.536
REMARK  Name = 
REMARK  3 active torsions:
REMARK  status: ('A' for Active; 'I' for Inactive)
REMARK    1  A    between atoms: N_2  and  C_4
REMARK    2  A    between atoms: C_7  and  C_8
REMARK    3  A    between atoms: N_9  and  N_10
REMARK                            x       y       z     vdW  Elec       q    Type
REMARK                         _______ _______ _______ _____ _____    ______ ____
ROOT
ATOM      1  C   UNL     1       3.854   5.501  17.926  0.00  0.00    +0.000 C 
ATOM      2  N   UNL     1       4.876   4.763  17.630  0.00  0.00    +0.000 NA
ENDROOT
BRANCH   2   3
ATOM      3  N   UNL     1       5.620   5.095  16.535  0.00  0.00    +0.000 N 
ATOM      4  C   UNL     1       5.542   4.255  15.356  0.00  0.00    +0.000 C 
ATOM      5  C   UNL     1       6.878   4.460  14.662  0.00  0.00    +0.000 C 
ATOM      6  N   UNL     1       7.403   5.662  15.252  0.00  0.00    +0.000 N 
ATOM      7  C   UNL     1       6.788   5.896  16.486  0.00  0.00    +0.000 C 
ATOM      8  S   UNL     1       7.479   6.902  17.609  0.00  0.00    +0.000 S 
ATOM      9  H   UNL     1       8.343   6.007  15.096  0.00  0.00    +0.000 HD
ENDBRANCH   2   3
BRANCH   1  13
ATOM     10  C   UNL     1       2.423   3.978  20.789  0.00  0.00    +0.000 A 
ATOM     11  C   UNL     1       1.670   5.125  20.856  0.00  0.00    +0.000 A 
ATOM     12  C   UNL     1       2.100   5.918  19.764  0.00  0.00    +0.000 A 
ATOM     13  C   UNL     1       3.082   5.198  19.101  0.00  0.00    +0.000 A 
ATOM     14  O   UNL     1       3.289   4.002  19.739  0.00  0.00    +0.000 OA
BRANCH  10  16
ATOM     15  O   UNL     1       3.492   2.163  21.629  0.00  0.00    +0.000 OA
ATOM     16  N   UNL     1       2.435   2.808  21.612  0.00  0.00    +0.000 N 
ATOM     17  O   UNL     1       1.404   2.528  22.234  0.00  0.00    +0.000 OA
ENDBRANCH  10  16
ENDBRANCH   1  13
TORSDOF 3
ENDMDL
MODEL 4
REMARK VINA RESULT:      -6.4      3.565      6.791
REMARK  Name = 
REMARK  3 active torsions:
REMARK  status: ('A' for Active; 'I' for Inactive)
REMARK    1  A    between atoms: N_2  and  C_4
REMARK    2  A    between atoms: C_7  and  C_8
REMARK    3  A    between atoms: N_9  and  N_10
REMARK                            x       y       z     vdW  Elec       q    Type
REMARK                         _______ _______ _______ _____ _____    ______ ____
ROOT
ATOM      1  C   UNL     1       3.980   3.947  17.594  0.00  0.00    +0.000 C 
ATOM      2  N   UNL     1       3.919   3.504  18.809  0.00  0.00    +0.000 NA
ENDROOT
BRANCH   2   3
ATOM      3  N   UNL     1       2.700   3.144  19.308  0.00  0.00    +0.000 N 
ATOM      4  C   UNL     1       2.037   1.978  18.756  0.00  0.00    +0.000 C 
ATOM      5  C   UNL     1       0.559   2.243  18.990  0.00  0.00    +0.000 C 
ATOM      6  N   UNL     1       0.539   3.285  19.983  0.00  0.00    +0.000 N 
ATOM      7  C   UNL     1       1.765   3.958  19.994  0.00  0.00    +0.000 C 
ATOM      8  S   UNL     1       1.905   5.468  20.664  0.00  0.00    +0.000 S 
ATOM      9  H   UNL     1      -0.298   3.778  20.270  0.00  0.00    +0.000 HD
ENDBRANCH   2   3
BRANCH   1  13
ATOM     10  C   UNL     1       6.691   4.659  15.424  0.00  0.00    +0.000 A 
ATOM     11  C   UNL     1       7.400   4.832  16.587  0.00  0.00    +0.000 A 
ATOM     12  C   UNL     1       6.471   4.595  17.630  0.00  0.00    +0.000 A 
ATOM     13  C   UNL     1       5.259   4.288  17.032  0.00  0.00    +0.000 A 
ATOM     14  O   UNL     1       5.391   4.336  15.668  0.00  0.00    +0.000 OA
BRANCH  10  16
ATOM     15  O   UNL     1       7.964   5.592  13.796  0.00  0.00    +0.000 OA
ATOM     16  N   UNL     1       7.088   4.757  14.053  0.00  0.00    +0.000 N 
ATOM     17  O   UNL     1       6.532   4.012  13.237  0.00  0.00    +0.000 OA
ENDBRANCH  10  16
ENDBRANCH   1  13
TORSDOF 3
ENDMDL
MODEL 5
REMARK VINA RESULT:      -6.4      1.401      2.012
REMARK  Name = 
REMARK  3 active torsions:
REMARK  status: ('A' for Active; 'I' for Inactive)
REMARK    1  A    between atoms: N_2  and  C_4
REMARK    2  A    between atoms: C_7  and  C_8
REMARK    3  A    between atoms: N_9  and  N_10
REMARK                            x       y       z     vdW  Elec       q    Type
REMARK                         _______ _______ _______ _____ _____    ______ ____
ROOT
ATOM      1  C   UNL     1       4.099   4.853  18.025  0.00  0.00    +0.000 C 
ATOM      2  N   UNL     1       5.305   4.418  18.208  0.00  0.00    +0.000 NA
ENDROOT
BRANCH   2   3
ATOM      3  N   UNL     1       6.329   5.058  17.570  0.00  0.00    +0.000 N 
ATOM      4  C   UNL     1       6.977   6.173  18.233  0.00  0.00    +0.000 C 
ATOM      5  C   UNL     1       7.517   7.021  17.095  0.00  0.00    +0.000 C 
ATOM      6  N   UNL     1       7.499   6.141  15.957  0.00  0.00    +0.000 N 
ATOM      7  C   UNL     1       6.603   5.090  16.180  0.00  0.00    +0.000 C 
ATOM      8  S   UNL     1       6.007   4.192  14.921  0.00  0.00    +0.000 S 
ATOM      9  H   UNL     1       7.683   6.439  15.006  0.00  0.00    +0.000 HD
ENDBRANCH   2   3
BRANCH   1  13
ATOM     10  C   UNL     1       2.052   3.172  20.381  0.00  0.00    +0.000 A 
ATOM     11  C   UNL     1       1.069   3.326  19.434  0.00  0.00    +0.000 A 
ATOM     12  C   UNL     1       1.689   4.012  18.361  0.00  0.00    +0.000 A 
ATOM     13  C   UNL     1       3.010   4.225  18.723  0.00  0.00    +0.000 A 
ATOM     14  O   UNL     1       3.234   3.714  19.976  0.00  0.00    +0.000 OA
BRANCH  10  16
ATOM     15  O   UNL     1       3.112   2.114  22.082  0.00  0.00    +0.000 OA
ATOM     16  N   UNL     1       2.031   2.552  21.669  0.00  0.00    +0.000 N 
ATOM     17  O   UNL     1       0.950   2.498  22.267  0.00  0.00    +0.000 OA
ENDBRANCH  10  16
ENDBRANCH   1  13
TORSDOF 3
ENDMDL
MODEL 6
REMARK VINA RESULT:      -6.1      3.455      6.383
REMARK  Name = 
REMARK  3 active torsions:
REMARK  status: ('A' for Active; 'I' for Inactive)
REMARK    1  A    between atoms: N_2  and  C_4
REMARK    2  A    between atoms: C_7  and  C_8
REMARK    3  A    between atoms: N_9  and  N_10
REMARK                            x       y       z     vdW  Elec       q    Type
REMARK                         _______ _______ _______ _____ _____    ______ ____
ROOT
ATOM      1  C   UNL     1       4.091   3.943  17.530  0.00  0.00    +0.000 C 
ATOM      2  N   UNL     1       3.811   3.976  18.794  0.00  0.00    +0.000 NA
ENDROOT
BRANCH   2   3
ATOM      3  N   UNL     1       2.670   3.359  19.222  0.00  0.00    +0.000 N 
ATOM      4  C   UNL     1       2.210   2.179  18.516  0.00  0.00    +0.000 C 
ATOM      5  C   UNL     1       0.709   2.163  18.756  0.00  0.00    +0.000 C 
ATOM      6  N   UNL     1       0.520   3.052  19.871  0.00  0.00    +0.000 N 
ATOM      7  C   UNL     1       1.616   3.912  19.988  0.00  0.00    +0.000 C 
ATOM      8  S   UNL     1       1.505   5.327  20.845  0.00  0.00    +0.000 S 
ATOM      9  H   UNL     1      -0.387   3.359  20.203  0.00  0.00    +0.000 HD
ENDBRANCH   2   3
BRANCH   1  13
ATOM     10  C   UNL     1       6.971   5.966  17.101  0.00  0.00    +0.000 A 
ATOM     11  C   UNL     1       7.178   5.196  15.982  0.00  0.00    +0.000 A 
ATOM     12  C   UNL     1       6.104   4.273  15.959  0.00  0.00    +0.000 A 
ATOM     13  C   UNL     1       5.310   4.546  17.063  0.00  0.00    +0.000 A 
ATOM     14  O   UNL     1       5.849   5.586  17.775  0.00  0.00    +0.000 OA
BRANCH  10  16
ATOM     15  O   UNL     1       7.729   8.098  16.970  0.00  0.00    +0.000 OA
ATOM     16  N   UNL     1       7.713   7.060  17.644  0.00  0.00    +0.000 N 
ATOM     17  O   UNL     1       8.280   6.891  18.730  0.00  0.00    +0.000 OA
ENDBRANCH  10  16
ENDBRANCH   1  13
TORSDOF 3
ENDMDL
MODEL 7
REMARK VINA RESULT:      -6.1      4.754      7.027
REMARK  Name = 
REMARK  3 active torsions:
REMARK  status: ('A' for Active; 'I' for Inactive)
REMARK    1  A    between atoms: N_2  and  C_4
REMARK    2  A    between atoms: C_7  and  C_8
REMARK    3  A    between atoms: N_9  and  N_10
REMARK                            x       y       z     vdW  Elec       q    Type
REMARK                         _______ _______ _______ _____ _____    ______ ____
ROOT
ATOM      1  C   UNL     1       6.898   4.551  15.569  0.00  0.00    +0.000 C 
ATOM      2  N   UNL     1       6.450   5.652  16.083  0.00  0.00    +0.000 NA
ENDROOT
BRANCH   2   3
ATOM      3  N   UNL     1       6.568   5.834  17.431  0.00  0.00    +0.000 N 
ATOM      4  C   UNL     1       7.724   6.546  17.941  0.00  0.00    +0.000 C 
ATOM      5  C   UNL     1       7.903   6.007  19.350  0.00  0.00    +0.000 C 
ATOM      6  N   UNL     1       6.644   5.379  19.652  0.00  0.00    +0.000 N 
ATOM      7  C   UNL     1       5.963   5.080  18.467  0.00  0.00    +0.000 C 
ATOM      8  S   UNL     1       4.740   3.961  18.443  0.00  0.00    +0.000 S 
ATOM      9  H   UNL     1       6.476   4.811  20.474  0.00  0.00    +0.000 HD
ENDBRANCH   2   3
BRANCH   1  13
ATOM     10  C   UNL     1       6.088   3.466  12.293  0.00  0.00    +0.000 A 
ATOM     11  C   UNL     1       7.062   4.353  11.905  0.00  0.00    +0.000 A 
ATOM     12  C   UNL     1       7.539   4.933  13.105  0.00  0.00    +0.000 A 
ATOM     13  C   UNL     1       6.827   4.358  14.146  0.00  0.00    +0.000 A 
ATOM     14  O   UNL     1       5.922   3.457  13.645  0.00  0.00    +0.000 OA
BRANCH  10  16
ATOM     15  O   UNL     1       5.732   1.471  11.278  0.00  0.00    +0.000 OA
ATOM     16  N   UNL     1       5.257   2.585  11.534  0.00  0.00    +0.000 N 
ATOM     17  O   UNL     1       4.142   2.995  11.189  0.00  0.00    +0.000 OA
ENDBRANCH  10  16
ENDBRANCH   1  13
TORSDOF 3
ENDMDL
MODEL 8
REMARK VINA RESULT:      -6.1      3.539      6.776
REMARK  Name = 
REMARK  3 active torsions:
REMARK  status: ('A' for Active; 'I' for Inactive)
REMARK    1  A    between atoms: N_2  and  C_4
REMARK    2  A    between atoms: C_7  and  C_8
REMARK    3  A    between atoms: N_9  and  N_10
REMARK                            x       y       z     vdW  Elec       q    Type
REMARK                         _______ _______ _______ _____ _____    ______ ____
ROOT
ATOM      1  C   UNL     1       3.693   4.495  18.309  0.00  0.00    +0.000 C 
ATOM      2  N   UNL     1       2.587   4.995  18.760  0.00  0.00    +0.000 NA
ENDROOT
BRANCH   2   3
ATOM      3  N   UNL     1       1.968   4.364  19.801  0.00  0.00    +0.000 N 
ATOM      4  C   UNL     1       2.391   4.670  21.153  0.00  0.00    +0.000 C 
ATOM      5  C   UNL     1       2.050   3.418  21.943  0.00  0.00    +0.000 C 
ATOM      6  N   UNL     1       1.124   2.709  21.101  0.00  0.00    +0.000 N 
ATOM      7  C   UNL     1       1.256   3.139  19.777  0.00  0.00    +0.000 C 
ATOM      8  S   UNL     1       0.692   2.220  18.518  0.00  0.00    +0.000 S 
ATOM      9  H   UNL     1       0.797   1.767  21.283  0.00  0.00    +0.000 HD
ENDBRANCH   2   3
BRANCH   1  13
ATOM     10  C   UNL     1       5.740   5.320  15.535  0.00  0.00    +0.000 A 
ATOM     11  C   UNL     1       5.282   6.597  15.749  0.00  0.00    +0.000 A 
ATOM     12  C   UNL     1       4.403   6.498  16.855  0.00  0.00    +0.000 A 
ATOM     13  C   UNL     1       4.388   5.167  17.244  0.00  0.00    +0.000 A 
ATOM     14  O   UNL     1       5.208   4.436  16.423  0.00  0.00    +0.000 OA
BRANCH  10  16
ATOM     15  O   UNL     1       6.302   3.761  13.988  0.00  0.00    +0.000 OA
ATOM     16  N   UNL     1       6.654   4.796  14.568  0.00  0.00    +0.000 N 
ATOM     17  O   UNL     1       7.716   5.403  14.388  0.00  0.00    +0.000 OA
ENDBRANCH  10  16
ENDBRANCH   1  13
TORSDOF 3
ENDMDL
MODEL 9
REMARK VINA RESULT:      -5.9      3.415      6.833
REMARK  Name = 
REMARK  3 active torsions:
REMARK  status: ('A' for Active; 'I' for Inactive)
REMARK    1  A    between atoms: N_2  and  C_4
REMARK    2  A    between atoms: C_7  and  C_8
REMARK    3  A    between atoms: N_9  and  N_10
REMARK                            x       y       z     vdW  Elec       q    Type
REMARK                         _______ _______ _______ _____ _____    ______ ____
ROOT
ATOM      1  C   UNL     1       4.486   4.043  18.992  0.00  0.00    +0.000 C 
ATOM      2  N   UNL     1       3.427   4.739  19.260  0.00  0.00    +0.000 NA
ENDROOT
BRANCH   2   3
ATOM      3  N   UNL     1       2.462   4.174  20.044  0.00  0.00    +0.000 N 
ATOM      4  C   UNL     1       2.576   4.293  21.484  0.00  0.00    +0.000 C 
ATOM      5  C   UNL     1       1.828   3.083  22.019  0.00  0.00    +0.000 C 
ATOM      6  N   UNL     1       1.035   2.636  20.905  0.00  0.00    +0.000 N 
ATOM      7  C   UNL     1       1.573   3.123  19.709  0.00  0.00    +0.000 C 
ATOM      8  S   UNL     1       1.192   2.427  18.254  0.00  0.00    +0.000 S 
ATOM      9  H   UNL     1       0.511   1.769  20.893  0.00  0.00    +0.000 HD
ENDBRANCH   2   3
BRANCH   1  13
ATOM     10  C   UNL     1       6.727   4.968  16.405  0.00  0.00    +0.000 A 
ATOM     11  C   UNL     1       7.301   5.759  17.371  0.00  0.00    +0.000 A 
ATOM     12  C   UNL     1       6.527   5.545  18.537  0.00  0.00    +0.000 A 
ATOM     13  C   UNL     1       5.536   4.633  18.207  0.00  0.00    +0.000 A 
ATOM     14  O   UNL     1       5.653   4.282  16.886  0.00  0.00    +0.000 OA
BRANCH  10  16
ATOM     15  O   UNL     1       7.927   5.512  14.561  0.00  0.00    +0.000 OA
ATOM     16  N   UNL     1       7.068   4.756  15.033  0.00  0.00    +0.000 N 
ATOM     17  O   UNL     1       6.486   3.849  14.426  0.00  0.00    +0.000 OA
ENDBRANCH  10  16
ENDBRANCH   1  13
TORSDOF 3
ENDMDL
