MODEL 1
REMARK VINA RESULT:      -8.7      0.000      0.000
REMARK  Name = 
REMARK  2 active torsions:
REMARK  status: ('A' for Active; 'I' for Inactive)
REMARK    1  A    between atoms: C_2  and  C_3
REMARK    2  A    between atoms: C_3  and  N_4
REMARK                            x       y       z     vdW  Elec       q    Type
REMARK                         _______ _______ _______ _____ _____    ______ ____
ROOT
ATOM      1  O   UNL     1       6.794   7.193  17.903  0.00  0.00    +0.000 OA
ATOM      2  C   UNL     1       6.254   6.496  17.037  0.00  0.00    +0.000 C 
ATOM      3  N   UNL     1       7.080   5.953  16.096  0.00  0.00    +0.000 N 
ATOM      4  C   UNL     1       6.699   5.184  15.037  0.00  0.00    +0.000 A 
ATOM      5  N   UNL     1       5.487   4.831  14.704  0.00  0.00    +0.000 NA
ATOM      6  C   UNL     1       5.603   4.112  13.546  0.00  0.00    +0.000 A 
ATOM      7  C   UNL     1       4.613   3.531  12.745  0.00  0.00    +0.000 A 
ATOM      8  C   UNL     1       4.996   2.840  11.588  0.00  0.00    +0.000 A 
ATOM      9  C   UNL     1       6.344   2.746  11.236  0.00  0.00    +0.000 A 
ATOM     10  C   UNL     1       7.352   3.320  12.025  0.00  0.00    +0.000 A 
ATOM     11  C   UNL     1       6.934   3.998  13.170  0.00  0.00    +0.000 A 
ATOM     12  N   UNL     1       7.615   4.677  14.150  0.00  0.00    +0.000 N 
ATOM     13  H   UNL     1       8.054   6.175  16.240  0.00  0.00    +0.000 HD
ATOM     14  H   UNL     1       8.614   4.800  14.201  0.00  0.00    +0.000 HD
ENDROOT
BRANCH   2  15
ATOM     15  C   UNL     1       4.732   6.309  17.023  0.00  0.00    +0.000 C 
BRANCH  15  16
ATOM     16  N   UNL     1       4.275   5.547  18.175  0.00  0.00    +0.000 N 
ATOM     17  C   UNL     1       4.295   4.177  18.208  0.00  0.00    +0.000 C 
ATOM     18  O   UNL     1       4.642   3.426  17.310  0.00  0.00    +0.000 OA
ATOM     19  C   UNL     1       3.712   3.716  19.523  0.00  0.00    +0.000 C 
ATOM     20  C   UNL     1       2.576   2.684  19.360  0.00  0.00    +0.000 C 
ATOM     21  C   UNL     1       1.896   2.460  20.702  0.00  0.00    +0.000 C 
ATOM     22  C   UNL     1       1.213   3.577  20.999  0.00  0.00    +0.000 C 
ATOM     23  C   UNL     1       1.479   4.564  19.887  0.00  0.00    +0.000 C 
ATOM     24  C   UNL     1       1.481   3.554  18.729  0.00  0.00    +0.000 C 
ATOM     25  C   UNL     1       2.967   4.969  20.021  0.00  0.00    +0.000 C 
ATOM     26  C   UNL     1       3.373   6.057  19.070  0.00  0.00    +0.000 C 
ATOM     27  O   UNL     1       2.859   7.165  19.072  0.00  0.00    +0.000 OA
ENDBRANCH  15  16
ENDBRANCH   2  15
TORSDOF 2
ENDMDL
MODEL 2
REMARK VINA RESULT:      -8.2      1.481      1.791
REMARK  Name = 
REMARK  2 active torsions:
REMARK  status: ('A' for Active; 'I' for Inactive)
REMARK    1  A    between atoms: C_2  and  C_3
REMARK    2  A    between atoms: C_3  and  N_4
REMARK                            x       y       z     vdW  Elec       q    Type
REMARK                         _______ _______ _______ _____ _____    ______ ____
ROOT
ATOM      1  O   UNL     1       7.195   5.537  19.312  0.00  0.00    +0.000 OA
ATOM      2  C   UNL     1       6.937   4.964  18.248  0.00  0.00    +0.000 C 
ATOM      3  N   UNL     1       7.450   5.529  17.117  0.00  0.00    +0.000 N 
ATOM      4  C   UNL     1       7.265   5.088  15.841  0.00  0.00    +0.000 A 
ATOM      5  N   UNL     1       6.558   4.063  15.446  0.00  0.00    +0.000 NA
ATOM      6  C   UNL     1       6.630   4.053  14.080  0.00  0.00    +0.000 A 
ATOM      7  C   UNL     1       6.028   3.192  13.154  0.00  0.00    +0.000 A 
ATOM      8  C   UNL     1       6.257   3.399  11.788  0.00  0.00    +0.000 A 
ATOM      9  C   UNL     1       7.063   4.454  11.360  0.00  0.00    +0.000 A 
ATOM     10  C   UNL     1       7.677   5.328  12.270  0.00  0.00    +0.000 A 
ATOM     11  C   UNL     1       7.428   5.091  13.622  0.00  0.00    +0.000 A 
ATOM     12  N   UNL     1       7.835   5.726  14.769  0.00  0.00    +0.000 N 
ATOM     13  H   UNL     1       8.007   6.352  17.295  0.00  0.00    +0.000 HD
ATOM     14  H   UNL     1       8.435   6.535  14.817  0.00  0.00    +0.000 HD
ENDROOT
BRANCH   2  15
ATOM     15  C   UNL     1       6.049   3.714  18.230  0.00  0.00    +0.000 C 
BRANCH  15  16
ATOM     16  N   UNL     1       4.855   3.894  19.043  0.00  0.00    +0.000 N 
ATOM     17  C   UNL     1       4.491   3.010  20.025  0.00  0.00    +0.000 C 
ATOM     18  O   UNL     1       5.059   1.972  20.326  0.00  0.00    +0.000 OA
ATOM     19  C   UNL     1       3.187   3.472  20.633  0.00  0.00    +0.000 C 
ATOM     20  C   UNL     1       2.102   2.376  20.656  0.00  0.00    +0.000 C 
ATOM     21  C   UNL     1       0.769   2.989  21.057  0.00  0.00    +0.000 C 
ATOM     22  C   UNL     1       0.358   3.763  20.040  0.00  0.00    +0.000 C 
ATOM     23  C   UNL     1       1.437   3.712  18.984  0.00  0.00    +0.000 C 
ATOM     24  C   UNL     1       1.805   2.230  19.157  0.00  0.00    +0.000 C 
ATOM     25  C   UNL     1       2.655   4.461  19.579  0.00  0.00    +0.000 C 
ATOM     26  C   UNL     1       3.784   4.625  18.604  0.00  0.00    +0.000 C 
ATOM     27  O   UNL     1       3.667   5.231  17.551  0.00  0.00    +0.000 OA
ENDBRANCH  15  16
ENDBRANCH   2  15
TORSDOF 2
ENDMDL
MODEL 3
REMARK VINA RESULT:      -8.1      3.304      7.550
REMARK  Name = 
REMARK  2 active torsions:
REMARK  status: ('A' for Active; 'I' for Inactive)
REMARK    1  A    between atoms: C_2  and  C_3
REMARK    2  A    between atoms: C_3  and  N_4
REMARK                            x       y       z     vdW  Elec       q    Type
REMARK                         _______ _______ _______ _____ _____    ______ ____
ROOT
ATOM      1  O   UNL     1       2.250   3.916  21.222  0.00  0.00    +0.000 OA
ATOM      2  C   UNL     1       2.061   4.949  20.570  0.00  0.00    +0.000 C 
ATOM      3  N   UNL     1       1.891   6.095  21.290  0.00  0.00    +0.000 N 
ATOM      4  C   UNL     1       1.637   7.335  20.784  0.00  0.00    +0.000 A 
ATOM      5  N   UNL     1       1.492   7.669  19.530  0.00  0.00    +0.000 NA
ATOM      6  C   UNL     1       1.200   9.006  19.522  0.00  0.00    +0.000 A 
ATOM      7  C   UNL     1       0.916   9.858  18.447  0.00  0.00    +0.000 A 
ATOM      8  C   UNL     1       0.640  11.206  18.707  0.00  0.00    +0.000 A 
ATOM      9  C   UNL     1       0.636  11.686  20.018  0.00  0.00    +0.000 A 
ATOM     10  C   UNL     1       0.919  10.850  21.109  0.00  0.00    +0.000 A 
ATOM     11  C   UNL     1       1.191   9.514  20.813  0.00  0.00    +0.000 A 
ATOM     12  N   UNL     1       1.491   8.429  21.598  0.00  0.00    +0.000 N 
ATOM     13  H   UNL     1       1.963   5.958  22.288  0.00  0.00    +0.000 HD
ATOM     14  H   UNL     1       1.572   8.429  22.603  0.00  0.00    +0.000 HD
ENDROOT
BRANCH   2  15
ATOM     15  C   UNL     1       1.983   4.903  19.039  0.00  0.00    +0.000 C 
BRANCH  15  16
ATOM     16  N   UNL     1       3.245   4.481  18.451  0.00  0.00    +0.000 N 
ATOM     17  C   UNL     1       4.422   5.147  18.674  0.00  0.00    +0.000 C 
ATOM     18  O   UNL     1       4.577   6.164  19.332  0.00  0.00    +0.000 OA
ATOM     19  C   UNL     1       5.517   4.474  17.879  0.00  0.00    +0.000 C 
ATOM     20  C   UNL     1       6.312   5.450  16.987  0.00  0.00    +0.000 C 
ATOM     21  C   UNL     1       7.220   4.662  16.056  0.00  0.00    +0.000 C 
ATOM     22  C   UNL     1       6.439   4.042  15.159  0.00  0.00    +0.000 C 
ATOM     23  C   UNL     1       5.009   4.369  15.520  0.00  0.00    +0.000 C 
ATOM     24  C   UNL     1       5.247   5.826  15.947  0.00  0.00    +0.000 C 
ATOM     25  C   UNL     1       4.726   3.639  16.855  0.00  0.00    +0.000 C 
ATOM     26  C   UNL     1       3.296   3.745  17.297  0.00  0.00    +0.000 C 
ATOM     27  O   UNL     1       2.364   3.322  16.633  0.00  0.00    +0.000 OA
ENDBRANCH  15  16
ENDBRANCH   2  15
TORSDOF 2
ENDMDL
MODEL 4
REMARK VINA RESULT:      -7.8      4.172      8.010
REMARK  Name = 
REMARK  2 active torsions:
REMARK  status: ('A' for Active; 'I' for Inactive)
REMARK    1  A    between atoms: C_2  and  C_3
REMARK    2  A    between atoms: C_3  and  N_4
REMARK                            x       y       z     vdW  Elec       q    Type
REMARK                         _______ _______ _______ _____ _____    ______ ____
ROOT
ATOM      1  O   UNL     1       2.957   8.316  16.726  0.00  0.00    +0.000 OA
ATOM      2  C   UNL     1       2.463   8.394  17.856  0.00  0.00    +0.000 C 
ATOM      3  N   UNL     1       1.553   9.393  18.049  0.00  0.00    +0.000 N 
ATOM      4  C   UNL     1       0.913   9.684  19.216  0.00  0.00    +0.000 A 
ATOM      5  N   UNL     1       1.049   9.088  20.370  0.00  0.00    +0.000 NA
ATOM      6  C   UNL     1       0.245   9.764  21.247  0.00  0.00    +0.000 A 
ATOM      7  C   UNL     1       0.042   9.565  22.618  0.00  0.00    +0.000 A 
ATOM      8  C   UNL     1      -0.843  10.409  23.301  0.00  0.00    +0.000 A 
ATOM      9  C   UNL     1      -1.501  11.437  22.625  0.00  0.00    +0.000 A 
ATOM     10  C   UNL     1      -1.315  11.652  21.251  0.00  0.00    +0.000 A 
ATOM     11  C   UNL     1      -0.427  10.793  20.603  0.00  0.00    +0.000 A 
ATOM     12  N   UNL     1       0.004  10.708  19.303  0.00  0.00    +0.000 N 
ATOM     13  H   UNL     1       1.376   9.942  17.221  0.00  0.00    +0.000 HD
ATOM     14  H   UNL     1      -0.281  11.307  18.543  0.00  0.00    +0.000 HD
ENDROOT
BRANCH   2  15
ATOM     15  C   UNL     1       2.904   7.436  18.968  0.00  0.00    +0.000 C 
BRANCH  15  16
ATOM     16  N   UNL     1       2.597   6.053  18.637  0.00  0.00    +0.000 N 
ATOM     17  C   UNL     1       1.815   5.259  19.435  0.00  0.00    +0.000 C 
ATOM     18  O   UNL     1       1.316   5.561  20.508  0.00  0.00    +0.000 OA
ATOM     19  C   UNL     1       1.740   3.880  18.822  0.00  0.00    +0.000 C 
ATOM     20  C   UNL     1       2.117   2.753  19.807  0.00  0.00    +0.000 C 
ATOM     21  C   UNL     1       2.246   1.440  19.050  0.00  0.00    +0.000 C 
ATOM     22  C   UNL     1       3.348   1.520  18.288  0.00  0.00    +0.000 C 
ATOM     23  C   UNL     1       3.924   2.901  18.492  0.00  0.00    +0.000 C 
ATOM     24  C   UNL     1       3.617   3.018  19.993  0.00  0.00    +0.000 C 
ATOM     25  C   UNL     1       2.924   3.884  17.837  0.00  0.00    +0.000 C 
ATOM     26  C   UNL     1       3.408   5.304  17.827  0.00  0.00    +0.000 C 
ATOM     27  O   UNL     1       4.434   5.651  17.263  0.00  0.00    +0.000 OA
ENDBRANCH  15  16
ENDBRANCH   2  15
TORSDOF 2
ENDMDL
MODEL 5
REMARK VINA RESULT:      -7.8      3.536      7.803
REMARK  Name = 
REMARK  2 active torsions:
REMARK  status: ('A' for Active; 'I' for Inactive)
REMARK    1  A    between atoms: C_2  and  C_3
REMARK    2  A    between atoms: C_3  and  N_4
REMARK                            x       y       z     vdW  Elec       q    Type
REMARK                         _______ _______ _______ _____ _____    ______ ____
ROOT
ATOM      1  O   UNL     1       2.280   4.463  21.101  0.00  0.00    +0.000 OA
ATOM      2  C   UNL     1       2.088   5.520  20.491  0.00  0.00    +0.000 C 
ATOM      3  N   UNL     1       1.761   6.605  21.251  0.00  0.00    +0.000 N 
ATOM      4  C   UNL     1       1.474   7.855  20.790  0.00  0.00    +0.000 A 
ATOM      5  N   UNL     1       1.439   8.257  19.548  0.00  0.00    +0.000 NA
ATOM      6  C   UNL     1       1.054   9.570  19.582  0.00  0.00    +0.000 A 
ATOM      7  C   UNL     1       0.825  10.468  18.532  0.00  0.00    +0.000 A 
ATOM      8  C   UNL     1       0.427  11.777  18.835  0.00  0.00    +0.000 A 
ATOM      9  C   UNL     1       0.251  12.171  20.162  0.00  0.00    +0.000 A 
ATOM     10  C   UNL     1       0.477  11.289  21.229  0.00  0.00    +0.000 A 
ATOM     11  C   UNL     1       0.873   9.994  20.891  0.00  0.00    +0.000 A 
ATOM     12  N   UNL     1       1.166   8.884  21.643  0.00  0.00    +0.000 N 
ATOM     13  H   UNL     1       1.738   6.410  22.241  0.00  0.00    +0.000 HD
ATOM     14  H   UNL     1       1.140   8.826  22.649  0.00  0.00    +0.000 HD
ENDROOT
BRANCH   2  15
ATOM     15  C   UNL     1       2.175   5.565  18.961  0.00  0.00    +0.000 C 
BRANCH  15  16
ATOM     16  N   UNL     1       3.544   5.400  18.496  0.00  0.00    +0.000 N 
ATOM     17  C   UNL     1       4.227   6.394  17.846  0.00  0.00    +0.000 C 
ATOM     18  O   UNL     1       3.802   7.496  17.537  0.00  0.00    +0.000 OA
ATOM     19  C   UNL     1       5.594   5.874  17.467  0.00  0.00    +0.000 C 
ATOM     20  C   UNL     1       5.926   6.061  15.971  0.00  0.00    +0.000 C 
ATOM     21  C   UNL     1       7.201   5.304  15.635  0.00  0.00    +0.000 C 
ATOM     22  C   UNL     1       6.919   3.993  15.693  0.00  0.00    +0.000 C 
ATOM     23  C   UNL     1       5.475   3.872  16.119  0.00  0.00    +0.000 C 
ATOM     24  C   UNL     1       4.940   5.077  15.329  0.00  0.00    +0.000 C 
ATOM     25  C   UNL     1       5.421   4.348  17.591  0.00  0.00    +0.000 C 
ATOM     26  C   UNL     1       4.072   4.167  18.224  0.00  0.00    +0.000 C 
ATOM     27  O   UNL     1       3.538   3.076  18.343  0.00  0.00    +0.000 OA
ENDBRANCH  15  16
ENDBRANCH   2  15
TORSDOF 2
ENDMDL
MODEL 6
REMARK VINA RESULT:      -7.7      3.418      6.010
REMARK  Name = 
REMARK  2 active torsions:
REMARK  status: ('A' for Active; 'I' for Inactive)
REMARK    1  A    between atoms: C_2  and  C_3
REMARK    2  A    between atoms: C_3  and  N_4
REMARK                            x       y       z     vdW  Elec       q    Type
REMARK                         _______ _______ _______ _____ _____    ______ ____
ROOT
ATOM      1  O   UNL     1       7.420   4.787  18.545  0.00  0.00    +0.000 OA
ATOM      2  C   UNL     1       7.428   5.958  18.149  0.00  0.00    +0.000 C 
ATOM      3  N   UNL     1       8.229   6.823  18.837  0.00  0.00    +0.000 N 
ATOM      4  C   UNL     1       8.365   8.158  18.598  0.00  0.00    +0.000 A 
ATOM      5  N   UNL     1       7.755   8.871  17.690  0.00  0.00    +0.000 NA
ATOM      6  C   UNL     1       8.174  10.161  17.873  0.00  0.00    +0.000 A 
ATOM      7  C   UNL     1       7.805  11.330  17.196  0.00  0.00    +0.000 A 
ATOM      8  C   UNL     1       8.383  12.547  17.583  0.00  0.00    +0.000 A 
ATOM      9  C   UNL     1       9.300  12.590  18.634  0.00  0.00    +0.000 A 
ATOM     10  C   UNL     1       9.684  11.430  19.324  0.00  0.00    +0.000 A 
ATOM     11  C   UNL     1       9.091  10.237  18.911  0.00  0.00    +0.000 A 
ATOM     12  N   UNL     1       9.208   8.940  19.345  0.00  0.00    +0.000 N 
ATOM     13  H   UNL     1       8.744   6.384  19.586  0.00  0.00    +0.000 HD
ATOM     14  H   UNL     1       9.798   8.618  20.097  0.00  0.00    +0.000 HD
ENDROOT
BRANCH   2  15
ATOM     15  C   UNL     1       6.540   6.391  16.977  0.00  0.00    +0.000 C 
BRANCH  15  16
ATOM     16  N   UNL     1       5.269   5.683  16.977  0.00  0.00    +0.000 N 
ATOM     17  C   UNL     1       4.287   5.930  17.901  0.00  0.00    +0.000 C 
ATOM     18  O   UNL     1       4.340   6.710  18.839  0.00  0.00    +0.000 OA
ATOM     19  C   UNL     1       3.131   4.993  17.640  0.00  0.00    +0.000 C 
ATOM     20  C   UNL     1       2.694   4.199  18.889  0.00  0.00    +0.000 C 
ATOM     21  C   UNL     1       1.699   3.122  18.484  0.00  0.00    +0.000 C 
ATOM     22  C   UNL     1       2.372   2.193  17.787  0.00  0.00    +0.000 C 
ATOM     23  C   UNL     1       3.800   2.672  17.679  0.00  0.00    +0.000 C 
ATOM     24  C   UNL     1       3.906   3.279  19.087  0.00  0.00    +0.000 C 
ATOM     25  C   UNL     1       3.768   3.909  16.750  0.00  0.00    +0.000 C 
ATOM     26  C   UNL     1       5.132   4.440  16.421  0.00  0.00    +0.000 C 
ATOM     27  O   UNL     1       5.980   3.775  15.845  0.00  0.00    +0.000 OA
ENDBRANCH  15  16
ENDBRANCH   2  15
TORSDOF 2
ENDMDL
MODEL 7
REMARK VINA RESULT:      -7.4      5.400      8.028
REMARK  Name = 
REMARK  2 active torsions:
REMARK  status: ('A' for Active; 'I' for Inactive)
REMARK    1  A    between atoms: C_2  and  C_3
REMARK    2  A    between atoms: C_3  and  N_4
REMARK                            x       y       z     vdW  Elec       q    Type
REMARK                         _______ _______ _______ _____ _____    ______ ____
ROOT
ATOM      1  O   UNL     1       2.096   9.943  17.509  0.00  0.00    +0.000 OA
ATOM      2  C   UNL     1       1.998   8.996  18.298  0.00  0.00    +0.000 C 
ATOM      3  N   UNL     1       2.796   7.918  18.051  0.00  0.00    +0.000 N 
ATOM      4  C   UNL     1       2.828   6.758  18.766  0.00  0.00    +0.000 A 
ATOM      5  N   UNL     1       2.103   6.443  19.805  0.00  0.00    +0.000 NA
ATOM      6  C   UNL     1       2.452   5.163  20.142  0.00  0.00    +0.000 A 
ATOM      7  C   UNL     1       1.958   4.332  21.154  0.00  0.00    +0.000 A 
ATOM      8  C   UNL     1       2.486   3.042  21.290  0.00  0.00    +0.000 A 
ATOM      9  C   UNL     1       3.482   2.592  20.421  0.00  0.00    +0.000 A 
ATOM     10  C   UNL     1       3.993   3.409  19.401  0.00  0.00    +0.000 A 
ATOM     11  C   UNL     1       3.444   4.687  19.296  0.00  0.00    +0.000 A 
ATOM     12  N   UNL     1       3.678   5.733  18.438  0.00  0.00    +0.000 N 
ATOM     13  H   UNL     1       3.397   8.038  17.248  0.00  0.00    +0.000 HD
ATOM     14  H   UNL     1       4.346   5.742  17.682  0.00  0.00    +0.000 HD
ENDROOT
BRANCH   2  15
ATOM     15  C   UNL     1       0.992   9.046  19.454  0.00  0.00    +0.000 C 
BRANCH  15  16
ATOM     16  N   UNL     1       0.615  10.413  19.779  0.00  0.00    +0.000 N 
ATOM     17  C   UNL     1       0.891  10.986  20.992  0.00  0.00    +0.000 C 
ATOM     18  O   UNL     1       1.429  10.454  21.950  0.00  0.00    +0.000 OA
ATOM     19  C   UNL     1       0.323  12.387  21.007  0.00  0.00    +0.000 C 
ATOM     20  C   UNL     1      -0.585  12.665  22.223  0.00  0.00    +0.000 C 
ATOM     21  C   UNL     1      -1.294  13.997  22.033  0.00  0.00    +0.000 C 
ATOM     22  C   UNL     1      -2.193  13.839  21.049  0.00  0.00    +0.000 C 
ATOM     23  C   UNL     1      -2.049  12.422  20.545  0.00  0.00    +0.000 C 
ATOM     24  C   UNL     1      -1.783  11.760  21.906  0.00  0.00    +0.000 C 
ATOM     25  C   UNL     1      -0.675  12.359  19.833  0.00  0.00    +0.000 C 
ATOM     26  C   UNL     1      -0.422  11.048  19.148  0.00  0.00    +0.000 C 
ATOM     27  O   UNL     1      -1.134  10.619  18.254  0.00  0.00    +0.000 OA
ENDBRANCH  15  16
ENDBRANCH   2  15
TORSDOF 2
ENDMDL
MODEL 8
REMARK VINA RESULT:      -7.3      1.091      1.203
REMARK  Name = 
REMARK  2 active torsions:
REMARK  status: ('A' for Active; 'I' for Inactive)
REMARK    1  A    between atoms: C_2  and  C_3
REMARK    2  A    between atoms: C_3  and  N_4
REMARK                            x       y       z     vdW  Elec       q    Type
REMARK                         _______ _______ _______ _____ _____    ______ ____
ROOT
ATOM      1  O   UNL     1       5.439   7.038  17.619  0.00  0.00    +0.000 OA
ATOM      2  C   UNL     1       5.295   6.158  16.763  0.00  0.00    +0.000 C 
ATOM      3  N   UNL     1       6.280   6.062  15.824  0.00  0.00    +0.000 N 
ATOM      4  C   UNL     1       6.310   5.193  14.774  0.00  0.00    +0.000 A 
ATOM      5  N   UNL     1       5.411   4.303  14.450  0.00  0.00    +0.000 NA
ATOM      6  C   UNL     1       5.855   3.713  13.298  0.00  0.00    +0.000 A 
ATOM      7  C   UNL     1       5.260   2.722  12.508  0.00  0.00    +0.000 A 
ATOM      8  C   UNL     1       5.926   2.283  11.356  0.00  0.00    +0.000 A 
ATOM      9  C   UNL     1       7.157   2.836  11.000  0.00  0.00    +0.000 A 
ATOM     10  C   UNL     1       7.772   3.828  11.778  0.00  0.00    +0.000 A 
ATOM     11  C   UNL     1       7.081   4.240  12.918  0.00  0.00    +0.000 A 
ATOM     12  N   UNL     1       7.357   5.171  13.888  0.00  0.00    +0.000 N 
ATOM     13  H   UNL     1       7.032   6.721  15.961  0.00  0.00    +0.000 HD
ATOM     14  H   UNL     1       8.179   5.754  13.933  0.00  0.00    +0.000 HD
ENDROOT
BRANCH   2  15
ATOM     15  C   UNL     1       4.044   5.272  16.758  0.00  0.00    +0.000 C 
BRANCH  15  16
ATOM     16  N   UNL     1       3.571   5.004  18.108  0.00  0.00    +0.000 N 
ATOM     17  C   UNL     1       4.272   4.228  18.994  0.00  0.00    +0.000 C 
ATOM     18  O   UNL     1       5.321   3.640  18.785  0.00  0.00    +0.000 OA
ATOM     19  C   UNL     1       3.478   4.120  20.275  0.00  0.00    +0.000 C 
ATOM     20  C   UNL     1       3.259   2.664  20.738  0.00  0.00    +0.000 C 
ATOM     21  C   UNL     1       2.261   2.641  21.885  0.00  0.00    +0.000 C 
ATOM     22  C   UNL     1       1.057   2.954  21.381  0.00  0.00    +0.000 C 
ATOM     23  C   UNL     1       1.258   3.240  19.911  0.00  0.00    +0.000 C 
ATOM     24  C   UNL     1       2.310   2.152  19.645  0.00  0.00    +0.000 C 
ATOM     25  C   UNL     1       2.067   4.557  19.837  0.00  0.00    +0.000 C 
ATOM     26  C   UNL     1       2.244   5.067  18.436  0.00  0.00    +0.000 C 
ATOM     27  O   UNL     1       1.303   5.365  17.717  0.00  0.00    +0.000 OA
ENDBRANCH  15  16
ENDBRANCH   2  15
TORSDOF 2
ENDMDL
MODEL 9
REMARK VINA RESULT:      -7.2      4.151      7.808
REMARK  Name = 
REMARK  2 active torsions:
REMARK  status: ('A' for Active; 'I' for Inactive)
REMARK    1  A    between atoms: C_2  and  C_3
REMARK    2  A    between atoms: C_3  and  N_4
REMARK                            x       y       z     vdW  Elec       q    Type
REMARK                         _______ _______ _______ _____ _____    ______ ____
ROOT
ATOM      1  O   UNL     1       3.314   7.888  16.799  0.00  0.00    +0.000 OA
ATOM      2  C   UNL     1       2.685   8.071  17.847  0.00  0.00    +0.000 C 
ATOM      3  N   UNL     1       1.981   9.237  17.933  0.00  0.00    +0.000 N 
ATOM      4  C   UNL     1       1.249   9.658  19.003  0.00  0.00    +0.000 A 
ATOM      5  N   UNL     1       1.087   9.050  20.147  0.00  0.00    +0.000 NA
ATOM      6  C   UNL     1       0.318   9.880  20.916  0.00  0.00    +0.000 A 
ATOM      7  C   UNL     1      -0.121   9.732  22.237  0.00  0.00    +0.000 A 
ATOM      8  C   UNL     1      -0.905  10.743  22.808  0.00  0.00    +0.000 A 
ATOM      9  C   UNL     1      -1.231  11.883  22.072  0.00  0.00    +0.000 A 
ATOM     10  C   UNL     1      -0.803  12.051  20.746  0.00  0.00    +0.000 A 
ATOM     11  C   UNL     1      -0.025  11.025  20.210  0.00  0.00    +0.000 A 
ATOM     12  N   UNL     1       0.567  10.848  18.985  0.00  0.00    +0.000 N 
ATOM     13  H   UNL     1       2.046   9.808  17.104  0.00  0.00    +0.000 HD
ATOM     14  H   UNL     1       0.527  11.491  18.209  0.00  0.00    +0.000 HD
ENDROOT
BRANCH   2  15
ATOM     15  C   UNL     1       2.749   7.045  18.985  0.00  0.00    +0.000 C 
BRANCH  15  16
ATOM     16  N   UNL     1       3.198   5.745  18.509  0.00  0.00    +0.000 N 
ATOM     17  C   UNL     1       2.349   4.840  17.927  0.00  0.00    +0.000 C 
ATOM     18  O   UNL     1       1.145   4.961  17.764  0.00  0.00    +0.000 OA
ATOM     19  C   UNL     1       3.129   3.588  17.598  0.00  0.00    +0.000 C 
ATOM     20  C   UNL     1       2.485   2.302  18.157  0.00  0.00    +0.000 C 
ATOM     21  C   UNL     1       3.447   1.137  17.987  0.00  0.00    +0.000 C 
ATOM     22  C   UNL     1       4.466   1.327  18.840  0.00  0.00    +0.000 C 
ATOM     23  C   UNL     1       4.215   2.643  19.539  0.00  0.00    +0.000 C 
ATOM     24  C   UNL     1       2.689   2.505  19.664  0.00  0.00    +0.000 C 
ATOM     25  C   UNL     1       4.395   3.741  18.462  0.00  0.00    +0.000 C 
ATOM     26  C   UNL     1       4.313   5.133  19.016  0.00  0.00    +0.000 C 
ATOM     27  O   UNL     1       5.081   5.554  19.867  0.00  0.00    +0.000 OA
ENDBRANCH  15  16
ENDBRANCH   2  15
TORSDOF 2
ENDMDL
