MODEL 1
REMARK VINA RESULT:      -8.4      0.000      0.000
REMARK  Name = 
REMARK  7 active torsions:
REMARK  status: ('A' for Active; 'I' for Inactive)
REMARK    1  A    between atoms: C_1  and  S_2
REMARK    2  A    between atoms: S_2  and  N_5
REMARK    3  A    between atoms: N_5  and  C_6
REMARK    4  A    between atoms: C_10  and  C_11
REMARK    5  A    between atoms: C_14  and  C_15
REMARK    6  A    between atoms: C_18  and  C_19
REMARK    7  A    between atoms: C_19  and  O_20
REMARK                            x       y       z     vdW  Elec       q    Type
REMARK                         _______ _______ _______ _____ _____    ______ ____
ROOT
ATOM      1  C   UNL     1       2.222   6.630  19.527  0.00  0.00    +0.000 A 
ATOM      2  C   UNL     1       3.085   6.063  18.661  0.00  0.00    +0.000 A 
ATOM      3  N   UNL     1       3.582   4.800  18.941  0.00  0.00    +0.000 N 
ATOM      4  C   UNL     1       4.502   3.969  18.318  0.00  0.00    +0.000 A 
ATOM      5  C   UNL     1       4.493   2.825  19.110  0.00  0.00    +0.000 A 
ATOM      6  N   UNL     1       3.655   2.942  20.191  0.00  0.00    +0.000 NA
ATOM      7  C   UNL     1       3.139   4.141  20.060  0.00  0.00    +0.000 A 
ATOM      8  C   UNL     1       2.204   4.802  20.926  0.00  0.00    +0.000 A 
ATOM      9  N   UNL     1       1.769   6.009  20.680  0.00  0.00    +0.000 NA
ENDROOT
BRANCH   1  14
ATOM     10  C   UNL     1       0.357   9.882  19.859  0.00  0.00    +0.000 A 
ATOM     11  C   UNL     1       0.864  10.610  18.783  0.00  0.00    +0.000 A 
ATOM     12  C   UNL     1       1.834  10.041  17.956  0.00  0.00    +0.000 A 
ATOM     13  C   UNL     1       2.286   8.742  18.198  0.00  0.00    +0.000 A 
ATOM     14  C   UNL     1       1.761   8.002  19.264  0.00  0.00    +0.000 A 
ATOM     15  C   UNL     1       0.788   8.577  20.092  0.00  0.00    +0.000 A 
BRANCH  10  16
ATOM     16  N   UNL     1      -0.656  10.445  20.692  0.00  0.00    +0.000 N 
ATOM     17  H   UNL     1      -1.390   9.794  20.977  0.00  0.00    +0.000 HD
BRANCH  16  19
ATOM     18  C   UNL     1      -1.680  11.918  22.695  0.00  0.00    +0.000 C 
ATOM     19  S   UNL     1      -0.138  11.298  22.061  0.00  0.00    +0.000 S 
ATOM     20  O   UNL     1       0.705  12.405  21.674  0.00  0.00    +0.000 OA
ATOM     21  O   UNL     1       0.334  10.282  22.981  0.00  0.00    +0.000 OA
ENDBRANCH  16  19
ENDBRANCH  10  16
ENDBRANCH   1  14
BRANCH   4  22
ATOM     22  C   UNL     1       5.258   4.259  17.095  0.00  0.00    +0.000 A 
ATOM     23  C   UNL     1       4.670   4.158  15.828  0.00  0.00    +0.000 A 
ATOM     24  C   UNL     1       5.419   4.369  14.666  0.00  0.00    +0.000 A 
ATOM     25  C   UNL     1       6.766   4.739  14.742  0.00  0.00    +0.000 A 
ATOM     26  C   UNL     1       7.346   4.889  16.008  0.00  0.00    +0.000 A 
ATOM     27  C   UNL     1       6.598   4.657  17.169  0.00  0.00    +0.000 A 
BRANCH  25  28
ATOM     28  C   UNL     1       7.573   4.890  13.477  0.00  0.00    +0.000 C 
BRANCH  28  29
ATOM     29  O   UNL     1       8.583   5.881  13.610  0.00  0.00    +0.000 OA
ATOM     30  H   UNL     1       8.621   6.357  12.763  0.00  0.00    +0.000 HD
ENDBRANCH  28  29
ENDBRANCH  25  28
ENDBRANCH   4  22
TORSDOF 6
ENDMDL
MODEL 2
REMARK VINA RESULT:      -8.3      0.897      1.321
REMARK  Name = 
REMARK  7 active torsions:
REMARK  status: ('A' for Active; 'I' for Inactive)
REMARK    1  A    between atoms: C_1  and  S_2
REMARK    2  A    between atoms: S_2  and  N_5
REMARK    3  A    between atoms: N_5  and  C_6
REMARK    4  A    between atoms: C_10  and  C_11
REMARK    5  A    between atoms: C_14  and  C_15
REMARK    6  A    between atoms: C_18  and  C_19
REMARK    7  A    between atoms: C_19  and  O_20
REMARK                            x       y       z     vdW  Elec       q    Type
REMARK                         _______ _______ _______ _____ _____    ______ ____
ROOT
ATOM      1  C   UNL     1       2.319   6.405  19.647  0.00  0.00    +0.000 A 
ATOM      2  C   UNL     1       3.157   5.841  18.755  0.00  0.00    +0.000 A 
ATOM      3  N   UNL     1       3.625   4.558  18.993  0.00  0.00    +0.000 N 
ATOM      4  C   UNL     1       4.515   3.721  18.335  0.00  0.00    +0.000 A 
ATOM      5  C   UNL     1       4.486   2.556  19.096  0.00  0.00    +0.000 A 
ATOM      6  N   UNL     1       3.665   2.665  20.191  0.00  0.00    +0.000 NA
ATOM      7  C   UNL     1       3.179   3.879  20.099  0.00  0.00    +0.000 A 
ATOM      8  C   UNL     1       2.272   4.540  20.996  0.00  0.00    +0.000 A 
ATOM      9  N   UNL     1       1.865   5.763  20.789  0.00  0.00    +0.000 NA
ENDROOT
BRANCH   1  14
ATOM     10  C   UNL     1       1.088   9.896  20.322  0.00  0.00    +0.000 A 
ATOM     11  C   UNL     1       1.067  10.442  19.039  0.00  0.00    +0.000 A 
ATOM     12  C   UNL     1       1.474   9.670  17.950  0.00  0.00    +0.000 A 
ATOM     13  C   UNL     1       1.890   8.350  18.143  0.00  0.00    +0.000 A 
ATOM     14  C   UNL     1       1.891   7.795  19.428  0.00  0.00    +0.000 A 
ATOM     15  C   UNL     1       1.482   8.574  20.518  0.00  0.00    +0.000 A 
BRANCH  10  16
ATOM     16  N   UNL     1       0.646  10.670  21.438  0.00  0.00    +0.000 N 
ATOM     17  H   UNL     1       0.136  11.521  21.194  0.00  0.00    +0.000 HD
BRANCH  16  19
ATOM     18  C   UNL     1      -1.464  11.056  23.058  0.00  0.00    +0.000 C 
ATOM     19  S   UNL     1      -0.220   9.854  22.643  0.00  0.00    +0.000 S 
ATOM     20  O   UNL     1       0.623   9.615  23.792  0.00  0.00    +0.000 OA
ATOM     21  O   UNL     1      -0.881   8.762  21.959  0.00  0.00    +0.000 OA
ENDBRANCH  16  19
ENDBRANCH  10  16
ENDBRANCH   1  14
BRANCH   4  22
ATOM     22  C   UNL     1       5.262   4.026  17.111  0.00  0.00    +0.000 A 
ATOM     23  C   UNL     1       6.521   4.638  17.153  0.00  0.00    +0.000 A 
ATOM     24  C   UNL     1       7.192   4.988  15.977  0.00  0.00    +0.000 A 
ATOM     25  C   UNL     1       6.646   4.687  14.725  0.00  0.00    +0.000 A 
ATOM     26  C   UNL     1       5.409   4.032  14.678  0.00  0.00    +0.000 A 
ATOM     27  C   UNL     1       4.729   3.701  15.857  0.00  0.00    +0.000 A 
BRANCH  25  28
ATOM     28  C   UNL     1       7.352   5.139  13.472  0.00  0.00    +0.000 C 
BRANCH  28  29
ATOM     29  O   UNL     1       8.552   5.842  13.765  0.00  0.00    +0.000 OA
ATOM     30  H   UNL     1       8.637   5.856  14.733  0.00  0.00    +0.000 HD
ENDBRANCH  28  29
ENDBRANCH  25  28
ENDBRANCH   4  22
TORSDOF 6
ENDMDL
MODEL 3
REMARK VINA RESULT:      -8.1      0.741      1.231
REMARK  Name = 
REMARK  7 active torsions:
REMARK  status: ('A' for Active; 'I' for Inactive)
REMARK    1  A    between atoms: C_1  and  S_2
REMARK    2  A    between atoms: S_2  and  N_5
REMARK    3  A    between atoms: N_5  and  C_6
REMARK    4  A    between atoms: C_10  and  C_11
REMARK    5  A    between atoms: C_14  and  C_15
REMARK    6  A    between atoms: C_18  and  C_19
REMARK    7  A    between atoms: C_19  and  O_20
REMARK                            x       y       z     vdW  Elec       q    Type
REMARK                         _______ _______ _______ _____ _____    ______ ____
ROOT
ATOM      1  C   UNL     1       2.336   6.566  19.558  0.00  0.00    +0.000 A 
ATOM      2  C   UNL     1       3.171   5.961  18.691  0.00  0.00    +0.000 A 
ATOM      3  N   UNL     1       3.622   4.682  18.977  0.00  0.00    +0.000 N 
ATOM      4  C   UNL     1       4.505   3.812  18.353  0.00  0.00    +0.000 A 
ATOM      5  C   UNL     1       4.458   2.674  19.154  0.00  0.00    +0.000 A 
ATOM      6  N   UNL     1       3.632   2.832  20.240  0.00  0.00    +0.000 NA
ATOM      7  C   UNL     1       3.162   4.047  20.103  0.00  0.00    +0.000 A 
ATOM      8  C   UNL     1       2.258   4.751  20.971  0.00  0.00    +0.000 A 
ATOM      9  N   UNL     1       1.868   5.971  20.719  0.00  0.00    +0.000 NA
ENDROOT
BRANCH   1  14
ATOM     10  C   UNL     1       0.779   9.964  19.994  0.00  0.00    +0.000 A 
ATOM     11  C   UNL     1       1.129  10.592  18.798  0.00  0.00    +0.000 A 
ATOM     12  C   UNL     1       1.893   9.905  17.853  0.00  0.00    +0.000 A 
ATOM     13  C   UNL     1       2.296   8.590  18.098  0.00  0.00    +0.000 A 
ATOM     14  C   UNL     1       1.926   7.953  19.288  0.00  0.00    +0.000 A 
ATOM     15  C   UNL     1       1.160   8.646  20.235  0.00  0.00    +0.000 A 
BRANCH  10  16
ATOM     16  N   UNL     1      -0.026  10.649  20.953  0.00  0.00    +0.000 N 
ATOM     17  H   UNL     1       0.022  10.273  21.902  0.00  0.00    +0.000 HD
BRANCH  16  19
ATOM     18  C   UNL     1      -0.779  12.706  22.513  0.00  0.00    +0.000 C 
ATOM     19  S   UNL     1       0.144  12.332  21.038  0.00  0.00    +0.000 S 
ATOM     20  O   UNL     1      -0.489  12.959  19.901  0.00  0.00    +0.000 OA
ATOM     21  O   UNL     1       1.545  12.555  21.333  0.00  0.00    +0.000 OA
ENDBRANCH  16  19
ENDBRANCH  10  16
ENDBRANCH   1  14
BRANCH   4  22
ATOM     22  C   UNL     1       5.263   4.065  17.123  0.00  0.00    +0.000 A 
ATOM     23  C   UNL     1       6.586   4.522  17.158  0.00  0.00    +0.000 A 
ATOM     24  C   UNL     1       7.274   4.827  15.979  0.00  0.00    +0.000 A 
ATOM     25  C   UNL     1       6.675   4.633  14.731  0.00  0.00    +0.000 A 
ATOM     26  C   UNL     1       5.368   4.130  14.690  0.00  0.00    +0.000 A 
ATOM     27  C   UNL     1       4.674   3.845  15.872  0.00  0.00    +0.000 A 
BRANCH  25  28
ATOM     28  C   UNL     1       7.408   5.037  13.477  0.00  0.00    +0.000 C 
BRANCH  28  29
ATOM     29  O   UNL     1       8.547   5.836  13.765  0.00  0.00    +0.000 OA
ATOM     30  H   UNL     1       8.948   6.069  12.911  0.00  0.00    +0.000 HD
ENDBRANCH  28  29
ENDBRANCH  25  28
ENDBRANCH   4  22
TORSDOF 6
ENDMDL
MODEL 4
REMARK VINA RESULT:      -7.8      4.336      8.595
REMARK  Name = 
REMARK  7 active torsions:
REMARK  status: ('A' for Active; 'I' for Inactive)
REMARK    1  A    between atoms: C_1  and  S_2
REMARK    2  A    between atoms: S_2  and  N_5
REMARK    3  A    between atoms: N_5  and  C_6
REMARK    4  A    between atoms: C_10  and  C_11
REMARK    5  A    between atoms: C_14  and  C_15
REMARK    6  A    between atoms: C_18  and  C_19
REMARK    7  A    between atoms: C_19  and  O_20
REMARK                            x       y       z     vdW  Elec       q    Type
REMARK                         _______ _______ _______ _____ _____    ______ ____
ROOT
ATOM      1  C   UNL     1       0.849   9.260  20.021  0.00  0.00    +0.000 A 
ATOM      2  C   UNL     1      -0.093   9.657  19.143  0.00  0.00    +0.000 A 
ATOM      3  N   UNL     1      -0.926  10.711  19.484  0.00  0.00    +0.000 N 
ATOM      4  C   UNL     1      -2.005  11.324  18.863  0.00  0.00    +0.000 A 
ATOM      5  C   UNL     1      -2.343  12.351  19.740  0.00  0.00    +0.000 A 
ATOM      6  N   UNL     1      -1.556  12.359  20.866  0.00  0.00    +0.000 NA
ATOM      7  C   UNL     1      -0.731  11.357  20.679  0.00  0.00    +0.000 A 
ATOM      8  C   UNL     1       0.306  10.889  21.556  0.00  0.00    +0.000 A 
ATOM      9  N   UNL     1       1.062   9.869  21.249  0.00  0.00    +0.000 NA
ENDROOT
BRANCH   1  14
ATOM     10  C   UNL     1       2.546   5.912  20.285  0.00  0.00    +0.000 A 
ATOM     11  C   UNL     1       3.242   5.852  19.077  0.00  0.00    +0.000 A 
ATOM     12  C   UNL     1       3.140   6.903  18.165  0.00  0.00    +0.000 A 
ATOM     13  C   UNL     1       2.355   8.019  18.466  0.00  0.00    +0.000 A 
ATOM     14  C   UNL     1       1.674   8.090  19.687  0.00  0.00    +0.000 A 
ATOM     15  C   UNL     1       1.778   7.031  20.599  0.00  0.00    +0.000 A 
BRANCH  10  16
ATOM     16  N   UNL     1       2.667   4.854  21.235  0.00  0.00    +0.000 N 
ATOM     17  H   UNL     1       2.452   5.116  22.199  0.00  0.00    +0.000 HD
BRANCH  16  19
ATOM     18  C   UNL     1       3.091   2.536  19.941  0.00  0.00    +0.000 C 
ATOM     19  S   UNL     1       1.858   3.408  20.882  0.00  0.00    +0.000 S 
ATOM     20  O   UNL     1       0.708   3.667  20.048  0.00  0.00    +0.000 OA
ATOM     21  O   UNL     1       1.723   2.731  22.156  0.00  0.00    +0.000 OA
ENDBRANCH  16  19
ENDBRANCH  10  16
ENDBRANCH   1  14
BRANCH   4  22
ATOM     22  C   UNL     1      -2.595  10.959  17.571  0.00  0.00    +0.000 A 
ATOM     23  C   UNL     1      -1.988  10.022  16.726  0.00  0.00    +0.000 A 
ATOM     24  C   UNL     1      -2.523   9.735  15.466  0.00  0.00    +0.000 A 
ATOM     25  C   UNL     1      -3.709  10.339  15.038  0.00  0.00    +0.000 A 
ATOM     26  C   UNL     1      -4.346  11.241  15.900  0.00  0.00    +0.000 A 
ATOM     27  C   UNL     1      -3.798  11.542  17.153  0.00  0.00    +0.000 A 
BRANCH  25  28
ATOM     28  C   UNL     1      -4.228  10.070  13.648  0.00  0.00    +0.000 C 
BRANCH  28  29
ATOM     29  O   UNL     1      -3.172   9.829  12.728  0.00  0.00    +0.000 OA
ATOM     30  H   UNL     1      -2.717  10.679  12.596  0.00  0.00    +0.000 HD
ENDBRANCH  28  29
ENDBRANCH  25  28
ENDBRANCH   4  22
TORSDOF 6
ENDMDL
MODEL 5
REMARK VINA RESULT:      -7.7      4.213      6.364
REMARK  Name = 
REMARK  7 active torsions:
REMARK  status: ('A' for Active; 'I' for Inactive)
REMARK    1  A    between atoms: C_1  and  S_2
REMARK    2  A    between atoms: S_2  and  N_5
REMARK    3  A    between atoms: N_5  and  C_6
REMARK    4  A    between atoms: C_10  and  C_11
REMARK    5  A    between atoms: C_14  and  C_15
REMARK    6  A    between atoms: C_18  and  C_19
REMARK    7  A    between atoms: C_19  and  O_20
REMARK                            x       y       z     vdW  Elec       q    Type
REMARK                         _______ _______ _______ _____ _____    ______ ____
ROOT
ATOM      1  C   UNL     1      -1.427  10.536  19.311  0.00  0.00    +0.000 A 
ATOM      2  C   UNL     1      -0.570   9.500  19.410  0.00  0.00    +0.000 A 
ATOM      3  N   UNL     1       0.271   9.430  20.509  0.00  0.00    +0.000 N 
ATOM      4  C   UNL     1       1.283   8.560  20.892  0.00  0.00    +0.000 A 
ATOM      5  C   UNL     1       1.677   9.050  22.134  0.00  0.00    +0.000 A 
ATOM      6  N   UNL     1       0.990  10.183  22.493  0.00  0.00    +0.000 NA
ATOM      7  C   UNL     1       0.169  10.382  21.491  0.00  0.00    +0.000 A 
ATOM      8  C   UNL     1      -0.781  11.447  21.324  0.00  0.00    +0.000 A 
ATOM      9  N   UNL     1      -1.544  11.532  20.267  0.00  0.00    +0.000 NA
ENDROOT
BRANCH   1  14
ATOM     10  C   UNL     1      -4.162  11.614  16.961  0.00  0.00    +0.000 A 
ATOM     11  C   UNL     1      -3.861  10.874  15.818  0.00  0.00    +0.000 A 
ATOM     12  C   UNL     1      -2.748  10.031  15.810  0.00  0.00    +0.000 A 
ATOM     13  C   UNL     1      -1.945   9.921  16.948  0.00  0.00    +0.000 A 
ATOM     14  C   UNL     1      -2.259  10.647  18.103  0.00  0.00    +0.000 A 
ATOM     15  C   UNL     1      -3.376  11.492  18.106  0.00  0.00    +0.000 A 
BRANCH  10  16
ATOM     16  N   UNL     1      -5.315  12.456  16.988  0.00  0.00    +0.000 N 
ATOM     17  H   UNL     1      -5.860  12.465  16.123  0.00  0.00    +0.000 HD
BRANCH  16  19
ATOM     18  C   UNL     1      -7.723  13.323  17.810  0.00  0.00    +0.000 C 
ATOM     19  S   UNL     1      -6.381  12.258  18.289  0.00  0.00    +0.000 S 
ATOM     20  O   UNL     1      -5.784  12.752  19.508  0.00  0.00    +0.000 OA
ATOM     21  O   UNL     1      -6.852  10.891  18.185  0.00  0.00    +0.000 OA
ENDBRANCH  16  19
ENDBRANCH  10  16
ENDBRANCH   1  14
BRANCH   4  22
ATOM     22  C   UNL     1       1.765   7.395  20.144  0.00  0.00    +0.000 A 
ATOM     23  C   UNL     1       2.357   7.527  18.881  0.00  0.00    +0.000 A 
ATOM     24  C   UNL     1       2.749   6.403  18.147  0.00  0.00    +0.000 A 
ATOM     25  C   UNL     1       2.609   5.117  18.679  0.00  0.00    +0.000 A 
ATOM     26  C   UNL     1       2.062   4.983  19.962  0.00  0.00    +0.000 A 
ATOM     27  C   UNL     1       1.651   6.109  20.686  0.00  0.00    +0.000 A 
BRANCH  25  28
ATOM     28  C   UNL     1       2.970   3.917  17.842  0.00  0.00    +0.000 C 
BRANCH  28  29
ATOM     29  O   UNL     1       1.885   3.496  17.025  0.00  0.00    +0.000 OA
ATOM     30  H   UNL     1       1.584   4.281  16.536  0.00  0.00    +0.000 HD
ENDBRANCH  28  29
ENDBRANCH  25  28
ENDBRANCH   4  22
TORSDOF 6
ENDMDL
MODEL 6
REMARK VINA RESULT:      -7.6      1.007      1.421
REMARK  Name = 
REMARK  7 active torsions:
REMARK  status: ('A' for Active; 'I' for Inactive)
REMARK    1  A    between atoms: C_1  and  S_2
REMARK    2  A    between atoms: S_2  and  N_5
REMARK    3  A    between atoms: N_5  and  C_6
REMARK    4  A    between atoms: C_10  and  C_11
REMARK    5  A    between atoms: C_14  and  C_15
REMARK    6  A    between atoms: C_18  and  C_19
REMARK    7  A    between atoms: C_19  and  O_20
REMARK                            x       y       z     vdW  Elec       q    Type
REMARK                         _______ _______ _______ _____ _____    ______ ____
ROOT
ATOM      1  C   UNL     1       2.297   6.486  19.634  0.00  0.00    +0.000 A 
ATOM      2  C   UNL     1       3.128   5.888  18.758  0.00  0.00    +0.000 A 
ATOM      3  N   UNL     1       3.578   4.606  19.030  0.00  0.00    +0.000 N 
ATOM      4  C   UNL     1       4.457   3.739  18.395  0.00  0.00    +0.000 A 
ATOM      5  C   UNL     1       4.410   2.595  19.186  0.00  0.00    +0.000 A 
ATOM      6  N   UNL     1       3.589   2.743  20.276  0.00  0.00    +0.000 NA
ATOM      7  C   UNL     1       3.120   3.961  20.152  0.00  0.00    +0.000 A 
ATOM      8  C   UNL     1       2.222   4.658  21.030  0.00  0.00    +0.000 A 
ATOM      9  N   UNL     1       1.832   5.881  20.791  0.00  0.00    +0.000 NA
ENDROOT
BRANCH   1  14
ATOM     10  C   UNL     1       1.071   9.997  20.211  0.00  0.00    +0.000 A 
ATOM     11  C   UNL     1       1.102  10.524  18.920  0.00  0.00    +0.000 A 
ATOM     12  C   UNL     1       1.543   9.732  17.859  0.00  0.00    +0.000 A 
ATOM     13  C   UNL     1       1.941   8.412  18.087  0.00  0.00    +0.000 A 
ATOM     14  C   UNL     1       1.889   7.876  19.379  0.00  0.00    +0.000 A 
ATOM     15  C   UNL     1       1.446   8.675  20.442  0.00  0.00    +0.000 A 
BRANCH  10  16
ATOM     16  N   UNL     1       0.594  10.791  21.298  0.00  0.00    +0.000 N 
ATOM     17  H   UNL     1       1.247  11.503  21.629  0.00  0.00    +0.000 HD
BRANCH  16  19
ATOM     18  C   UNL     1      -0.488  13.214  20.868  0.00  0.00    +0.000 C 
ATOM     19  S   UNL     1      -0.930  11.508  21.114  0.00  0.00    +0.000 S 
ATOM     20  O   UNL     1      -1.696  11.378  22.332  0.00  0.00    +0.000 OA
ATOM     21  O   UNL     1      -1.435  11.003  19.854  0.00  0.00    +0.000 OA
ENDBRANCH  16  19
ENDBRANCH  10  16
ENDBRANCH   1  14
BRANCH   4  22
ATOM     22  C   UNL     1       5.210   4.003  17.165  0.00  0.00    +0.000 A 
ATOM     23  C   UNL     1       6.538   4.448  17.198  0.00  0.00    +0.000 A 
ATOM     24  C   UNL     1       7.222   4.763  16.021  0.00  0.00    +0.000 A 
ATOM     25  C   UNL     1       6.615   4.591  14.773  0.00  0.00    +0.000 A 
ATOM     26  C   UNL     1       5.304   4.100  14.732  0.00  0.00    +0.000 A 
ATOM     27  C   UNL     1       4.613   3.805  15.914  0.00  0.00    +0.000 A 
BRANCH  25  28
ATOM     28  C   UNL     1       7.346   5.006  13.521  0.00  0.00    +0.000 C 
BRANCH  28  29
ATOM     29  O   UNL     1       8.484   5.805  13.813  0.00  0.00    +0.000 OA
ATOM     30  H   UNL     1       8.340   6.664  13.381  0.00  0.00    +0.000 HD
ENDBRANCH  28  29
ENDBRANCH  25  28
ENDBRANCH   4  22
TORSDOF 6
ENDMDL
MODEL 7
REMARK VINA RESULT:      -7.6      4.094      6.215
REMARK  Name = 
REMARK  7 active torsions:
REMARK  status: ('A' for Active; 'I' for Inactive)
REMARK    1  A    between atoms: C_1  and  S_2
REMARK    2  A    between atoms: S_2  and  N_5
REMARK    3  A    between atoms: N_5  and  C_6
REMARK    4  A    between atoms: C_10  and  C_11
REMARK    5  A    between atoms: C_14  and  C_15
REMARK    6  A    between atoms: C_18  and  C_19
REMARK    7  A    between atoms: C_19  and  O_20
REMARK                            x       y       z     vdW  Elec       q    Type
REMARK                         _______ _______ _______ _____ _____    ______ ____
ROOT
ATOM      1  C   UNL     1      -1.370  10.481  19.314  0.00  0.00    +0.000 A 
ATOM      2  C   UNL     1      -0.512   9.445  19.392  0.00  0.00    +0.000 A 
ATOM      3  N   UNL     1       0.339   9.360  20.483  0.00  0.00    +0.000 N 
ATOM      4  C   UNL     1       1.355   8.487  20.845  0.00  0.00    +0.000 A 
ATOM      5  C   UNL     1       1.759   8.959  22.090  0.00  0.00    +0.000 A 
ATOM      6  N   UNL     1       1.074  10.086  22.470  0.00  0.00    +0.000 NA
ATOM      7  C   UNL     1       0.244  10.299  21.479  0.00  0.00    +0.000 A 
ATOM      8  C   UNL     1      -0.708  11.365  21.334  0.00  0.00    +0.000 A 
ATOM      9  N   UNL     1      -1.480  11.464  20.285  0.00  0.00    +0.000 NA
ENDROOT
BRANCH   1  14
ATOM     10  C   UNL     1      -4.127  11.588  17.004  0.00  0.00    +0.000 A 
ATOM     11  C   UNL     1      -3.834  10.865  15.847  0.00  0.00    +0.000 A 
ATOM     12  C   UNL     1      -2.720  10.025  15.818  0.00  0.00    +0.000 A 
ATOM     13  C   UNL     1      -1.907   9.899  16.947  0.00  0.00    +0.000 A 
ATOM     14  C   UNL     1      -2.212  10.608  18.115  0.00  0.00    +0.000 A 
ATOM     15  C   UNL     1      -3.331  11.451  18.140  0.00  0.00    +0.000 A 
BRANCH  10  16
ATOM     16  N   UNL     1      -5.280  12.427  17.052  0.00  0.00    +0.000 N 
ATOM     17  H   UNL     1      -5.823  12.462  16.186  0.00  0.00    +0.000 HD
BRANCH  16  19
ATOM     18  C   UNL     1      -7.705  13.245  17.878  0.00  0.00    +0.000 C 
ATOM     19  S   UNL     1      -6.351  12.188  18.342  0.00  0.00    +0.000 S 
ATOM     20  O   UNL     1      -5.767  12.665  19.574  0.00  0.00    +0.000 OA
ATOM     21  O   UNL     1      -6.803  10.818  18.208  0.00  0.00    +0.000 OA
ENDBRANCH  16  19
ENDBRANCH  10  16
ENDBRANCH   1  14
BRANCH   4  22
ATOM     22  C   UNL     1       1.832   7.332  20.077  0.00  0.00    +0.000 A 
ATOM     23  C   UNL     1       1.693   6.024  20.556  0.00  0.00    +0.000 A 
ATOM     24  C   UNL     1       2.215   4.937  19.847  0.00  0.00    +0.000 A 
ATOM     25  C   UNL     1       2.845   5.124  18.613  0.00  0.00    +0.000 A 
ATOM     26  C   UNL     1       2.944   6.426  18.107  0.00  0.00    +0.000 A 
ATOM     27  C   UNL     1       2.438   7.515  18.828  0.00  0.00    +0.000 A 
BRANCH  25  28
ATOM     28  C   UNL     1       3.464   3.948  17.902  0.00  0.00    +0.000 C 
BRANCH  28  29
ATOM     29  O   UNL     1       4.757   3.644  18.409  0.00  0.00    +0.000 OA
ATOM     30  H   UNL     1       5.013   4.387  18.982  0.00  0.00    +0.000 HD
ENDBRANCH  28  29
ENDBRANCH  25  28
ENDBRANCH   4  22
TORSDOF 6
ENDMDL
MODEL 8
REMARK VINA RESULT:      -7.3      3.988      9.029
REMARK  Name = 
REMARK  7 active torsions:
REMARK  status: ('A' for Active; 'I' for Inactive)
REMARK    1  A    between atoms: C_1  and  S_2
REMARK    2  A    between atoms: S_2  and  N_5
REMARK    3  A    between atoms: N_5  and  C_6
REMARK    4  A    between atoms: C_10  and  C_11
REMARK    5  A    between atoms: C_14  and  C_15
REMARK    6  A    between atoms: C_18  and  C_19
REMARK    7  A    between atoms: C_19  and  O_20
REMARK                            x       y       z     vdW  Elec       q    Type
REMARK                         _______ _______ _______ _____ _____    ______ ____
ROOT
ATOM      1  C   UNL     1       0.919   9.097  20.769  0.00  0.00    +0.000 A 
ATOM      2  C   UNL     1       0.903  10.434  20.604  0.00  0.00    +0.000 A 
ATOM      3  N   UNL     1       0.156  11.208  21.478  0.00  0.00    +0.000 N 
ATOM      4  C   UNL     1      -0.122  12.565  21.564  0.00  0.00    +0.000 A 
ATOM      5  C   UNL     1      -0.900  12.664  22.714  0.00  0.00    +0.000 A 
ATOM      6  N   UNL     1      -1.137  11.442  23.293  0.00  0.00    +0.000 NA
ATOM      7  C   UNL     1      -0.499  10.598  22.518  0.00  0.00    +0.000 A 
ATOM      8  C   UNL     1      -0.421   9.169  22.639  0.00  0.00    +0.000 A 
ATOM      9  N   UNL     1       0.251   8.439  21.790  0.00  0.00    +0.000 NA
ENDROOT
BRANCH   1  14
ATOM     10  C   UNL     1       2.573   6.137  19.137  0.00  0.00    +0.000 A 
ATOM     11  C   UNL     1       3.038   6.693  17.946  0.00  0.00    +0.000 A 
ATOM     12  C   UNL     1       2.794   8.039  17.667  0.00  0.00    +0.000 A 
ATOM     13  C   UNL     1       2.096   8.829  18.585  0.00  0.00    +0.000 A 
ATOM     14  C   UNL     1       1.648   8.277  19.790  0.00  0.00    +0.000 A 
ATOM     15  C   UNL     1       1.895   6.925  20.065  0.00  0.00    +0.000 A 
BRANCH  10  16
ATOM     16  N   UNL     1       2.844   4.769  19.443  0.00  0.00    +0.000 N 
ATOM     17  H   UNL     1       3.123   4.591  20.410  0.00  0.00    +0.000 HD
BRANCH  16  19
ATOM     18  C   UNL     1       2.614   2.138  18.938  0.00  0.00    +0.000 C 
ATOM     19  S   UNL     1       1.659   3.637  19.013  0.00  0.00    +0.000 S 
ATOM     20  O   UNL     1       1.128   3.938  17.704  0.00  0.00    +0.000 OA
ATOM     21  O   UNL     1       0.791   3.542  20.170  0.00  0.00    +0.000 OA
ENDBRANCH  16  19
ENDBRANCH  10  16
ENDBRANCH   1  14
BRANCH   4  22
ATOM     22  C   UNL     1       0.344  13.614  20.652  0.00  0.00    +0.000 A 
ATOM     23  C   UNL     1       1.681  14.032  20.636  0.00  0.00    +0.000 A 
ATOM     24  C   UNL     1       2.099  15.082  19.812  0.00  0.00    +0.000 A 
ATOM     25  C   UNL     1       1.201  15.708  18.941  0.00  0.00    +0.000 A 
ATOM     26  C   UNL     1      -0.126  15.261  18.918  0.00  0.00    +0.000 A 
ATOM     27  C   UNL     1      -0.547  14.224  19.760  0.00  0.00    +0.000 A 
BRANCH  25  28
ATOM     28  C   UNL     1       1.656  16.885  18.115  0.00  0.00    +0.000 C 
BRANCH  28  29
ATOM     29  O   UNL     1       2.523  17.740  18.847  0.00  0.00    +0.000 OA
ATOM     30  H   UNL     1       2.069  18.597  18.925  0.00  0.00    +0.000 HD
ENDBRANCH  28  29
ENDBRANCH  25  28
ENDBRANCH   4  22
TORSDOF 6
ENDMDL
MODEL 9
REMARK VINA RESULT:      -7.2      4.001      8.588
REMARK  Name = 
REMARK  7 active torsions:
REMARK  status: ('A' for Active; 'I' for Inactive)
REMARK    1  A    between atoms: C_1  and  S_2
REMARK    2  A    between atoms: S_2  and  N_5
REMARK    3  A    between atoms: N_5  and  C_6
REMARK    4  A    between atoms: C_10  and  C_11
REMARK    5  A    between atoms: C_14  and  C_15
REMARK    6  A    between atoms: C_18  and  C_19
REMARK    7  A    between atoms: C_19  and  O_20
REMARK                            x       y       z     vdW  Elec       q    Type
REMARK                         _______ _______ _______ _____ _____    ______ ____
ROOT
ATOM      1  C   UNL     1       1.041   8.767  20.704  0.00  0.00    +0.000 A 
ATOM      2  C   UNL     1       1.159  10.099  20.547  0.00  0.00    +0.000 A 
ATOM      3  N   UNL     1       0.372  10.939  21.319  0.00  0.00    +0.000 N 
ATOM      4  C   UNL     1       0.201  12.315  21.376  0.00  0.00    +0.000 A 
ATOM      5  C   UNL     1      -0.710  12.485  22.415  0.00  0.00    +0.000 A 
ATOM      6  N   UNL     1      -1.123  11.290  22.950  0.00  0.00    +0.000 NA
ATOM      7  C   UNL     1      -0.463  10.392  22.261  0.00  0.00    +0.000 A 
ATOM      8  C   UNL     1      -0.523   8.962  22.383  0.00  0.00    +0.000 A 
ATOM      9  N   UNL     1       0.191   8.173  21.625  0.00  0.00    +0.000 NA
ENDROOT
BRANCH   1  14
ATOM     10  C   UNL     1       2.837   5.726  19.405  0.00  0.00    +0.000 A 
ATOM     11  C   UNL     1       3.306   6.179  18.172  0.00  0.00    +0.000 A 
ATOM     12  C   UNL     1       3.018   7.480  17.756  0.00  0.00    +0.000 A 
ATOM     13  C   UNL     1       2.272   8.330  18.578  0.00  0.00    +0.000 A 
ATOM     14  C   UNL     1       1.820   7.882  19.825  0.00  0.00    +0.000 A 
ATOM     15  C   UNL     1       2.111   6.575  20.238  0.00  0.00    +0.000 A 
BRANCH  10  16
ATOM     16  N   UNL     1       3.151   4.406  19.850  0.00  0.00    +0.000 N 
ATOM     17  H   UNL     1       3.316   4.320  20.855  0.00  0.00    +0.000 HD
BRANCH  16  19
ATOM     18  C   UNL     1       3.229   2.040  18.576  0.00  0.00    +0.000 C 
ATOM     19  S   UNL     1       2.103   3.164  19.372  0.00  0.00    +0.000 S 
ATOM     20  O   UNL     1       1.149   3.656  18.406  0.00  0.00    +0.000 OA
ATOM     21  O   UNL     1       1.668   2.543  20.606  0.00  0.00    +0.000 OA
ENDBRANCH  16  19
ENDBRANCH  10  16
ENDBRANCH   1  14
BRANCH   4  22
ATOM     22  C   UNL     1       0.870  13.316  20.539  0.00  0.00    +0.000 A 
ATOM     23  C   UNL     1       0.158  14.099  19.622  0.00  0.00    +0.000 A 
ATOM     24  C   UNL     1       0.817  15.000  18.780  0.00  0.00    +0.000 A 
ATOM     25  C   UNL     1       2.201  15.181  18.868  0.00  0.00    +0.000 A 
ATOM     26  C   UNL     1       2.911  14.434  19.817  0.00  0.00    +0.000 A 
ATOM     27  C   UNL     1       2.252  13.518  20.645  0.00  0.00    +0.000 A 
BRANCH  25  28
ATOM     28  C   UNL     1       2.899  16.103  17.901  0.00  0.00    +0.000 C 
BRANCH  28  29
ATOM     29  O   UNL     1       3.657  15.383  16.937  0.00  0.00    +0.000 OA
ATOM     30  H   UNL     1       4.531  15.223  17.332  0.00  0.00    +0.000 HD
ENDBRANCH  28  29
ENDBRANCH  25  28
ENDBRANCH   4  22
TORSDOF 6
ENDMDL
