MODEL 1
REMARK VINA RESULT:      -6.7      0.000      0.000
REMARK  Name = 
REMARK  7 active torsions:
REMARK  status: ('A' for Active; 'I' for Inactive)
REMARK    1  A    between atoms: C_1  and  C_2
REMARK    2  A    between atoms: C_5  and  C_7
REMARK    3  A    between atoms: C_12  and  N_13
REMARK    4  A    between atoms: N_13  and  C_14
REMARK    5  A    between atoms: N_13  and  C_15
REMARK    6  A    between atoms: C_18  and  O_19
REMARK    7  A    between atoms: C_18  and  C_20
REMARK                            x       y       z     vdW  Elec       q    Type
REMARK                         _______ _______ _______ _____ _____    ______ ____
ROOT
ATOM      1  C   UNL     1       1.440   5.053  20.092  0.00  0.00    +0.000 C 
ATOM      2  C   UNL     1       2.694   5.942  19.959  0.00  0.00    +0.000 C 
ATOM      3  C   UNL     1       2.253   7.383  20.197  0.00  0.00    +0.000 C 
ATOM      4  N   UNL     1       1.616   8.061  19.067  0.00  0.00    +0.000 N 
ATOM      5  C   UNL     1       0.949   9.315  19.208  0.00  0.00    +0.000 C 
ATOM      6  O   UNL     1       0.790  10.062  18.243  0.00  0.00    +0.000 OA
ATOM      7  C   UNL     1       2.125   7.787  17.723  0.00  0.00    +0.000 C 
ATOM      8  C   UNL     1       2.612   6.356  17.490  0.00  0.00    +0.000 C 
ATOM      9  C   UNL     1       3.473   5.770  18.627  0.00  0.00    +0.000 C 
ENDROOT
BRANCH   5  10
ATOM     10  C   UNL     1       0.466   9.781  20.541  0.00  0.00    +0.000 A 
ATOM     11  C   UNL     1       0.070   8.768  21.447  0.00  0.00    +0.000 A 
ATOM     12  C   UNL     1      -0.483   9.077  22.676  0.00  0.00    +0.000 A 
ATOM     13  C   UNL     1      -0.517  10.399  23.026  0.00  0.00    +0.000 A 
ATOM     14  N   UNL     1      -0.037  11.381  22.236  0.00  0.00    +0.000 NA
ATOM     15  C   UNL     1       0.474  11.114  20.997  0.00  0.00    +0.000 A 
BRANCH  15  16
ATOM     16  N   UNL     1       0.892  12.254  20.329  0.00  0.00    +0.000 N 
ATOM     17  C   UNL     1      -0.174  13.115  19.804  0.00  0.00    +0.000 C 
ATOM     18  C   UNL     1       2.148  12.941  20.559  0.00  0.00    +0.000 C 
ENDBRANCH  15  16
ENDBRANCH   5  10
BRANCH   9  19
ATOM     19  C   UNL     1       4.988   6.253  18.661  0.00  0.00    +0.000 C 
ATOM     20  C   UNL     1       5.636   6.747  17.348  0.00  0.00    +0.000 C 
ATOM     21  C   UNL     1       7.139   6.990  17.451  0.00  0.00    +0.000 C 
ATOM     22  O   UNL     1       7.810   5.868  18.011  0.00  0.00    +0.000 OA
ATOM     23  C   UNL     1       7.365   5.619  19.339  0.00  0.00    +0.000 C 
ATOM     24  C   UNL     1       5.905   5.193  19.322  0.00  0.00    +0.000 C 
ENDBRANCH   9  19
BRANCH   9  25
ATOM     25  O   UNL     1       3.594   4.347  18.390  0.00  0.00    +0.000 OA
ATOM     26  H   UNL     1       4.318   4.185  17.761  0.00  0.00    +0.000 HD
ENDBRANCH   9  25
TORSDOF 4
ENDMDL
MODEL 2
REMARK VINA RESULT:      -6.6      4.964      8.262
REMARK  Name = 
REMARK  7 active torsions:
REMARK  status: ('A' for Active; 'I' for Inactive)
REMARK    1  A    between atoms: C_1  and  C_2
REMARK    2  A    between atoms: C_5  and  C_7
REMARK    3  A    between atoms: C_12  and  N_13
REMARK    4  A    between atoms: N_13  and  C_14
REMARK    5  A    between atoms: N_13  and  C_15
REMARK    6  A    between atoms: C_18  and  O_19
REMARK    7  A    between atoms: C_18  and  C_20
REMARK                            x       y       z     vdW  Elec       q    Type
REMARK                         _______ _______ _______ _____ _____    ______ ____
ROOT
ATOM      1  C   UNL     1      -1.249  14.708  20.729  0.00  0.00    +0.000 C 
ATOM      2  C   UNL     1      -1.418  13.188  20.524  0.00  0.00    +0.000 C 
ATOM      3  C   UNL     1      -2.915  12.900  20.493  0.00  0.00    +0.000 C 
ATOM      4  N   UNL     1      -3.590  12.830  21.790  0.00  0.00    +0.000 N 
ATOM      5  C   UNL     1      -5.011  12.801  21.910  0.00  0.00    +0.000 C 
ATOM      6  O   UNL     1      -5.554  12.335  22.912  0.00  0.00    +0.000 OA
ATOM      7  C   UNL     1      -2.868  12.222  22.909  0.00  0.00    +0.000 C 
ATOM      8  C   UNL     1      -1.359  12.468  22.922  0.00  0.00    +0.000 C 
ATOM      9  C   UNL     1      -0.663  12.307  21.556  0.00  0.00    +0.000 C 
ENDROOT
BRANCH   5  10
ATOM     10  C   UNL     1      -5.885  13.289  20.803  0.00  0.00    +0.000 A 
ATOM     11  C   UNL     1      -5.776  14.665  20.486  0.00  0.00    +0.000 A 
ATOM     12  C   UNL     1      -6.598  15.255  19.545  0.00  0.00    +0.000 A 
ATOM     13  C   UNL     1      -7.436  14.428  18.848  0.00  0.00    +0.000 A 
ATOM     14  N   UNL     1      -7.479  13.094  19.040  0.00  0.00    +0.000 NA
ATOM     15  C   UNL     1      -6.711  12.486  19.993  0.00  0.00    +0.000 A 
BRANCH  15  16
ATOM     16  N   UNL     1      -6.914  11.116  20.055  0.00  0.00    +0.000 N 
ATOM     17  C   UNL     1      -7.914  10.661  21.029  0.00  0.00    +0.000 C 
ATOM     18  C   UNL     1      -6.687  10.189  18.963  0.00  0.00    +0.000 C 
ENDBRANCH  15  16
ENDBRANCH   5  10
BRANCH   9  19
ATOM     19  C   UNL     1      -0.390  10.810  21.096  0.00  0.00    +0.000 C 
ATOM     20  C   UNL     1      -0.132   9.739  22.179  0.00  0.00    +0.000 C 
ATOM     21  C   UNL     1       0.319   8.391  21.625  0.00  0.00    +0.000 C 
ATOM     22  O   UNL     1       1.408   8.537  20.722  0.00  0.00    +0.000 OA
ATOM     23  C   UNL     1       1.033   9.316  19.593  0.00  0.00    +0.000 C 
ATOM     24  C   UNL     1       0.730  10.742  20.027  0.00  0.00    +0.000 C 
ENDBRANCH   9  19
BRANCH   9  25
ATOM     25  O   UNL     1       0.672  12.855  21.681  0.00  0.00    +0.000 OA
ATOM     26  H   UNL     1       0.870  13.400  20.901  0.00  0.00    +0.000 HD
ENDBRANCH   9  25
TORSDOF 4
ENDMDL
MODEL 3
REMARK VINA RESULT:      -6.6      2.547      7.363
REMARK  Name = 
REMARK  7 active torsions:
REMARK  status: ('A' for Active; 'I' for Inactive)
REMARK    1  A    between atoms: C_1  and  C_2
REMARK    2  A    between atoms: C_5  and  C_7
REMARK    3  A    between atoms: C_12  and  N_13
REMARK    4  A    between atoms: N_13  and  C_14
REMARK    5  A    between atoms: N_13  and  C_15
REMARK    6  A    between atoms: C_18  and  O_19
REMARK    7  A    between atoms: C_18  and  C_20
REMARK                            x       y       z     vdW  Elec       q    Type
REMARK                         _______ _______ _______ _____ _____    ______ ____
ROOT
ATOM      1  C   UNL     1       1.229   9.643  21.954  0.00  0.00    +0.000 C 
ATOM      2  C   UNL     1       0.268   9.297  20.797  0.00  0.00    +0.000 C 
ATOM      3  C   UNL     1       0.824   8.056  20.106  0.00  0.00    +0.000 C 
ATOM      4  N   UNL     1       1.924   8.274  19.166  0.00  0.00    +0.000 N 
ATOM      5  C   UNL     1       2.691   7.198  18.627  0.00  0.00    +0.000 C 
ATOM      6  O   UNL     1       3.304   7.325  17.567  0.00  0.00    +0.000 OA
ATOM      7  C   UNL     1       1.891   9.479  18.336  0.00  0.00    +0.000 C 
ATOM      8  C   UNL     1       1.294  10.716  19.007  0.00  0.00    +0.000 C 
ATOM      9  C   UNL     1       0.000  10.461  19.805  0.00  0.00    +0.000 C 
ENDROOT
BRANCH   5  10
ATOM     10  C   UNL     1       2.735   5.871  19.307  0.00  0.00    +0.000 A 
ATOM     11  C   UNL     1       1.580   5.511  20.043  0.00  0.00    +0.000 A 
ATOM     12  C   UNL     1       1.536   4.350  20.793  0.00  0.00    +0.000 A 
ATOM     13  C   UNL     1       2.609   3.507  20.694  0.00  0.00    +0.000 A 
ATOM     14  N   UNL     1       3.675   3.763  19.907  0.00  0.00    +0.000 NA
ATOM     15  C   UNL     1       3.769   4.922  19.189  0.00  0.00    +0.000 A 
BRANCH  15  16
ATOM     16  N   UNL     1       4.947   5.011  18.463  0.00  0.00    +0.000 N 
ATOM     17  C   UNL     1       6.154   5.320  19.238  0.00  0.00    +0.000 C 
ATOM     18  C   UNL     1       5.206   4.332  17.208  0.00  0.00    +0.000 C 
ENDBRANCH  15  16
ENDBRANCH   5  10
BRANCH   9  19
ATOM     19  C   UNL     1      -1.326  10.321  18.940  0.00  0.00    +0.000 C 
ATOM     20  C   UNL     1      -1.200   9.909  17.456  0.00  0.00    +0.000 C 
ATOM     21  C   UNL     1      -2.506  10.005  16.672  0.00  0.00    +0.000 C 
ATOM     22  O   UNL     1      -3.125  11.274  16.844  0.00  0.00    +0.000 OA
ATOM     23  C   UNL     1      -3.472  11.492  18.206  0.00  0.00    +0.000 C 
ATOM     24  C   UNL     1      -2.210  11.588  19.051  0.00  0.00    +0.000 C 
ENDBRANCH   9  19
BRANCH   9  25
ATOM     25  O   UNL     1      -0.259  11.642  20.602  0.00  0.00    +0.000 OA
ATOM     26  H   UNL     1      -0.810  12.260  20.093  0.00  0.00    +0.000 HD
ENDBRANCH   9  25
TORSDOF 4
ENDMDL
MODEL 4
REMARK VINA RESULT:      -6.5      5.497     10.546
REMARK  Name = 
REMARK  7 active torsions:
REMARK  status: ('A' for Active; 'I' for Inactive)
REMARK    1  A    between atoms: C_1  and  C_2
REMARK    2  A    between atoms: C_5  and  C_7
REMARK    3  A    between atoms: C_12  and  N_13
REMARK    4  A    between atoms: N_13  and  C_14
REMARK    5  A    between atoms: N_13  and  C_15
REMARK    6  A    between atoms: C_18  and  O_19
REMARK    7  A    between atoms: C_18  and  C_20
REMARK                            x       y       z     vdW  Elec       q    Type
REMARK                         _______ _______ _______ _____ _____    ______ ____
ROOT
ATOM      1  C   UNL     1      -4.739  12.252  24.667  0.00  0.00    +0.000 C 
ATOM      2  C   UNL     1      -4.714  13.022  23.330  0.00  0.00    +0.000 C 
ATOM      3  C   UNL     1      -3.425  12.638  22.611  0.00  0.00    +0.000 C 
ATOM      4  N   UNL     1      -2.206  13.314  23.057  0.00  0.00    +0.000 N 
ATOM      5  C   UNL     1      -0.907  12.894  22.645  0.00  0.00    +0.000 C 
ATOM      6  O   UNL     1       0.048  13.671  22.666  0.00  0.00    +0.000 OA
ATOM      7  C   UNL     1      -2.302  14.724  23.439  0.00  0.00    +0.000 C 
ATOM      8  C   UNL     1      -3.611  15.127  24.119  0.00  0.00    +0.000 C 
ATOM      9  C   UNL     1      -4.885  14.560  23.464  0.00  0.00    +0.000 C 
ENDROOT
BRANCH   5  10
ATOM     10  C   UNL     1      -0.674  11.513  22.129  0.00  0.00    +0.000 A 
ATOM     11  C   UNL     1      -0.677  10.480  23.097  0.00  0.00    +0.000 A 
ATOM     12  C   UNL     1      -0.381   9.173  22.756  0.00  0.00    +0.000 A 
ATOM     13  C   UNL     1      -0.205   8.903  21.427  0.00  0.00    +0.000 A 
ATOM     14  N   UNL     1      -0.315   9.843  20.466  0.00  0.00    +0.000 NA
ATOM     15  C   UNL     1      -0.563  11.151  20.772  0.00  0.00    +0.000 A 
BRANCH  15  16
ATOM     16  N   UNL     1      -0.615  11.967  19.652  0.00  0.00    +0.000 N 
ATOM     17  C   UNL     1       0.680  12.341  19.073  0.00  0.00    +0.000 C 
ATOM     18  C   UNL     1      -1.722  12.030  18.718  0.00  0.00    +0.000 C 
ENDBRANCH  15  16
ENDBRANCH   5  10
BRANCH   9  19
ATOM     19  C   UNL     1      -5.370  15.304  22.146  0.00  0.00    +0.000 C 
ATOM     20  C   UNL     1      -5.867  16.763  22.261  0.00  0.00    +0.000 C 
ATOM     21  C   UNL     1      -6.497  17.307  20.982  0.00  0.00    +0.000 C 
ATOM     22  O   UNL     1      -7.489  16.424  20.474  0.00  0.00    +0.000 OA
ATOM     23  C   UNL     1      -6.921  15.168  20.123  0.00  0.00    +0.000 C 
ATOM     24  C   UNL     1      -6.417  14.462  21.373  0.00  0.00    +0.000 C 
ENDBRANCH   9  19
BRANCH   9  25
ATOM     25  O   UNL     1      -5.982  14.783  24.383  0.00  0.00    +0.000 OA
ATOM     26  H   UNL     1      -5.727  15.462  25.030  0.00  0.00    +0.000 HD
ENDBRANCH   9  25
TORSDOF 4
ENDMDL
MODEL 5
REMARK VINA RESULT:      -6.4      5.263      8.656
REMARK  Name = 
REMARK  7 active torsions:
REMARK  status: ('A' for Active; 'I' for Inactive)
REMARK    1  A    between atoms: C_1  and  C_2
REMARK    2  A    between atoms: C_5  and  C_7
REMARK    3  A    between atoms: C_12  and  N_13
REMARK    4  A    between atoms: N_13  and  C_14
REMARK    5  A    between atoms: N_13  and  C_15
REMARK    6  A    between atoms: C_18  and  O_19
REMARK    7  A    between atoms: C_18  and  C_20
REMARK                            x       y       z     vdW  Elec       q    Type
REMARK                         _______ _______ _______ _____ _____    ______ ____
ROOT
ATOM      1  C   UNL     1      -1.716  15.380  21.221  0.00  0.00    +0.000 C 
ATOM      2  C   UNL     1      -1.553  13.859  21.017  0.00  0.00    +0.000 C 
ATOM      3  C   UNL     1      -2.886  13.329  20.496  0.00  0.00    +0.000 C 
ATOM      4  N   UNL     1      -3.933  13.113  21.496  0.00  0.00    +0.000 N 
ATOM      5  C   UNL     1      -5.287  12.846  21.135  0.00  0.00    +0.000 C 
ATOM      6  O   UNL     1      -6.049  12.270  21.912  0.00  0.00    +0.000 OA
ATOM      7  C   UNL     1      -3.536  12.601  22.808  0.00  0.00    +0.000 C 
ATOM      8  C   UNL     1      -2.181  13.092  23.317  0.00  0.00    +0.000 C 
ATOM      9  C   UNL     1      -1.052  13.086  22.267  0.00  0.00    +0.000 C 
ENDROOT
BRANCH   5  10
ATOM     10  C   UNL     1      -5.809  13.214  19.786  0.00  0.00    +0.000 A 
ATOM     11  C   UNL     1      -6.185  14.569  19.615  0.00  0.00    +0.000 A 
ATOM     12  C   UNL     1      -6.769  15.011  18.442  0.00  0.00    +0.000 A 
ATOM     13  C   UNL     1      -6.855  14.112  17.414  0.00  0.00    +0.000 A 
ATOM     14  N   UNL     1      -6.396  12.847  17.505  0.00  0.00    +0.000 NA
ATOM     15  C   UNL     1      -5.854  12.366  18.664  0.00  0.00    +0.000 A 
BRANCH  15  16
ATOM     16  N   UNL     1      -5.465  11.039  18.566  0.00  0.00    +0.000 N 
ATOM     17  C   UNL     1      -6.521  10.044  18.784  0.00  0.00    +0.000 C 
ATOM     18  C   UNL     1      -4.349  10.554  17.778  0.00  0.00    +0.000 C 
ENDBRANCH  15  16
ENDBRANCH   5  10
BRANCH   9  19
ATOM     19  C   UNL     1      -0.398  11.668  21.968  0.00  0.00    +0.000 C 
ATOM     20  C   UNL     1      -0.565  11.059  20.558  0.00  0.00    +0.000 C 
ATOM     21  C   UNL     1      -0.079   9.617  20.443  0.00  0.00    +0.000 C 
ATOM     22  O   UNL     1      -0.631   8.799  21.467  0.00  0.00    +0.000 OA
ATOM     23  C   UNL     1      -0.220   9.246  22.753  0.00  0.00    +0.000 C 
ATOM     24  C   UNL     1      -0.808  10.621  23.034  0.00  0.00    +0.000 C 
ENDBRANCH   9  19
BRANCH   9  25
ATOM     25  O   UNL     1       0.055  13.843  22.814  0.00  0.00    +0.000 OA
ATOM     26  H   UNL     1       0.839  13.718  22.252  0.00  0.00    +0.000 HD
ENDBRANCH   9  25
TORSDOF 4
ENDMDL
MODEL 6
REMARK VINA RESULT:      -6.4      5.083      8.758
REMARK  Name = 
REMARK  7 active torsions:
REMARK  status: ('A' for Active; 'I' for Inactive)
REMARK    1  A    between atoms: C_1  and  C_2
REMARK    2  A    between atoms: C_5  and  C_7
REMARK    3  A    between atoms: C_12  and  N_13
REMARK    4  A    between atoms: N_13  and  C_14
REMARK    5  A    between atoms: N_13  and  C_15
REMARK    6  A    between atoms: C_18  and  O_19
REMARK    7  A    between atoms: C_18  and  C_20
REMARK                            x       y       z     vdW  Elec       q    Type
REMARK                         _______ _______ _______ _____ _____    ______ ____
ROOT
ATOM      1  C   UNL     1      -1.830  15.170  21.246  0.00  0.00    +0.000 C 
ATOM      2  C   UNL     1      -1.816  13.646  21.005  0.00  0.00    +0.000 C 
ATOM      3  C   UNL     1      -3.171  13.271  20.413  0.00  0.00    +0.000 C 
ATOM      4  N   UNL     1      -4.279  13.140  21.361  0.00  0.00    +0.000 N 
ATOM      5  C   UNL     1      -5.636  13.024  20.935  0.00  0.00    +0.000 C 
ATOM      6  O   UNL     1      -6.487  12.512  21.662  0.00  0.00    +0.000 OA
ATOM      7  C   UNL     1      -3.997  12.558  22.674  0.00  0.00    +0.000 C 
ATOM      8  C   UNL     1      -2.622  12.893  23.253  0.00  0.00    +0.000 C 
ATOM      9  C   UNL     1      -1.454  12.795  22.252  0.00  0.00    +0.000 C 
ENDROOT
BRANCH   5  10
ATOM     10  C   UNL     1      -6.056  13.478  19.577  0.00  0.00    +0.000 A 
ATOM     11  C   UNL     1      -6.248  14.872  19.419  0.00  0.00    +0.000 A 
ATOM     12  C   UNL     1      -6.726  15.403  18.236  0.00  0.00    +0.000 A 
ATOM     13  C   UNL     1      -6.888  14.539  17.188  0.00  0.00    +0.000 A 
ATOM     14  N   UNL     1      -6.599  13.224  17.269  0.00  0.00    +0.000 NA
ATOM     15  C   UNL     1      -6.168  12.659  18.436  0.00  0.00    +0.000 A 
BRANCH  15  16
ATOM     16  N   UNL     1      -5.948  11.294  18.326  0.00  0.00    +0.000 N 
ATOM     17  C   UNL     1      -4.569  10.891  18.027  0.00  0.00    +0.000 C 
ATOM     18  C   UNL     1      -6.738  10.268  18.977  0.00  0.00    +0.000 C 
ENDBRANCH  15  16
ENDBRANCH   5  10
BRANCH   9  19
ATOM     19  C   UNL     1      -0.937  11.324  21.941  0.00  0.00    +0.000 C 
ATOM     20  C   UNL     1      -0.711  10.354  23.122  0.00  0.00    +0.000 C 
ATOM     21  C   UNL     1      -0.024   9.050  22.732  0.00  0.00    +0.000 C 
ATOM     22  O   UNL     1       1.159   9.289  21.980  0.00  0.00    +0.000 OA
ATOM     23  C   UNL     1       0.860   9.951  20.757  0.00  0.00    +0.000 C 
ATOM     24  C   UNL     1       0.326  11.347  21.043  0.00  0.00    +0.000 C 
ENDBRANCH   9  19
BRANCH   9  25
ATOM     25  O   UNL     1      -0.301  13.419  22.867  0.00  0.00    +0.000 OA
ATOM     26  H   UNL     1      -0.412  14.385  22.853  0.00  0.00    +0.000 HD
ENDBRANCH   9  25
TORSDOF 4
ENDMDL
MODEL 7
REMARK VINA RESULT:      -6.4      2.543      7.380
REMARK  Name = 
REMARK  7 active torsions:
REMARK  status: ('A' for Active; 'I' for Inactive)
REMARK    1  A    between atoms: C_1  and  C_2
REMARK    2  A    between atoms: C_5  and  C_7
REMARK    3  A    between atoms: C_12  and  N_13
REMARK    4  A    between atoms: N_13  and  C_14
REMARK    5  A    between atoms: N_13  and  C_15
REMARK    6  A    between atoms: C_18  and  O_19
REMARK    7  A    between atoms: C_18  and  C_20
REMARK                            x       y       z     vdW  Elec       q    Type
REMARK                         _______ _______ _______ _____ _____    ______ ____
ROOT
ATOM      1  C   UNL     1       1.613   9.111  21.665  0.00  0.00    +0.000 C 
ATOM      2  C   UNL     1       0.589   8.975  20.519  0.00  0.00    +0.000 C 
ATOM      3  C   UNL     1       1.143   7.947  19.538  0.00  0.00    +0.000 C 
ATOM      4  N   UNL     1       2.166   8.424  18.607  0.00  0.00    +0.000 N 
ATOM      5  C   UNL     1       2.935   7.536  17.798  0.00  0.00    +0.000 C 
ATOM      6  O   UNL     1       3.467   7.924  16.758  0.00  0.00    +0.000 OA
ATOM      7  C   UNL     1       2.028   9.778  18.068  0.00  0.00    +0.000 C 
ATOM      8  C   UNL     1       1.430  10.805  19.031  0.00  0.00    +0.000 C 
ATOM      9  C   UNL     1       0.206  10.312  19.828  0.00  0.00    +0.000 C 
ENDROOT
BRANCH   5  10
ATOM     10  C   UNL     1       3.079   6.096  18.163  0.00  0.00    +0.000 A 
ATOM     11  C   UNL     1       1.879   5.347  18.222  0.00  0.00    +0.000 A 
ATOM     12  C   UNL     1       1.873   4.029  18.640  0.00  0.00    +0.000 A 
ATOM     13  C   UNL     1       3.088   3.447  18.875  0.00  0.00    +0.000 A 
ATOM     14  N   UNL     1       4.258   4.097  18.711  0.00  0.00    +0.000 NA
ATOM     15  C   UNL     1       4.297   5.413  18.343  0.00  0.00    +0.000 A 
BRANCH  15  16
ATOM     16  N   UNL     1       5.589   5.908  18.252  0.00  0.00    +0.000 N 
ATOM     17  C   UNL     1       6.493   5.543  19.349  0.00  0.00    +0.000 C 
ATOM     18  C   UNL     1       6.266   6.249  17.015  0.00  0.00    +0.000 C 
ENDBRANCH  15  16
ENDBRANCH   5  10
BRANCH   9  19
ATOM     19  C   UNL     1      -1.170  10.293  19.033  0.00  0.00    +0.000 C 
ATOM     20  C   UNL     1      -1.148   9.966  17.524  0.00  0.00    +0.000 C 
ATOM     21  C   UNL     1      -2.487  10.176  16.822  0.00  0.00    +0.000 C 
ATOM     22  O   UNL     1      -3.024  11.463  17.101  0.00  0.00    +0.000 OA
ATOM     23  C   UNL     1      -3.285  11.616  18.491  0.00  0.00    +0.000 C 
ATOM     24  C   UNL     1      -1.976  11.596  19.267  0.00  0.00    +0.000 C 
ENDBRANCH   9  19
BRANCH   9  25
ATOM     25  O   UNL     1      -0.043  11.274  20.881  0.00  0.00    +0.000 OA
ATOM     26  H   UNL     1       0.763  11.795  21.038  0.00  0.00    +0.000 HD
ENDBRANCH   9  25
TORSDOF 4
ENDMDL
MODEL 8
REMARK VINA RESULT:      -6.4      5.562      8.526
REMARK  Name = 
REMARK  7 active torsions:
REMARK  status: ('A' for Active; 'I' for Inactive)
REMARK    1  A    between atoms: C_1  and  C_2
REMARK    2  A    between atoms: C_5  and  C_7
REMARK    3  A    between atoms: C_12  and  N_13
REMARK    4  A    between atoms: N_13  and  C_14
REMARK    5  A    between atoms: N_13  and  C_15
REMARK    6  A    between atoms: C_18  and  O_19
REMARK    7  A    between atoms: C_18  and  C_20
REMARK                            x       y       z     vdW  Elec       q    Type
REMARK                         _______ _______ _______ _____ _____    ______ ____
ROOT
ATOM      1  C   UNL     1       1.472  11.990  19.099  0.00  0.00    +0.000 C 
ATOM      2  C   UNL     1       0.056  12.133  18.503  0.00  0.00    +0.000 C 
ATOM      3  C   UNL     1      -0.231  13.625  18.373  0.00  0.00    +0.000 C 
ATOM      4  N   UNL     1      -0.644  14.316  19.595  0.00  0.00    +0.000 N 
ATOM      5  C   UNL     1      -0.719  15.738  19.679  0.00  0.00    +0.000 C 
ATOM      6  O   UNL     1      -1.435  16.288  20.516  0.00  0.00    +0.000 OA
ATOM      7  C   UNL     1      -1.514  13.600  20.529  0.00  0.00    +0.000 C 
ATOM      8  C   UNL     1      -1.264  12.095  20.631  0.00  0.00    +0.000 C 
ATOM      9  C   UNL     1      -1.056  11.379  19.282  0.00  0.00    +0.000 C 
ENDROOT
BRANCH   5  10
ATOM     10  C   UNL     1       0.032  16.604  18.723  0.00  0.00    +0.000 A 
ATOM     11  C   UNL     1      -0.754  17.431  17.885  0.00  0.00    +0.000 A 
ATOM     12  C   UNL     1      -0.180  18.207  16.896  0.00  0.00    +0.000 A 
ATOM     13  C   UNL     1       1.187  18.234  16.843  0.00  0.00    +0.000 A 
ATOM     14  N   UNL     1       1.969  17.551  17.705  0.00  0.00    +0.000 NA
ATOM     15  C   UNL     1       1.432  16.740  18.666  0.00  0.00    +0.000 A 
BRANCH  15  16
ATOM     16  N   UNL     1       2.396  16.106  19.435  0.00  0.00    +0.000 N 
ATOM     17  C   UNL     1       3.284  15.185  18.716  0.00  0.00    +0.000 C 
ATOM     18  C   UNL     1       2.956  16.629  20.666  0.00  0.00    +0.000 C 
ENDBRANCH  15  16
ENDBRANCH   5  10
BRANCH   9  19
ATOM     19  C   UNL     1      -2.378  11.077  18.453  0.00  0.00    +0.000 C 
ATOM     20  C   UNL     1      -2.316  11.147  16.911  0.00  0.00    +0.000 C 
ATOM     21  C   UNL     1      -3.677  11.044  16.229  0.00  0.00    +0.000 C 
ATOM     22  O   UNL     1      -4.610  11.960  16.787  0.00  0.00    +0.000 OA
ATOM     23  C   UNL     1      -4.842  11.678  18.163  0.00  0.00    +0.000 C 
ATOM     24  C   UNL     1      -3.571  11.926  18.961  0.00  0.00    +0.000 C 
ENDBRANCH   9  19
BRANCH   9  25
ATOM     25  O   UNL     1      -0.545  10.054  19.568  0.00  0.00    +0.000 OA
ATOM     26  H   UNL     1      -0.400   9.578  18.733  0.00  0.00    +0.000 HD
ENDBRANCH   9  25
TORSDOF 4
ENDMDL
MODEL 9
REMARK VINA RESULT:      -6.4      5.590      8.525
REMARK  Name = 
REMARK  7 active torsions:
REMARK  status: ('A' for Active; 'I' for Inactive)
REMARK    1  A    between atoms: C_1  and  C_2
REMARK    2  A    between atoms: C_5  and  C_7
REMARK    3  A    between atoms: C_12  and  N_13
REMARK    4  A    between atoms: N_13  and  C_14
REMARK    5  A    between atoms: N_13  and  C_15
REMARK    6  A    between atoms: C_18  and  O_19
REMARK    7  A    between atoms: C_18  and  C_20
REMARK                            x       y       z     vdW  Elec       q    Type
REMARK                         _______ _______ _______ _____ _____    ______ ____
ROOT
ATOM      1  C   UNL     1      -0.004  14.246  22.103  0.00  0.00    +0.000 C 
ATOM      2  C   UNL     1      -1.015  13.404  21.298  0.00  0.00    +0.000 C 
ATOM      3  C   UNL     1      -2.364  13.528  21.998  0.00  0.00    +0.000 C 
ATOM      4  N   UNL     1      -2.562  12.690  23.181  0.00  0.00    +0.000 N 
ATOM      5  C   UNL     1      -3.669  12.865  24.064  0.00  0.00    +0.000 C 
ATOM      6  O   UNL     1      -4.061  11.945  24.782  0.00  0.00    +0.000 OA
ATOM      7  C   UNL     1      -1.996  11.340  23.170  0.00  0.00    +0.000 C 
ATOM      8  C   UNL     1      -0.666  11.197  22.430  0.00  0.00    +0.000 C 
ATOM      9  C   UNL     1      -0.595  11.926  21.074  0.00  0.00    +0.000 C 
ENDROOT
BRANCH   5  10
ATOM     10  C   UNL     1      -4.416  14.157  24.110  0.00  0.00    +0.000 A 
ATOM     11  C   UNL     1      -3.708  15.266  24.632  0.00  0.00    +0.000 A 
ATOM     12  C   UNL     1      -4.322  16.492  24.812  0.00  0.00    +0.000 A 
ATOM     13  C   UNL     1      -5.604  16.618  24.352  0.00  0.00    +0.000 A 
ATOM     14  N   UNL     1      -6.266  15.615  23.740  0.00  0.00    +0.000 NA
ATOM     15  C   UNL     1      -5.705  14.378  23.586  0.00  0.00    +0.000 A 
BRANCH  15  16
ATOM     16  N   UNL     1      -6.550  13.477  22.957  0.00  0.00    +0.000 N 
ATOM     17  C   UNL     1      -6.187  13.113  21.582  0.00  0.00    +0.000 C 
ATOM     18  C   UNL     1      -7.370  12.492  23.634  0.00  0.00    +0.000 C 
ENDBRANCH  15  16
ENDBRANCH   5  10
BRANCH   9  19
ATOM     19  C   UNL     1      -1.318  11.193  19.862  0.00  0.00    +0.000 C 
ATOM     20  C   UNL     1      -0.448  10.452  18.822  0.00  0.00    +0.000 C 
ATOM     21  C   UNL     1      -1.222   9.964  17.600  0.00  0.00    +0.000 C 
ATOM     22  O   UNL     1      -2.002  11.006  17.027  0.00  0.00    +0.000 OA
ATOM     23  C   UNL     1      -2.981  11.474  17.947  0.00  0.00    +0.000 C 
ATOM     24  C   UNL     1      -2.300  12.143  19.131  0.00  0.00    +0.000 C 
ENDBRANCH   9  19
BRANCH   9  25
ATOM     25  O   UNL     1       0.793  11.940  20.660  0.00  0.00    +0.000 OA
ATOM     26  H   UNL     1       1.168  11.049  20.761  0.00  0.00    +0.000 HD
ENDBRANCH   9  25
TORSDOF 4
ENDMDL
