MODEL 1
REMARK VINA RESULT:      -7.3      0.000      0.000
REMARK  Name = 
REMARK  8 active torsions:
REMARK  status: ('A' for Active; 'I' for Inactive)
REMARK    1  A    between atoms: C_1  and  C_2
REMARK    2  A    between atoms: C_2  and  C_3
REMARK    3  A    between atoms: C_3  and  N_4
REMARK    4  A    between atoms: N_4  and  C_5
REMARK    5  A    between atoms: C_7  and  O_8
REMARK    6  A    between atoms: O_8  and  C_9
REMARK    7  A    between atoms: C_12  and  O_13
REMARK    8  A    between atoms: O_13  and  C_14
REMARK                            x       y       z     vdW  Elec       q    Type
REMARK                         _______ _______ _______ _____ _____    ______ ____
ROOT
ATOM      1  C   UNL     1       3.544   4.570  18.256  0.00  0.00    +0.000 C 
ATOM      2  C   UNL     1       3.166   4.226  19.514  0.00  0.00    +0.000 C 
ATOM      3  C   UNL     1       2.198   4.970  20.357  0.00  0.00    +0.000 C 
ATOM      4  O   UNL     1       1.967   6.165  20.269  0.00  0.00    +0.000 OA
ATOM      5  N   UNL     1       1.566   4.186  21.291  0.00  0.00    +0.000 N 
ATOM      6  C   UNL     1       1.824   2.880  21.573  0.00  0.00    +0.000 C 
ATOM      7  O   UNL     1       1.294   2.302  22.517  0.00  0.00    +0.000 OA
ATOM      8  N   UNL     1       2.766   2.260  20.809  0.00  0.00    +0.000 N 
ATOM      9  C   UNL     1       3.689   2.961  20.097  0.00  0.00    +0.000 C 
ATOM     10  O   UNL     1       4.866   2.615  20.057  0.00  0.00    +0.000 OA
ATOM     11  H   UNL     1       0.907   4.650  21.902  0.00  0.00    +0.000 HD
ATOM     12  H   UNL     1       3.092   1.382  21.191  0.00  0.00    +0.000 HD
ENDROOT
BRANCH   1  14
ATOM     13  C   UNL     1       4.157   6.985  17.770  0.00  0.00    +0.000 C 
ATOM     14  C   UNL     1       3.133   5.876  17.582  0.00  0.00    +0.000 C 
ENDBRANCH   1  14
BRANCH   1  15
ATOM     15  N   UNL     1       4.277   3.675  17.469  0.00  0.00    +0.000 N 
ATOM     16  H   UNL     1       4.498   2.796  17.934  0.00  0.00    +0.000 HD
BRANCH  15  17
ATOM     17  C   UNL     1       5.291   4.020  16.533  0.00  0.00    +0.000 A 
ATOM     18  C   UNL     1       5.088   3.899  15.147  0.00  0.00    +0.000 A 
ATOM     19  C   UNL     1       6.063   4.274  14.215  0.00  0.00    +0.000 A 
ATOM     20  C   UNL     1       7.293   4.740  14.664  0.00  0.00    +0.000 A 
ATOM     21  C   UNL     1       7.547   4.797  16.035  0.00  0.00    +0.000 A 
ATOM     22  C   UNL     1       6.569   4.425  16.968  0.00  0.00    +0.000 A 
BRANCH  19  23
ATOM     23  O   UNL     1       5.676   4.183  12.906  0.00  0.00    +0.000 OA
ATOM     24  C   UNL     1       6.287   3.147  12.144  0.00  0.00    +0.000 C 
ENDBRANCH  19  23
BRANCH  22  25
ATOM     25  O   UNL     1       6.963   4.578  18.274  0.00  0.00    +0.000 OA
ATOM     26  C   UNL     1       7.576   5.824  18.596  0.00  0.00    +0.000 C 
ENDBRANCH  22  25
ENDBRANCH  15  17
ENDBRANCH   1  15
TORSDOF 5
ENDMDL
MODEL 2
REMARK VINA RESULT:      -7.3      2.002      6.485
REMARK  Name = 
REMARK  8 active torsions:
REMARK  status: ('A' for Active; 'I' for Inactive)
REMARK    1  A    between atoms: C_1  and  C_2
REMARK    2  A    between atoms: C_2  and  C_3
REMARK    3  A    between atoms: C_3  and  N_4
REMARK    4  A    between atoms: N_4  and  C_5
REMARK    5  A    between atoms: C_7  and  O_8
REMARK    6  A    between atoms: O_8  and  C_9
REMARK    7  A    between atoms: C_12  and  O_13
REMARK    8  A    between atoms: O_13  and  C_14
REMARK                            x       y       z     vdW  Elec       q    Type
REMARK                         _______ _______ _______ _____ _____    ______ ____
ROOT
ATOM      1  C   UNL     1       6.152   4.972  18.285  0.00  0.00    +0.000 C 
ATOM      2  C   UNL     1       6.163   5.044  16.929  0.00  0.00    +0.000 C 
ATOM      3  C   UNL     1       7.080   5.881  16.118  0.00  0.00    +0.000 C 
ATOM      4  O   UNL     1       7.603   6.916  16.497  0.00  0.00    +0.000 OA
ATOM      5  N   UNL     1       7.295   5.393  14.851  0.00  0.00    +0.000 N 
ATOM      6  C   UNL     1       6.678   4.329  14.269  0.00  0.00    +0.000 C 
ATOM      7  O   UNL     1       6.844   4.050  13.085  0.00  0.00    +0.000 OA
ATOM      8  N   UNL     1       5.799   3.630  15.039  0.00  0.00    +0.000 N 
ATOM      9  C   UNL     1       5.242   4.164  16.159  0.00  0.00    +0.000 C 
ATOM     10  O   UNL     1       4.052   4.012  16.419  0.00  0.00    +0.000 OA
ATOM     11  H   UNL     1       7.901   5.937  14.252  0.00  0.00    +0.000 HD
ATOM     12  H   UNL     1       5.199   3.007  14.515  0.00  0.00    +0.000 HD
ENDROOT
BRANCH   1  14
ATOM     13  C   UNL     1       8.335   5.252  19.548  0.00  0.00    +0.000 C 
ATOM     14  C   UNL     1       6.996   5.873  19.181  0.00  0.00    +0.000 C 
ENDBRANCH   1  14
BRANCH   1  15
ATOM     15  N   UNL     1       5.409   3.979  18.933  0.00  0.00    +0.000 N 
ATOM     16  H   UNL     1       5.522   3.048  18.537  0.00  0.00    +0.000 HD
BRANCH  15  17
ATOM     17  C   UNL     1       4.110   4.136  19.491  0.00  0.00    +0.000 A 
ATOM     18  C   UNL     1       3.560   5.407  19.737  0.00  0.00    +0.000 A 
ATOM     19  C   UNL     1       2.267   5.574  20.246  0.00  0.00    +0.000 A 
ATOM     20  C   UNL     1       1.508   4.454  20.565  0.00  0.00    +0.000 A 
ATOM     21  C   UNL     1       2.059   3.182  20.401  0.00  0.00    +0.000 A 
ATOM     22  C   UNL     1       3.353   3.016  19.888  0.00  0.00    +0.000 A 
BRANCH  19  23
ATOM     23  O   UNL     1       1.847   6.873  20.341  0.00  0.00    +0.000 OA
ATOM     24  C   UNL     1       2.186   7.721  19.249  0.00  0.00    +0.000 C 
ENDBRANCH  19  23
BRANCH  22  25
ATOM     25  O   UNL     1       3.730   1.702  19.751  0.00  0.00    +0.000 OA
ATOM     26  C   UNL     1       3.633   1.163  18.435  0.00  0.00    +0.000 C 
ENDBRANCH  22  25
ENDBRANCH  15  17
ENDBRANCH   1  15
TORSDOF 5
ENDMDL
MODEL 3
REMARK VINA RESULT:      -7.2      2.092      6.513
REMARK  Name = 
REMARK  8 active torsions:
REMARK  status: ('A' for Active; 'I' for Inactive)
REMARK    1  A    between atoms: C_1  and  C_2
REMARK    2  A    between atoms: C_2  and  C_3
REMARK    3  A    between atoms: C_3  and  N_4
REMARK    4  A    between atoms: N_4  and  C_5
REMARK    5  A    between atoms: C_7  and  O_8
REMARK    6  A    between atoms: O_8  and  C_9
REMARK    7  A    between atoms: C_12  and  O_13
REMARK    8  A    between atoms: O_13  and  C_14
REMARK                            x       y       z     vdW  Elec       q    Type
REMARK                         _______ _______ _______ _____ _____    ______ ____
ROOT
ATOM      1  C   UNL     1       6.208   4.801  18.225  0.00  0.00    +0.000 C 
ATOM      2  C   UNL     1       6.203   4.945  16.874  0.00  0.00    +0.000 C 
ATOM      3  C   UNL     1       6.973   5.958  16.113  0.00  0.00    +0.000 C 
ATOM      4  O   UNL     1       7.327   7.042  16.548  0.00  0.00    +0.000 OA
ATOM      5  N   UNL     1       7.260   5.577  14.823  0.00  0.00    +0.000 N 
ATOM      6  C   UNL     1       6.818   4.461  14.183  0.00  0.00    +0.000 C 
ATOM      7  O   UNL     1       7.023   4.274  12.988  0.00  0.00    +0.000 OA
ATOM      8  N   UNL     1       6.064   3.591  14.911  0.00  0.00    +0.000 N 
ATOM      9  C   UNL     1       5.432   3.972  16.054  0.00  0.00    +0.000 C 
ATOM     10  O   UNL     1       4.282   3.619  16.300  0.00  0.00    +0.000 OA
ATOM     11  H   UNL     1       7.770   6.241  14.257  0.00  0.00    +0.000 HD
ATOM     12  H   UNL     1       5.569   2.909  14.352  0.00  0.00    +0.000 HD
ENDROOT
BRANCH   1  14
ATOM     13  C   UNL     1       8.326   5.364  19.504  0.00  0.00    +0.000 C 
ATOM     14  C   UNL     1       6.900   5.778  19.171  0.00  0.00    +0.000 C 
ENDBRANCH   1  14
BRANCH   1  15
ATOM     15  N   UNL     1       5.634   3.671  18.816  0.00  0.00    +0.000 N 
ATOM     16  H   UNL     1       5.680   2.831  18.242  0.00  0.00    +0.000 HD
BRANCH  15  17
ATOM     17  C   UNL     1       4.475   3.655  19.641  0.00  0.00    +0.000 A 
ATOM     18  C   UNL     1       3.666   4.794  19.800  0.00  0.00    +0.000 A 
ATOM     19  C   UNL     1       2.500   4.778  20.575  0.00  0.00    +0.000 A 
ATOM     20  C   UNL     1       2.146   3.618  21.252  0.00  0.00    +0.000 A 
ATOM     21  C   UNL     1       2.973   2.496  21.171  0.00  0.00    +0.000 A 
ATOM     22  C   UNL     1       4.138   2.511  20.392  0.00  0.00    +0.000 A 
BRANCH  19  23
ATOM     23  O   UNL     1       1.776   5.939  20.553  0.00  0.00    +0.000 OA
ATOM     24  C   UNL     1       2.275   6.971  19.708  0.00  0.00    +0.000 C 
ENDBRANCH  19  23
BRANCH  22  25
ATOM     25  O   UNL     1       4.817   1.317  20.387  0.00  0.00    +0.000 OA
ATOM     26  C   UNL     1       5.518   0.997  21.586  0.00  0.00    +0.000 C 
ENDBRANCH  22  25
ENDBRANCH  15  17
ENDBRANCH   1  15
TORSDOF 5
ENDMDL
MODEL 4
REMARK VINA RESULT:      -7.1      2.555      6.837
REMARK  Name = 
REMARK  8 active torsions:
REMARK  status: ('A' for Active; 'I' for Inactive)
REMARK    1  A    between atoms: C_1  and  C_2
REMARK    2  A    between atoms: C_2  and  C_3
REMARK    3  A    between atoms: C_3  and  N_4
REMARK    4  A    between atoms: N_4  and  C_5
REMARK    5  A    between atoms: C_7  and  O_8
REMARK    6  A    between atoms: O_8  and  C_9
REMARK    7  A    between atoms: C_12  and  O_13
REMARK    8  A    between atoms: O_13  and  C_14
REMARK                            x       y       z     vdW  Elec       q    Type
REMARK                         _______ _______ _______ _____ _____    ______ ____
ROOT
ATOM      1  C   UNL     1       4.740   5.034  18.178  0.00  0.00    +0.000 C 
ATOM      2  C   UNL     1       5.656   5.289  17.209  0.00  0.00    +0.000 C 
ATOM      3  C   UNL     1       7.035   4.744  17.160  0.00  0.00    +0.000 C 
ATOM      4  O   UNL     1       7.687   4.400  18.133  0.00  0.00    +0.000 OA
ATOM      5  N   UNL     1       7.551   4.663  15.889  0.00  0.00    +0.000 N 
ATOM      6  C   UNL     1       6.980   5.127  14.744  0.00  0.00    +0.000 C 
ATOM      7  O   UNL     1       7.579   5.125  13.673  0.00  0.00    +0.000 OA
ATOM      8  N   UNL     1       5.737   5.673  14.852  0.00  0.00    +0.000 N 
ATOM      9  C   UNL     1       5.250   6.119  16.042  0.00  0.00    +0.000 C 
ATOM     10  O   UNL     1       4.634   7.177  16.127  0.00  0.00    +0.000 OA
ATOM     11  H   UNL     1       8.495   4.313  15.804  0.00  0.00    +0.000 HD
ATOM     12  H   UNL     1       5.451   6.207  14.043  0.00  0.00    +0.000 HD
ENDROOT
BRANCH   1  14
ATOM     13  C   UNL     1       4.482   2.852  19.449  0.00  0.00    +0.000 C 
ATOM     14  C   UNL     1       5.061   4.259  19.453  0.00  0.00    +0.000 C 
ENDBRANCH   1  14
BRANCH   1  15
ATOM     15  N   UNL     1       3.404   5.407  18.003  0.00  0.00    +0.000 N 
ATOM     16  H   UNL     1       3.074   5.340  17.042  0.00  0.00    +0.000 HD
BRANCH  15  17
ATOM     17  C   UNL     1       2.728   6.451  18.695  0.00  0.00    +0.000 A 
ATOM     18  C   UNL     1       2.612   7.743  18.152  0.00  0.00    +0.000 A 
ATOM     19  C   UNL     1       1.914   8.766  18.804  0.00  0.00    +0.000 A 
ATOM     20  C   UNL     1       1.352   8.522  20.051  0.00  0.00    +0.000 A 
ATOM     21  C   UNL     1       1.518   7.270  20.646  0.00  0.00    +0.000 A 
ATOM     22  C   UNL     1       2.214   6.245  19.991  0.00  0.00    +0.000 A 
BRANCH  19  23
ATOM     23  O   UNL     1       1.814   9.935  18.101  0.00  0.00    +0.000 OA
ATOM     24  C   UNL     1       1.230  11.033  18.794  0.00  0.00    +0.000 C 
ENDBRANCH  19  23
BRANCH  22  25
ATOM     25  O   UNL     1       2.252   5.065  20.693  0.00  0.00    +0.000 OA
ATOM     26  C   UNL     1       1.126   4.206  20.526  0.00  0.00    +0.000 C 
ENDBRANCH  22  25
ENDBRANCH  15  17
ENDBRANCH   1  15
TORSDOF 5
ENDMDL
MODEL 5
REMARK VINA RESULT:      -7.1      2.349      6.408
REMARK  Name = 
REMARK  8 active torsions:
REMARK  status: ('A' for Active; 'I' for Inactive)
REMARK    1  A    between atoms: C_1  and  C_2
REMARK    2  A    between atoms: C_2  and  C_3
REMARK    3  A    between atoms: C_3  and  N_4
REMARK    4  A    between atoms: N_4  and  C_5
REMARK    5  A    between atoms: C_7  and  O_8
REMARK    6  A    between atoms: O_8  and  C_9
REMARK    7  A    between atoms: C_12  and  O_13
REMARK    8  A    between atoms: O_13  and  C_14
REMARK                            x       y       z     vdW  Elec       q    Type
REMARK                         _______ _______ _______ _____ _____    ______ ____
ROOT
ATOM      1  C   UNL     1       6.075   4.398  17.748  0.00  0.00    +0.000 C 
ATOM      2  C   UNL     1       6.990   5.400  17.714  0.00  0.00    +0.000 C 
ATOM      3  C   UNL     1       7.409   6.145  16.501  0.00  0.00    +0.000 C 
ATOM      4  O   UNL     1       7.373   5.707  15.363  0.00  0.00    +0.000 OA
ATOM      5  N   UNL     1       7.871   7.412  16.766  0.00  0.00    +0.000 N 
ATOM      6  C   UNL     1       8.079   7.968  17.990  0.00  0.00    +0.000 C 
ATOM      7  O   UNL     1       8.619   9.062  18.124  0.00  0.00    +0.000 OA
ATOM      8  N   UNL     1       7.734   7.218  19.073  0.00  0.00    +0.000 N 
ATOM      9  C   UNL     1       7.586   5.868  18.995  0.00  0.00    +0.000 C 
ATOM     10  O   UNL     1       8.023   5.123  19.867  0.00  0.00    +0.000 OA
ATOM     11  H   UNL     1       8.184   7.955  15.973  0.00  0.00    +0.000 HD
ATOM     12  H   UNL     1       8.112   7.560  19.947  0.00  0.00    +0.000 HD
ENDROOT
BRANCH   1  14
ATOM     13  C   UNL     1       4.015   4.235  16.273  0.00  0.00    +0.000 C 
ATOM     14  C   UNL     1       5.452   3.787  16.496  0.00  0.00    +0.000 C 
ENDBRANCH   1  14
BRANCH   1  15
ATOM     15  N   UNL     1       5.586   3.929  18.971  0.00  0.00    +0.000 N 
ATOM     16  H   UNL     1       5.930   3.006  19.232  0.00  0.00    +0.000 HD
BRANCH  15  17
ATOM     17  C   UNL     1       4.278   4.145  19.488  0.00  0.00    +0.000 A 
ATOM     18  C   UNL     1       3.769   5.440  19.692  0.00  0.00    +0.000 A 
ATOM     19  C   UNL     1       2.469   5.664  20.160  0.00  0.00    +0.000 A 
ATOM     20  C   UNL     1       1.661   4.580  20.481  0.00  0.00    +0.000 A 
ATOM     21  C   UNL     1       2.170   3.285  20.359  0.00  0.00    +0.000 A 
ATOM     22  C   UNL     1       3.471   3.061  19.887  0.00  0.00    +0.000 A 
BRANCH  19  23
ATOM     23  O   UNL     1       2.094   6.979  20.215  0.00  0.00    +0.000 OA
ATOM     24  C   UNL     1       2.248   7.724  19.013  0.00  0.00    +0.000 C 
ENDBRANCH  19  23
BRANCH  22  25
ATOM     25  O   UNL     1       3.802   1.732  19.788  0.00  0.00    +0.000 OA
ATOM     26  C   UNL     1       3.676   1.155  18.490  0.00  0.00    +0.000 C 
ENDBRANCH  22  25
ENDBRANCH  15  17
ENDBRANCH   1  15
TORSDOF 5
ENDMDL
MODEL 6
REMARK VINA RESULT:      -7.0      2.274      6.445
REMARK  Name = 
REMARK  8 active torsions:
REMARK  status: ('A' for Active; 'I' for Inactive)
REMARK    1  A    between atoms: C_1  and  C_2
REMARK    2  A    between atoms: C_2  and  C_3
REMARK    3  A    between atoms: C_3  and  N_4
REMARK    4  A    between atoms: N_4  and  C_5
REMARK    5  A    between atoms: C_7  and  O_8
REMARK    6  A    between atoms: O_8  and  C_9
REMARK    7  A    between atoms: C_12  and  O_13
REMARK    8  A    between atoms: O_13  and  C_14
REMARK                            x       y       z     vdW  Elec       q    Type
REMARK                         _______ _______ _______ _____ _____    ______ ____
ROOT
ATOM      1  C   UNL     1       4.702   3.838  18.110  0.00  0.00    +0.000 C 
ATOM      2  C   UNL     1       5.807   4.529  17.728  0.00  0.00    +0.000 C 
ATOM      3  C   UNL     1       6.355   4.584  16.351  0.00  0.00    +0.000 C 
ATOM      4  O   UNL     1       6.213   3.716  15.505  0.00  0.00    +0.000 OA
ATOM      5  N   UNL     1       7.077   5.725  16.091  0.00  0.00    +0.000 N 
ATOM      6  C   UNL     1       7.413   6.700  16.978  0.00  0.00    +0.000 C 
ATOM      7  O   UNL     1       8.173   7.616  16.679  0.00  0.00    +0.000 OA
ATOM      8  N   UNL     1       6.934   6.570  18.247  0.00  0.00    +0.000 N 
ATOM      9  C   UNL     1       6.505   5.375  18.734  0.00  0.00    +0.000 C 
ATOM     10  O   UNL     1       6.788   5.006  19.870  0.00  0.00    +0.000 OA
ATOM     11  H   UNL     1       7.486   5.803  15.170  0.00  0.00    +0.000 HD
ATOM     12  H   UNL     1       7.387   7.172  18.921  0.00  0.00    +0.000 HD
ENDROOT
BRANCH   1  14
ATOM     13  C   UNL     1       2.916   2.044  17.927  0.00  0.00    +0.000 C 
ATOM     14  C   UNL     1       3.948   2.884  17.189  0.00  0.00    +0.000 C 
ENDBRANCH   1  14
BRANCH   1  15
ATOM     15  N   UNL     1       4.143   4.045  19.375  0.00  0.00    +0.000 N 
ATOM     16  H   UNL     1       3.940   3.188  19.887  0.00  0.00    +0.000 HD
BRANCH  15  17
ATOM     17  C   UNL     1       3.222   5.071  19.726  0.00  0.00    +0.000 A 
ATOM     18  C   UNL     1       3.191   6.300  19.043  0.00  0.00    +0.000 A 
ATOM     19  C   UNL     1       2.263   7.301  19.351  0.00  0.00    +0.000 A 
ATOM     20  C   UNL     1       1.366   7.103  20.394  0.00  0.00    +0.000 A 
ATOM     21  C   UNL     1       1.426   5.922  21.137  0.00  0.00    +0.000 A 
ATOM     22  C   UNL     1       2.354   4.919  20.825  0.00  0.00    +0.000 A 
BRANCH  19  23
ATOM     23  O   UNL     1       2.304   8.398  18.535  0.00  0.00    +0.000 OA
ATOM     24  C   UNL     1       1.353   9.420  18.813  0.00  0.00    +0.000 C 
ENDBRANCH  19  23
BRANCH  22  25
ATOM     25  O   UNL     1       2.255   3.806  21.624  0.00  0.00    +0.000 OA
ATOM     26  C   UNL     1       1.293   2.836  21.220  0.00  0.00    +0.000 C 
ENDBRANCH  22  25
ENDBRANCH  15  17
ENDBRANCH   1  15
TORSDOF 5
ENDMDL
MODEL 7
REMARK VINA RESULT:      -7.0      2.129      6.426
REMARK  Name = 
REMARK  8 active torsions:
REMARK  status: ('A' for Active; 'I' for Inactive)
REMARK    1  A    between atoms: C_1  and  C_2
REMARK    2  A    between atoms: C_2  and  C_3
REMARK    3  A    between atoms: C_3  and  N_4
REMARK    4  A    between atoms: N_4  and  C_5
REMARK    5  A    between atoms: C_7  and  O_8
REMARK    6  A    between atoms: O_8  and  C_9
REMARK    7  A    between atoms: C_12  and  O_13
REMARK    8  A    between atoms: O_13  and  C_14
REMARK                            x       y       z     vdW  Elec       q    Type
REMARK                         _______ _______ _______ _____ _____    ______ ____
ROOT
ATOM      1  C   UNL     1       5.687   5.475  18.145  0.00  0.00    +0.000 C 
ATOM      2  C   UNL     1       6.037   5.264  16.850  0.00  0.00    +0.000 C 
ATOM      3  C   UNL     1       7.189   4.449  16.390  0.00  0.00    +0.000 C 
ATOM      4  O   UNL     1       8.207   4.250  17.033  0.00  0.00    +0.000 OA
ATOM      5  N   UNL     1       7.024   3.926  15.130  0.00  0.00    +0.000 N 
ATOM      6  C   UNL     1       6.002   4.175  14.267  0.00  0.00    +0.000 C 
ATOM      7  O   UNL     1       6.011   3.762  13.112  0.00  0.00    +0.000 OA
ATOM      8  N   UNL     1       4.998   4.979  14.718  0.00  0.00    +0.000 N 
ATOM      9  C   UNL     1       5.169   5.818  15.775  0.00  0.00    +0.000 C 
ATOM     10  O   UNL     1       4.733   6.965  15.761  0.00  0.00    +0.000 OA
ATOM     11  H   UNL     1       7.789   3.376  14.764  0.00  0.00    +0.000 HD
ATOM     12  H   UNL     1       4.390   5.325  13.988  0.00  0.00    +0.000 HD
ENDROOT
BRANCH   1  14
ATOM     13  C   UNL     1       7.723   5.932  19.588  0.00  0.00    +0.000 C 
ATOM     14  C   UNL     1       6.534   5.019  19.329  0.00  0.00    +0.000 C 
ENDBRANCH   1  14
BRANCH   1  15
ATOM     15  N   UNL     1       4.455   6.059  18.457  0.00  0.00    +0.000 N 
ATOM     16  H   UNL     1       4.520   7.023  18.779  0.00  0.00    +0.000 HD
BRANCH  15  17
ATOM     17  C   UNL     1       3.344   5.401  19.055  0.00  0.00    +0.000 A 
ATOM     18  C   UNL     1       3.133   4.019  18.900  0.00  0.00    +0.000 A 
ATOM     19  C   UNL     1       2.068   3.354  19.518  0.00  0.00    +0.000 A 
ATOM     20  C   UNL     1       1.156   4.080  20.275  0.00  0.00    +0.000 A 
ATOM     21  C   UNL     1       1.301   5.465  20.382  0.00  0.00    +0.000 A 
ATOM     22  C   UNL     1       2.370   6.130  19.765  0.00  0.00    +0.000 A 
BRANCH  19  23
ATOM     23  O   UNL     1       2.056   1.997  19.344  0.00  0.00    +0.000 OA
ATOM     24  C   UNL     1       3.149   1.451  18.616  0.00  0.00    +0.000 C 
ENDBRANCH  19  23
BRANCH  22  25
ATOM     25  O   UNL     1       2.390   7.482  20.001  0.00  0.00    +0.000 OA
ATOM     26  C   UNL     1       1.407   7.969  20.912  0.00  0.00    +0.000 C 
ENDBRANCH  22  25
ENDBRANCH  15  17
ENDBRANCH   1  15
TORSDOF 5
ENDMDL
MODEL 8
REMARK VINA RESULT:      -6.9      1.547      1.577
REMARK  Name = 
REMARK  8 active torsions:
REMARK  status: ('A' for Active; 'I' for Inactive)
REMARK    1  A    between atoms: C_1  and  C_2
REMARK    2  A    between atoms: C_2  and  C_3
REMARK    3  A    between atoms: C_3  and  N_4
REMARK    4  A    between atoms: N_4  and  C_5
REMARK    5  A    between atoms: C_7  and  O_8
REMARK    6  A    between atoms: O_8  and  C_9
REMARK    7  A    between atoms: C_12  and  O_13
REMARK    8  A    between atoms: O_13  and  C_14
REMARK                            x       y       z     vdW  Elec       q    Type
REMARK                         _______ _______ _______ _____ _____    ______ ____
ROOT
ATOM      1  C   UNL     1       4.421   4.623  18.709  0.00  0.00    +0.000 C 
ATOM      2  C   UNL     1       3.326   3.903  19.065  0.00  0.00    +0.000 C 
ATOM      3  C   UNL     1       2.030   4.470  19.511  0.00  0.00    +0.000 C 
ATOM      4  O   UNL     1       1.889   5.556  20.052  0.00  0.00    +0.000 OA
ATOM      5  N   UNL     1       0.957   3.644  19.274  0.00  0.00    +0.000 N 
ATOM      6  C   UNL     1       0.995   2.370  18.800  0.00  0.00    +0.000 C 
ATOM      7  O   UNL     1      -0.009   1.666  18.746  0.00  0.00    +0.000 OA
ATOM      8  N   UNL     1       2.218   1.875  18.461  0.00  0.00    +0.000 N 
ATOM      9  C   UNL     1       3.370   2.421  18.935  0.00  0.00    +0.000 C 
ATOM     10  O   UNL     1       4.301   1.721  19.322  0.00  0.00    +0.000 OA
ATOM     11  H   UNL     1       0.052   3.979  19.576  0.00  0.00    +0.000 HD
ATOM     12  H   UNL     1       2.236   0.871  18.339  0.00  0.00    +0.000 HD
ENDROOT
BRANCH   1  14
ATOM     13  C   UNL     1       3.973   6.892  17.664  0.00  0.00    +0.000 C 
ATOM     14  C   UNL     1       4.519   6.137  18.867  0.00  0.00    +0.000 C 
ENDBRANCH   1  14
BRANCH   1  15
ATOM     15  N   UNL     1       5.504   3.997  18.083  0.00  0.00    +0.000 N 
ATOM     16  H   UNL     1       6.258   3.736  18.715  0.00  0.00    +0.000 HD
BRANCH  15  17
ATOM     17  C   UNL     1       6.014   4.302  16.790  0.00  0.00    +0.000 A 
ATOM     18  C   UNL     1       5.479   3.716  15.628  0.00  0.00    +0.000 A 
ATOM     19  C   UNL     1       5.944   4.039  14.348  0.00  0.00    +0.000 A 
ATOM     20  C   UNL     1       6.999   4.933  14.210  0.00  0.00    +0.000 A 
ATOM     21  C   UNL     1       7.597   5.470  15.352  0.00  0.00    +0.000 A 
ATOM     22  C   UNL     1       7.129   5.149  16.633  0.00  0.00    +0.000 A 
BRANCH  19  23
ATOM     23  O   UNL     1       5.257   3.454  13.319  0.00  0.00    +0.000 OA
ATOM     24  C   UNL     1       5.985   3.263  12.111  0.00  0.00    +0.000 C 
ENDBRANCH  19  23
BRANCH  22  25
ATOM     25  O   UNL     1       7.798   5.792  17.645  0.00  0.00    +0.000 OA
ATOM     26  C   UNL     1       7.683   7.213  17.661  0.00  0.00    +0.000 C 
ENDBRANCH  22  25
ENDBRANCH  15  17
ENDBRANCH   1  15
TORSDOF 5
ENDMDL
MODEL 9
REMARK VINA RESULT:      -6.9      1.775      2.614
REMARK  Name = 
REMARK  8 active torsions:
REMARK  status: ('A' for Active; 'I' for Inactive)
REMARK    1  A    between atoms: C_1  and  C_2
REMARK    2  A    between atoms: C_2  and  C_3
REMARK    3  A    between atoms: C_3  and  N_4
REMARK    4  A    between atoms: N_4  and  C_5
REMARK    5  A    between atoms: C_7  and  O_8
REMARK    6  A    between atoms: O_8  and  C_9
REMARK    7  A    between atoms: C_12  and  O_13
REMARK    8  A    between atoms: O_13  and  C_14
REMARK                            x       y       z     vdW  Elec       q    Type
REMARK                         _______ _______ _______ _____ _____    ______ ____
ROOT
ATOM      1  C   UNL     1       3.848   3.416  18.095  0.00  0.00    +0.000 C 
ATOM      2  C   UNL     1       2.981   4.323  18.614  0.00  0.00    +0.000 C 
ATOM      3  C   UNL     1       1.607   4.029  19.090  0.00  0.00    +0.000 C 
ATOM      4  O   UNL     1       0.908   3.112  18.688  0.00  0.00    +0.000 OA
ATOM      5  N   UNL     1       1.155   4.907  20.045  0.00  0.00    +0.000 N 
ATOM      6  C   UNL     1       1.781   6.034  20.482  0.00  0.00    +0.000 C 
ATOM      7  O   UNL     1       1.235   6.825  21.245  0.00  0.00    +0.000 OA
ATOM      8  N   UNL     1       3.016   6.291  19.968  0.00  0.00    +0.000 N 
ATOM      9  C   UNL     1       3.443   5.725  18.807  0.00  0.00    +0.000 C 
ATOM     10  O   UNL     1       4.052   6.375  17.962  0.00  0.00    +0.000 OA
ATOM     11  H   UNL     1       0.217   4.759  20.390  0.00  0.00    +0.000 HD
ATOM     12  H   UNL     1       3.341   7.234  20.132  0.00  0.00    +0.000 HD
ENDROOT
BRANCH   1  14
ATOM     13  C   UNL     1       3.875   1.004  18.884  0.00  0.00    +0.000 C 
ATOM     14  C   UNL     1       3.466   1.972  17.784  0.00  0.00    +0.000 C 
ENDBRANCH   1  14
BRANCH   1  15
ATOM     15  N   UNL     1       5.190   3.755  17.899  0.00  0.00    +0.000 N 
ATOM     16  H   UNL     1       5.603   4.286  18.664  0.00  0.00    +0.000 HD
BRANCH  15  17
ATOM     17  C   UNL     1       5.793   4.107  16.659  0.00  0.00    +0.000 A 
ATOM     18  C   UNL     1       5.191   3.788  15.429  0.00  0.00    +0.000 A 
ATOM     19  C   UNL     1       5.753   4.166  14.204  0.00  0.00    +0.000 A 
ATOM     20  C   UNL     1       6.968   4.840  14.189  0.00  0.00    +0.000 A 
ATOM     21  C   UNL     1       7.623   5.102  15.394  0.00  0.00    +0.000 A 
ATOM     22  C   UNL     1       7.058   4.726  16.620  0.00  0.00    +0.000 A 
BRANCH  19  23
ATOM     23  O   UNL     1       4.999   3.862  13.104  0.00  0.00    +0.000 OA
ATOM     24  C   UNL     1       5.658   3.129  12.077  0.00  0.00    +0.000 C 
ENDBRANCH  19  23
BRANCH  22  25
ATOM     25  O   UNL     1       7.808   5.092  17.711  0.00  0.00    +0.000 OA
ATOM     26  C   UNL     1       7.594   6.415  18.196  0.00  0.00    +0.000 C 
ENDBRANCH  22  25
ENDBRANCH  15  17
ENDBRANCH   1  15
TORSDOF 5
ENDMDL
