MODEL 1
REMARK VINA RESULT:      -6.9      0.000      0.000
REMARK  Name = 
REMARK  8 active torsions:
REMARK  status: ('A' for Active; 'I' for Inactive)
REMARK    1  A    between atoms: C_1  and  O_2
REMARK    2  A    between atoms: O_2  and  C_3
REMARK    3  A    between atoms: C_6  and  C_7
REMARK    4  A    between atoms: C_13  and  C_15
REMARK    5  A    between atoms: C_15  and  C_16
REMARK    6  A    between atoms: C_15  and  C_17
REMARK    7  A    between atoms: C_15  and  C_18
REMARK    8  A    between atoms: C_20  and  C_21
REMARK                            x       y       z     vdW  Elec       q    Type
REMARK                         _______ _______ _______ _____ _____    ______ ____
ROOT
ATOM      1  C   UNL     1       5.283   6.058  15.542  0.00  0.00    +0.000 C 
ATOM      2  O   UNL     1       5.457   7.256  15.318  0.00  0.00    +0.000 OA
ATOM      3  N   UNL     1       4.659   5.604  16.702  0.00  0.00    +0.000 N 
ATOM      4  C   UNL     1       3.990   6.574  17.587  0.00  0.00    +0.000 C 
ATOM      5  C   UNL     1       2.640   6.037  18.110  0.00  0.00    +0.000 C 
ATOM      6  N   UNL     1       2.732   4.645  18.598  0.00  0.00    +0.000 N 
ATOM      7  C   UNL     1       2.121   4.309  19.803  0.00  0.00    +0.000 C 
ATOM      8  O   UNL     1       1.581   5.188  20.477  0.00  0.00    +0.000 OA
ATOM      9  C   UNL     1       3.392   3.744  17.654  0.00  0.00    +0.000 C 
ATOM     10  C   UNL     1       4.791   4.253  17.269  0.00  0.00    +0.000 C 
ATOM     11  C   UNL     1       5.775   4.220  18.443  0.00  0.00    +0.000 C 
ENDROOT
BRANCH   1  15
ATOM     12  C   UNL     1       6.569   3.352  12.443  0.00  0.00    +0.000 A 
ATOM     13  C   UNL     1       7.455   4.269  13.013  0.00  0.00    +0.000 A 
ATOM     14  C   UNL     1       7.039   5.121  14.041  0.00  0.00    +0.000 A 
ATOM     15  C   UNL     1       5.715   5.089  14.489  0.00  0.00    +0.000 A 
ATOM     16  C   UNL     1       4.813   4.224  13.853  0.00  0.00    +0.000 A 
ATOM     17  C   UNL     1       5.244   3.331  12.868  0.00  0.00    +0.000 A 
BRANCH  12  19
ATOM     18  C   UNL     1       6.368   1.387  11.139  0.00  0.00    +0.000 C 
ATOM     19  O   UNL     1       7.085   2.580  11.438  0.00  0.00    +0.000 OA
ENDBRANCH  12  19
ENDBRANCH   1  15
BRANCH   7  20
ATOM     20  C   UNL     1       2.133   2.842  20.324  0.00  0.00    +0.000 C 
ATOM     21  C   UNL     1       3.555   2.373  20.669  0.00  0.00    +0.000 C 
ATOM     22  C   UNL     1       1.327   2.780  21.648  0.00  0.00    +0.000 C 
ATOM     23  C   UNL     1       1.413   1.882  19.360  0.00  0.00    +0.000 C 
ENDBRANCH   7  20
TORSDOF 3
ENDMDL
MODEL 2
REMARK VINA RESULT:      -6.7      3.302      5.379
REMARK  Name = 
REMARK  8 active torsions:
REMARK  status: ('A' for Active; 'I' for Inactive)
REMARK    1  A    between atoms: C_1  and  O_2
REMARK    2  A    between atoms: O_2  and  C_3
REMARK    3  A    between atoms: C_6  and  C_7
REMARK    4  A    between atoms: C_13  and  C_15
REMARK    5  A    between atoms: C_15  and  C_16
REMARK    6  A    between atoms: C_15  and  C_17
REMARK    7  A    between atoms: C_15  and  C_18
REMARK    8  A    between atoms: C_20  and  C_21
REMARK                            x       y       z     vdW  Elec       q    Type
REMARK                         _______ _______ _______ _____ _____    ______ ____
ROOT
ATOM      1  C   UNL     1       6.620   6.123  16.702  0.00  0.00    +0.000 C 
ATOM      2  O   UNL     1       7.080   5.845  15.594  0.00  0.00    +0.000 OA
ATOM      3  N   UNL     1       5.501   5.477  17.223  0.00  0.00    +0.000 N 
ATOM      4  C   UNL     1       4.977   4.280  16.540  0.00  0.00    +0.000 C 
ATOM      5  C   UNL     1       4.567   3.181  17.544  0.00  0.00    +0.000 C 
ATOM      6  N   UNL     1       3.768   3.708  18.669  0.00  0.00    +0.000 N 
ATOM      7  C   UNL     1       2.631   3.014  19.075  0.00  0.00    +0.000 C 
ATOM      8  O   UNL     1       2.268   2.020  18.444  0.00  0.00    +0.000 OA
ATOM      9  C   UNL     1       4.365   4.883  19.304  0.00  0.00    +0.000 C 
ATOM     10  C   UNL     1       4.629   6.003  18.284  0.00  0.00    +0.000 C 
ATOM     11  C   UNL     1       3.337   6.601  17.717  0.00  0.00    +0.000 C 
ENDROOT
BRANCH   1  15
ATOM     12  C   UNL     1       8.761   9.120  18.942  0.00  0.00    +0.000 A 
ATOM     13  C   UNL     1       8.050   9.454  17.787  0.00  0.00    +0.000 A 
ATOM     14  C   UNL     1       7.330   8.481  17.084  0.00  0.00    +0.000 A 
ATOM     15  C   UNL     1       7.343   7.150  17.512  0.00  0.00    +0.000 A 
ATOM     16  C   UNL     1       8.128   6.811  18.623  0.00  0.00    +0.000 A 
ATOM     17  C   UNL     1       8.797   7.793  19.360  0.00  0.00    +0.000 A 
BRANCH  12  19
ATOM     18  C   UNL     1       9.913  11.168  18.666  0.00  0.00    +0.000 C 
ATOM     19  O   UNL     1       9.436  10.150  19.538  0.00  0.00    +0.000 OA
ENDBRANCH  12  19
ENDBRANCH   1  15
BRANCH   7  20
ATOM     20  C   UNL     1       1.795   3.493  20.298  0.00  0.00    +0.000 C 
ATOM     21  C   UNL     1       1.668   5.024  20.335  0.00  0.00    +0.000 C 
ATOM     22  C   UNL     1       0.350   2.946  20.156  0.00  0.00    +0.000 C 
ATOM     23  C   UNL     1       2.326   2.912  21.621  0.00  0.00    +0.000 C 
ENDBRANCH   7  20
TORSDOF 3
ENDMDL
MODEL 3
REMARK VINA RESULT:      -6.7      0.261      1.037
REMARK  Name = 
REMARK  8 active torsions:
REMARK  status: ('A' for Active; 'I' for Inactive)
REMARK    1  A    between atoms: C_1  and  O_2
REMARK    2  A    between atoms: O_2  and  C_3
REMARK    3  A    between atoms: C_6  and  C_7
REMARK    4  A    between atoms: C_13  and  C_15
REMARK    5  A    between atoms: C_15  and  C_16
REMARK    6  A    between atoms: C_15  and  C_17
REMARK    7  A    between atoms: C_15  and  C_18
REMARK    8  A    between atoms: C_20  and  C_21
REMARK                            x       y       z     vdW  Elec       q    Type
REMARK                         _______ _______ _______ _____ _____    ______ ____
ROOT
ATOM      1  C   UNL     1       5.260   6.258  15.732  0.00  0.00    +0.000 C 
ATOM      2  O   UNL     1       5.418   7.467  15.560  0.00  0.00    +0.000 OA
ATOM      3  N   UNL     1       4.627   5.748  16.864  0.00  0.00    +0.000 N 
ATOM      4  C   UNL     1       3.930   6.671  17.778  0.00  0.00    +0.000 C 
ATOM      5  C   UNL     1       2.581   6.093  18.258  0.00  0.00    +0.000 C 
ATOM      6  N   UNL     1       2.688   4.685  18.691  0.00  0.00    +0.000 N 
ATOM      7  C   UNL     1       2.065   4.291  19.872  0.00  0.00    +0.000 C 
ATOM      8  O   UNL     1       1.502   5.133  20.573  0.00  0.00    +0.000 OA
ATOM      9  C   UNL     1       3.376   3.832  17.721  0.00  0.00    +0.000 C 
ATOM     10  C   UNL     1       4.771   4.378  17.377  0.00  0.00    +0.000 C 
ATOM     11  C   UNL     1       5.739   4.311  18.564  0.00  0.00    +0.000 C 
ENDROOT
BRANCH   1  15
ATOM     12  C   UNL     1       6.550   3.518  12.665  0.00  0.00    +0.000 A 
ATOM     13  C   UNL     1       5.227   3.528  13.113  0.00  0.00    +0.000 A 
ATOM     14  C   UNL     1       4.808   4.442  14.086  0.00  0.00    +0.000 A 
ATOM     15  C   UNL     1       5.722   5.339  14.648  0.00  0.00    +0.000 A 
ATOM     16  C   UNL     1       7.064   5.266  14.252  0.00  0.00    +0.000 A 
ATOM     17  C   UNL     1       7.469   4.393  13.236  0.00  0.00    +0.000 A 
BRANCH  12  19
ATOM     18  C   UNL     1       5.780   1.705  11.355  0.00  0.00    +0.000 C 
ATOM     19  O   UNL     1       6.846   2.573  11.722  0.00  0.00    +0.000 OA
ENDBRANCH  12  19
ENDBRANCH   1  15
BRANCH   7  20
ATOM     20  C   UNL     1       2.092   2.804  20.333  0.00  0.00    +0.000 C 
ATOM     21  C   UNL     1       3.524   2.321  20.611  0.00  0.00    +0.000 C 
ATOM     22  C   UNL     1       1.332   2.689  21.680  0.00  0.00    +0.000 C 
ATOM     23  C   UNL     1       1.339   1.884  19.356  0.00  0.00    +0.000 C 
ENDBRANCH   7  20
TORSDOF 3
ENDMDL
MODEL 4
REMARK VINA RESULT:      -6.5      3.254      5.332
REMARK  Name = 
REMARK  8 active torsions:
REMARK  status: ('A' for Active; 'I' for Inactive)
REMARK    1  A    between atoms: C_1  and  O_2
REMARK    2  A    between atoms: O_2  and  C_3
REMARK    3  A    between atoms: C_6  and  C_7
REMARK    4  A    between atoms: C_13  and  C_15
REMARK    5  A    between atoms: C_15  and  C_16
REMARK    6  A    between atoms: C_15  and  C_17
REMARK    7  A    between atoms: C_15  and  C_18
REMARK    8  A    between atoms: C_20  and  C_21
REMARK                            x       y       z     vdW  Elec       q    Type
REMARK                         _______ _______ _______ _____ _____    ______ ____
ROOT
ATOM      1  C   UNL     1       6.674   5.914  16.637  0.00  0.00    +0.000 C 
ATOM      2  O   UNL     1       7.131   5.561  15.550  0.00  0.00    +0.000 OA
ATOM      3  N   UNL     1       5.567   5.292  17.212  0.00  0.00    +0.000 N 
ATOM      4  C   UNL     1       5.057   4.040  16.624  0.00  0.00    +0.000 C 
ATOM      5  C   UNL     1       4.669   3.013  17.710  0.00  0.00    +0.000 C 
ATOM      6  N   UNL     1       3.868   3.611  18.797  0.00  0.00    +0.000 N 
ATOM      7  C   UNL     1       2.744   2.933  19.260  0.00  0.00    +0.000 C 
ATOM      8  O   UNL     1       2.393   1.889  18.708  0.00  0.00    +0.000 OA
ATOM      9  C   UNL     1       4.451   4.839  19.338  0.00  0.00    +0.000 C 
ATOM     10  C   UNL     1       4.693   5.883  18.236  0.00  0.00    +0.000 C 
ATOM     11  C   UNL     1       3.389   6.418  17.634  0.00  0.00    +0.000 C 
ENDROOT
BRANCH   1  15
ATOM     12  C   UNL     1       8.671   9.042  18.829  0.00  0.00    +0.000 A 
ATOM     13  C   UNL     1       8.712   7.716  19.266  0.00  0.00    +0.000 A 
ATOM     14  C   UNL     1       8.089   6.701  18.531  0.00  0.00    +0.000 A 
ATOM     15  C   UNL     1       7.385   7.009  17.363  0.00  0.00    +0.000 A 
ATOM     16  C   UNL     1       7.279   8.353  16.979  0.00  0.00    +0.000 A 
ATOM     17  C   UNL     1       7.953   9.358  17.680  0.00  0.00    +0.000 A 
BRANCH  12  19
ATOM     18  C   UNL     1       9.825  11.102  18.983  0.00  0.00    +0.000 C 
ATOM     19  O   UNL     1       9.305   9.948  19.634  0.00  0.00    +0.000 OA
ENDBRANCH  12  19
ENDBRANCH   1  15
BRANCH   7  20
ATOM     20  C   UNL     1       1.907   3.489  20.450  0.00  0.00    +0.000 C 
ATOM     21  C   UNL     1       2.136   4.996  20.650  0.00  0.00    +0.000 C 
ATOM     22  C   UNL     1       0.401   3.325  20.117  0.00  0.00    +0.000 C 
ATOM     23  C   UNL     1       2.133   2.682  21.740  0.00  0.00    +0.000 C 
ENDBRANCH   7  20
TORSDOF 3
ENDMDL
MODEL 5
REMARK VINA RESULT:      -5.9      3.259      5.391
REMARK  Name = 
REMARK  8 active torsions:
REMARK  status: ('A' for Active; 'I' for Inactive)
REMARK    1  A    between atoms: C_1  and  O_2
REMARK    2  A    between atoms: O_2  and  C_3
REMARK    3  A    between atoms: C_6  and  C_7
REMARK    4  A    between atoms: C_13  and  C_15
REMARK    5  A    between atoms: C_15  and  C_16
REMARK    6  A    between atoms: C_15  and  C_17
REMARK    7  A    between atoms: C_15  and  C_18
REMARK    8  A    between atoms: C_20  and  C_21
REMARK                            x       y       z     vdW  Elec       q    Type
REMARK                         _______ _______ _______ _____ _____    ______ ____
ROOT
ATOM      1  C   UNL     1       3.840   5.021  18.970  0.00  0.00    +0.000 C 
ATOM      2  O   UNL     1       3.888   4.025  19.692  0.00  0.00    +0.000 OA
ATOM      3  N   UNL     1       2.881   6.017  19.144  0.00  0.00    +0.000 N 
ATOM      4  C   UNL     1       2.038   6.001  20.352  0.00  0.00    +0.000 C 
ATOM      5  C   UNL     1       1.850   7.418  20.939  0.00  0.00    +0.000 C 
ATOM      6  N   UNL     1       1.515   8.421  19.907  0.00  0.00    +0.000 N 
ATOM      7  C   UNL     1       0.497   9.336  20.159  0.00  0.00    +0.000 C 
ATOM      8  O   UNL     1      -0.155   9.249  21.200  0.00  0.00    +0.000 OA
ATOM      9  C   UNL     1       2.410   8.382  18.750  0.00  0.00    +0.000 C 
ATOM     10  C   UNL     1       2.457   6.982  18.118  0.00  0.00    +0.000 C 
ATOM     11  C   UNL     1       1.127   6.580  17.472  0.00  0.00    +0.000 C 
ENDROOT
BRANCH   1  15
ATOM     12  C   UNL     1       6.886   5.314  15.933  0.00  0.00    +0.000 A 
ATOM     13  C   UNL     1       5.750   4.524  15.741  0.00  0.00    +0.000 A 
ATOM     14  C   UNL     1       4.750   4.460  16.718  0.00  0.00    +0.000 A 
ATOM     15  C   UNL     1       4.893   5.163  17.918  0.00  0.00    +0.000 A 
ATOM     16  C   UNL     1       6.074   5.886  18.135  0.00  0.00    +0.000 A 
ATOM     17  C   UNL     1       7.045   5.998  17.135  0.00  0.00    +0.000 A 
BRANCH  12  19
ATOM     18  C   UNL     1       7.308   4.872  13.647  0.00  0.00    +0.000 C 
ATOM     19  O   UNL     1       7.800   5.290  14.916  0.00  0.00    +0.000 OA
ENDBRANCH  12  19
ENDBRANCH   1  15
BRANCH   7  20
ATOM     20  C   UNL     1       0.154  10.454  19.131  0.00  0.00    +0.000 C 
ATOM     21  C   UNL     1      -0.519   9.882  17.873  0.00  0.00    +0.000 C 
ATOM     22  C   UNL     1      -0.881  11.416  19.771  0.00  0.00    +0.000 C 
ATOM     23  C   UNL     1       1.377  11.328  18.800  0.00  0.00    +0.000 C 
ENDBRANCH   7  20
TORSDOF 3
ENDMDL
MODEL 6
REMARK VINA RESULT:      -5.8      3.147      5.244
REMARK  Name = 
REMARK  8 active torsions:
REMARK  status: ('A' for Active; 'I' for Inactive)
REMARK    1  A    between atoms: C_1  and  O_2
REMARK    2  A    between atoms: O_2  and  C_3
REMARK    3  A    between atoms: C_6  and  C_7
REMARK    4  A    between atoms: C_13  and  C_15
REMARK    5  A    between atoms: C_15  and  C_16
REMARK    6  A    between atoms: C_15  and  C_17
REMARK    7  A    between atoms: C_15  and  C_18
REMARK    8  A    between atoms: C_20  and  C_21
REMARK                            x       y       z     vdW  Elec       q    Type
REMARK                         _______ _______ _______ _____ _____    ______ ____
ROOT
ATOM      1  C   UNL     1       3.876   4.820  19.010  0.00  0.00    +0.000 C 
ATOM      2  O   UNL     1       3.927   3.861  19.780  0.00  0.00    +0.000 OA
ATOM      3  N   UNL     1       2.941   5.842  19.160  0.00  0.00    +0.000 N 
ATOM      4  C   UNL     1       2.131   5.903  20.390  0.00  0.00    +0.000 C 
ATOM      5  C   UNL     1       1.987   7.350  20.910  0.00  0.00    +0.000 C 
ATOM      6  N   UNL     1       1.640   8.307  19.838  0.00  0.00    +0.000 N 
ATOM      7  C   UNL     1       0.647   9.254  20.072  0.00  0.00    +0.000 C 
ATOM      8  O   UNL     1       0.022   9.231  21.134  0.00  0.00    +0.000 OA
ATOM      9  C   UNL     1       2.501   8.193  18.661  0.00  0.00    +0.000 C 
ATOM     10  C   UNL     1       2.505   6.763  18.099  0.00  0.00    +0.000 C 
ATOM     11  C   UNL     1       1.150   6.356  17.511  0.00  0.00    +0.000 C 
ENDROOT
BRANCH   1  15
ATOM     12  C   UNL     1       6.814   5.134  15.871  0.00  0.00    +0.000 A 
ATOM     13  C   UNL     1       6.894   5.930  17.016  0.00  0.00    +0.000 A 
ATOM     14  C   UNL     1       5.955   5.799  18.045  0.00  0.00    +0.000 A 
ATOM     15  C   UNL     1       4.901   4.889  17.924  0.00  0.00    +0.000 A 
ATOM     16  C   UNL     1       4.782   4.155  16.736  0.00  0.00    +0.000 A 
ATOM     17  C   UNL     1       5.754   4.243  15.734  0.00  0.00    +0.000 A 
BRANCH  12  19
ATOM     18  C   UNL     1       7.441   4.997  13.593  0.00  0.00    +0.000 C 
ATOM     19  O   UNL     1       7.779   5.358  14.928  0.00  0.00    +0.000 OA
ENDBRANCH  12  19
ENDBRANCH   1  15
BRANCH   7  20
ATOM     20  C   UNL     1       0.295  10.326  18.999  0.00  0.00    +0.000 C 
ATOM     21  C   UNL     1      -0.402   9.701  17.780  0.00  0.00    +0.000 C 
ATOM     22  C   UNL     1      -0.723  11.324  19.611  0.00  0.00    +0.000 C 
ATOM     23  C   UNL     1       1.518  11.174  18.609  0.00  0.00    +0.000 C 
ENDBRANCH   7  20
TORSDOF 3
ENDMDL
MODEL 7
REMARK VINA RESULT:      -5.6      9.417     11.723
REMARK  Name = 
REMARK  8 active torsions:
REMARK  status: ('A' for Active; 'I' for Inactive)
REMARK    1  A    between atoms: C_1  and  O_2
REMARK    2  A    between atoms: O_2  and  C_3
REMARK    3  A    between atoms: C_6  and  C_7
REMARK    4  A    between atoms: C_13  and  C_15
REMARK    5  A    between atoms: C_15  and  C_16
REMARK    6  A    between atoms: C_15  and  C_17
REMARK    7  A    between atoms: C_15  and  C_18
REMARK    8  A    between atoms: C_20  and  C_21
REMARK                            x       y       z     vdW  Elec       q    Type
REMARK                         _______ _______ _______ _____ _____    ______ ____
ROOT
ATOM      1  C   UNL     1      -1.459  12.473  20.321  0.00  0.00    +0.000 C 
ATOM      2  O   UNL     1      -2.041  12.307  21.393  0.00  0.00    +0.000 OA
ATOM      3  N   UNL     1      -0.371  13.335  20.194  0.00  0.00    +0.000 N 
ATOM      4  C   UNL     1       0.246  13.899  21.408  0.00  0.00    +0.000 C 
ATOM      5  C   UNL     1       1.788  13.904  21.317  0.00  0.00    +0.000 C 
ATOM      6  N   UNL     1       2.279  14.417  20.021  0.00  0.00    +0.000 N 
ATOM      7  C   UNL     1       3.337  15.322  20.010  0.00  0.00    +0.000 C 
ATOM      8  O   UNL     1       3.793  15.739  21.075  0.00  0.00    +0.000 OA
ATOM      9  C   UNL     1       1.630  13.793  18.868  0.00  0.00    +0.000 C 
ATOM     10  C   UNL     1       0.101  13.934  18.937  0.00  0.00    +0.000 C 
ATOM     11  C   UNL     1      -0.366  15.386  18.785  0.00  0.00    +0.000 C 
ENDROOT
BRANCH   1  15
ATOM     12  C   UNL     1      -2.699  10.176  16.890  0.00  0.00    +0.000 A 
ATOM     13  C   UNL     1      -1.448   9.975  17.479  0.00  0.00    +0.000 A 
ATOM     14  C   UNL     1      -1.066  10.701  18.613  0.00  0.00    +0.000 A 
ATOM     15  C   UNL     1      -1.922  11.666  19.151  0.00  0.00    +0.000 A 
ATOM     16  C   UNL     1      -3.139  11.920  18.503  0.00  0.00    +0.000 A 
ATOM     17  C   UNL     1      -3.546  11.151  17.407  0.00  0.00    +0.000 A 
BRANCH  12  19
ATOM     18  C   UNL     1      -3.194  10.138  14.577  0.00  0.00    +0.000 C 
ATOM     19  O   UNL     1      -2.957   9.418  15.781  0.00  0.00    +0.000 OA
ENDBRANCH  12  19
ENDBRANCH   1  15
BRANCH   7  20
ATOM     20  C   UNL     1       3.934  15.837  18.667  0.00  0.00    +0.000 C 
ATOM     21  C   UNL     1       2.889  16.598  17.835  0.00  0.00    +0.000 C 
ATOM     22  C   UNL     1       5.056  16.860  18.983  0.00  0.00    +0.000 C 
ATOM     23  C   UNL     1       4.616  14.711  17.870  0.00  0.00    +0.000 C 
ENDBRANCH   7  20
TORSDOF 3
ENDMDL
MODEL 8
REMARK VINA RESULT:      -5.6      7.409     10.170
REMARK  Name = 
REMARK  8 active torsions:
REMARK  status: ('A' for Active; 'I' for Inactive)
REMARK    1  A    between atoms: C_1  and  O_2
REMARK    2  A    between atoms: O_2  and  C_3
REMARK    3  A    between atoms: C_6  and  C_7
REMARK    4  A    between atoms: C_13  and  C_15
REMARK    5  A    between atoms: C_15  and  C_16
REMARK    6  A    between atoms: C_15  and  C_17
REMARK    7  A    between atoms: C_15  and  C_18
REMARK    8  A    between atoms: C_20  and  C_21
REMARK                            x       y       z     vdW  Elec       q    Type
REMARK                         _______ _______ _______ _____ _____    ______ ____
ROOT
ATOM      1  C   UNL     1       0.072  10.814  18.583  0.00  0.00    +0.000 C 
ATOM      2  O   UNL     1      -1.011  10.623  18.029  0.00  0.00    +0.000 OA
ATOM      3  N   UNL     1       0.509  12.090  18.934  0.00  0.00    +0.000 N 
ATOM      4  C   UNL     1      -0.430  13.222  18.847  0.00  0.00    +0.000 C 
ATOM      5  C   UNL     1      -0.298  14.170  20.060  0.00  0.00    +0.000 C 
ATOM      6  N   UNL     1       1.108  14.495  20.377  0.00  0.00    +0.000 N 
ATOM      7  C   UNL     1       1.450  15.815  20.658  0.00  0.00    +0.000 C 
ATOM      8  O   UNL     1       0.597  16.698  20.562  0.00  0.00    +0.000 OA
ATOM      9  C   UNL     1       1.969  13.315  20.463  0.00  0.00    +0.000 C 
ATOM     10  C   UNL     1       1.907  12.476  19.177  0.00  0.00    +0.000 C 
ATOM     11  C   UNL     1       2.518  13.197  17.971  0.00  0.00    +0.000 C 
ENDROOT
BRANCH   1  15
ATOM     12  C   UNL     1       2.386   7.293  19.492  0.00  0.00    +0.000 A 
ATOM     13  C   UNL     1       2.308   7.787  18.187  0.00  0.00    +0.000 A 
ATOM     14  C   UNL     1       1.581   8.950  17.906  0.00  0.00    +0.000 A 
ATOM     15  C   UNL     1       0.894   9.614  18.926  0.00  0.00    +0.000 A 
ATOM     16  C   UNL     1       0.910   9.063  20.215  0.00  0.00    +0.000 A 
ATOM     17  C   UNL     1       1.685   7.936  20.507  0.00  0.00    +0.000 A 
BRANCH  12  19
ATOM     18  C   UNL     1       2.965   5.172  18.615  0.00  0.00    +0.000 C 
ATOM     19  O   UNL     1       3.114   6.145  19.644  0.00  0.00    +0.000 OA
ENDBRANCH  12  19
ENDBRANCH   1  15
BRANCH   7  20
ATOM     20  C   UNL     1       2.905  16.195  21.064  0.00  0.00    +0.000 C 
ATOM     21  C   UNL     1       3.887  16.013  19.897  0.00  0.00    +0.000 C 
ATOM     22  C   UNL     1       2.940  17.704  21.423  0.00  0.00    +0.000 C 
ATOM     23  C   UNL     1       3.358  15.459  22.337  0.00  0.00    +0.000 C 
ENDBRANCH   7  20
TORSDOF 3
ENDMDL
MODEL 9
REMARK VINA RESULT:      -5.5      9.613     11.716
REMARK  Name = 
REMARK  8 active torsions:
REMARK  status: ('A' for Active; 'I' for Inactive)
REMARK    1  A    between atoms: C_1  and  O_2
REMARK    2  A    between atoms: O_2  and  C_3
REMARK    3  A    between atoms: C_6  and  C_7
REMARK    4  A    between atoms: C_13  and  C_15
REMARK    5  A    between atoms: C_15  and  C_16
REMARK    6  A    between atoms: C_15  and  C_17
REMARK    7  A    between atoms: C_15  and  C_18
REMARK    8  A    between atoms: C_20  and  C_21
REMARK                            x       y       z     vdW  Elec       q    Type
REMARK                         _______ _______ _______ _____ _____    ______ ____
ROOT
ATOM      1  C   UNL     1      -1.194  11.828  20.125  0.00  0.00    +0.000 C 
ATOM      2  O   UNL     1      -1.520  11.272  21.174  0.00  0.00    +0.000 OA
ATOM      3  N   UNL     1      -0.189  12.793  20.080  0.00  0.00    +0.000 N 
ATOM      4  C   UNL     1       0.662  13.003  21.264  0.00  0.00    +0.000 C 
ATOM      5  C   UNL     1       2.144  13.195  20.878  0.00  0.00    +0.000 C 
ATOM      6  N   UNL     1       2.322  14.140  19.756  0.00  0.00    +0.000 N 
ATOM      7  C   UNL     1       3.321  15.106  19.837  0.00  0.00    +0.000 C 
ATOM      8  O   UNL     1       3.987  15.207  20.868  0.00  0.00    +0.000 OA
ATOM      9  C   UNL     1       1.455  13.851  18.614  0.00  0.00    +0.000 C 
ATOM     10  C   UNL     1      -0.026  13.805  19.026  0.00  0.00    +0.000 C 
ATOM     11  C   UNL     1      -0.560  15.174  19.461  0.00  0.00    +0.000 C 
ENDROOT
BRANCH   1  15
ATOM     12  C   UNL     1      -3.258  10.535  16.569  0.00  0.00    +0.000 A 
ATOM     13  C   UNL     1      -3.854  11.426  17.464  0.00  0.00    +0.000 A 
ATOM     14  C   UNL     1      -3.164  11.867  18.600  0.00  0.00    +0.000 A 
ATOM     15  C   UNL     1      -1.878  11.391  18.870  0.00  0.00    +0.000 A 
ATOM     16  C   UNL     1      -1.322  10.434  18.010  0.00  0.00    +0.000 A 
ATOM     17  C   UNL     1      -1.986  10.041  16.844  0.00  0.00    +0.000 A 
BRANCH  12  19
ATOM     18  C   UNL     1      -3.363  10.087  14.248  0.00  0.00    +0.000 C 
ATOM     19  O   UNL     1      -4.030  10.166  15.502  0.00  0.00    +0.000 OA
ENDBRANCH  12  19
ENDBRANCH   1  15
BRANCH   7  20
ATOM     20  C   UNL     1       3.591  16.079  18.651  0.00  0.00    +0.000 C 
ATOM     21  C   UNL     1       2.440  17.080  18.465  0.00  0.00    +0.000 C 
ATOM     22  C   UNL     1       4.847  16.927  18.982  0.00  0.00    +0.000 C 
ATOM     23  C   UNL     1       3.933  15.326  17.354  0.00  0.00    +0.000 C 
ENDBRANCH   7  20
TORSDOF 3
ENDMDL
