MODEL 1
REMARK VINA RESULT:      -5.4      0.000      0.000
REMARK  Name = 
REMARK  6 active torsions:
REMARK  status: ('A' for Active; 'I' for Inactive)
REMARK    1  A    between atoms: C_1  and  C_2
REMARK    2  A    between atoms: C_2  and  O_3
REMARK    3  A    between atoms: O_3  and  C_4
REMARK    4  A    between atoms: C_4  and  O_5
REMARK    5  A    between atoms: C_7  and  C_8
REMARK    6  A    between atoms: C_13  and  C_14
REMARK                            x       y       z     vdW  Elec       q    Type
REMARK                         _______ _______ _______ _____ _____    ______ ____
ROOT
ATOM      1  C   UNL     1       4.678   4.920  17.093  0.00  0.00    +0.000 C 
ATOM      2  C   UNL     1       3.965   4.492  18.160  0.00  0.00    +0.000 C 
ATOM      3  C   UNL     1       2.990   5.312  18.954  0.00  0.00    +0.000 C 
ATOM      4  C   UNL     1       2.747   6.789  18.695  0.00  0.00    +0.000 C 
ATOM      5  N   UNL     1       2.279   4.852  19.934  0.00  0.00    +0.000 NA
ATOM      6  C   UNL     1       2.449   3.592  20.408  0.00  0.00    +0.000 C 
ATOM      7  S   UNL     1       1.540   2.937  21.651  0.00  0.00    +0.000 S 
ATOM      8  N   UNL     1       3.455   2.841  19.904  0.00  0.00    +0.000 N 
ATOM      9  C   UNL     1       4.097   3.060  18.628  0.00  0.00    +0.000 C 
ATOM     10  C   UNL     1       3.552   2.042  17.618  0.00  0.00    +0.000 C 
ATOM     11  H   UNL     1       3.520   1.916  20.312  0.00  0.00    +0.000 HD
ENDROOT
BRANCH   1  12
ATOM     12  O   UNL     1       4.544   6.182  16.577  0.00  0.00    +0.000 OA
ATOM     13  H   UNL     1       5.255   6.722  16.958  0.00  0.00    +0.000 HD
ENDBRANCH   1  12
BRANCH   1  14
ATOM     14  O   UNL     1       5.601   4.065  16.514  0.00  0.00    +0.000 OA
BRANCH  14  16
ATOM     15  C   UNL     1       7.627   4.619  17.660  0.00  0.00    +0.000 C 
ATOM     16  C   UNL     1       6.912   4.606  16.321  0.00  0.00    +0.000 C 
ENDBRANCH  14  16
ENDBRANCH   1  14
TORSDOF 3
ENDMDL
MODEL 2
REMARK VINA RESULT:      -5.4      1.367      1.663
REMARK  Name = 
REMARK  6 active torsions:
REMARK  status: ('A' for Active; 'I' for Inactive)
REMARK    1  A    between atoms: C_1  and  C_2
REMARK    2  A    between atoms: C_2  and  O_3
REMARK    3  A    between atoms: O_3  and  C_4
REMARK    4  A    between atoms: C_4  and  O_5
REMARK    5  A    between atoms: C_7  and  C_8
REMARK    6  A    between atoms: C_13  and  C_14
REMARK                            x       y       z     vdW  Elec       q    Type
REMARK                         _______ _______ _______ _____ _____    ______ ____
ROOT
ATOM      1  C   UNL     1       5.413   5.699  16.650  0.00  0.00    +0.000 C 
ATOM      2  C   UNL     1       4.471   5.409  17.576  0.00  0.00    +0.000 C 
ATOM      3  C   UNL     1       3.387   6.333  18.049  0.00  0.00    +0.000 C 
ATOM      4  C   UNL     1       3.269   7.776  17.588  0.00  0.00    +0.000 C 
ATOM      5  N   UNL     1       2.464   6.002  18.896  0.00  0.00    +0.000 NA
ATOM      6  C   UNL     1       2.474   4.801  19.526  0.00  0.00    +0.000 C 
ATOM      7  S   UNL     1       1.294   4.309  20.605  0.00  0.00    +0.000 S 
ATOM      8  N   UNL     1       3.531   3.977  19.335  0.00  0.00    +0.000 N 
ATOM      9  C   UNL     1       4.439   4.037  18.212  0.00  0.00    +0.000 C 
ATOM     10  C   UNL     1       4.077   2.923  17.222  0.00  0.00    +0.000 C 
ATOM     11  H   UNL     1       3.467   3.103  19.843  0.00  0.00    +0.000 HD
ENDROOT
BRANCH   1  12
ATOM     12  O   UNL     1       5.448   6.898  15.987  0.00  0.00    +0.000 OA
ATOM     13  H   UNL     1       4.952   6.781  15.161  0.00  0.00    +0.000 HD
ENDBRANCH   1  12
BRANCH   1  14
ATOM     14  O   UNL     1       6.400   4.766  16.378  0.00  0.00    +0.000 OA
BRANCH  14  16
ATOM     15  C   UNL     1       6.056   3.953  14.155  0.00  0.00    +0.000 C 
ATOM     16  C   UNL     1       6.938   4.801  15.052  0.00  0.00    +0.000 C 
ENDBRANCH  14  16
ENDBRANCH   1  14
TORSDOF 3
ENDMDL
MODEL 3
REMARK VINA RESULT:      -5.3      3.043      4.208
REMARK  Name = 
REMARK  6 active torsions:
REMARK  status: ('A' for Active; 'I' for Inactive)
REMARK    1  A    between atoms: C_1  and  C_2
REMARK    2  A    between atoms: C_2  and  O_3
REMARK    3  A    between atoms: O_3  and  C_4
REMARK    4  A    between atoms: C_4  and  O_5
REMARK    5  A    between atoms: C_7  and  C_8
REMARK    6  A    between atoms: C_13  and  C_14
REMARK                            x       y       z     vdW  Elec       q    Type
REMARK                         _______ _______ _______ _____ _____    ______ ____
ROOT
ATOM      1  C   UNL     1       2.332   4.013  17.952  0.00  0.00    +0.000 C 
ATOM      2  C   UNL     1       3.603   4.416  18.180  0.00  0.00    +0.000 C 
ATOM      3  C   UNL     1       4.111   5.825  18.082  0.00  0.00    +0.000 C 
ATOM      4  C   UNL     1       3.247   6.986  17.619  0.00  0.00    +0.000 C 
ATOM      5  N   UNL     1       5.322   6.185  18.365  0.00  0.00    +0.000 NA
ATOM      6  C   UNL     1       6.283   5.276  18.668  0.00  0.00    +0.000 C 
ATOM      7  S   UNL     1       7.855   5.685  19.070  0.00  0.00    +0.000 S 
ATOM      8  N   UNL     1       5.983   3.960  18.571  0.00  0.00    +0.000 N 
ATOM      9  C   UNL     1       4.648   3.407  18.600  0.00  0.00    +0.000 C 
ATOM     10  C   UNL     1       4.388   2.813  19.990  0.00  0.00    +0.000 C 
ATOM     11  H   UNL     1       6.753   3.345  18.807  0.00  0.00    +0.000 HD
ENDROOT
BRANCH   1  12
ATOM     12  O   UNL     1       1.326   4.890  17.642  0.00  0.00    +0.000 OA
ATOM     13  H   UNL     1       0.521   4.365  17.510  0.00  0.00    +0.000 HD
ENDBRANCH   1  12
BRANCH   1  14
ATOM     14  O   UNL     1       2.035   2.661  18.004  0.00  0.00    +0.000 OA
BRANCH  14  16
ATOM     15  C   UNL     1       0.939   2.797  20.126  0.00  0.00    +0.000 C 
ATOM     16  C   UNL     1       0.827   2.317  18.691  0.00  0.00    +0.000 C 
ENDBRANCH  14  16
ENDBRANCH   1  14
TORSDOF 3
ENDMDL
MODEL 4
REMARK VINA RESULT:      -5.3      2.812      4.022
REMARK  Name = 
REMARK  6 active torsions:
REMARK  status: ('A' for Active; 'I' for Inactive)
REMARK    1  A    between atoms: C_1  and  C_2
REMARK    2  A    between atoms: C_2  and  O_3
REMARK    3  A    between atoms: O_3  and  C_4
REMARK    4  A    between atoms: C_4  and  O_5
REMARK    5  A    between atoms: C_7  and  C_8
REMARK    6  A    between atoms: C_13  and  C_14
REMARK                            x       y       z     vdW  Elec       q    Type
REMARK                         _______ _______ _______ _____ _____    ______ ____
ROOT
ATOM      1  C   UNL     1       4.816   4.133  18.964  0.00  0.00    +0.000 C 
ATOM      2  C   UNL     1       4.147   5.283  18.719  0.00  0.00    +0.000 C 
ATOM      3  C   UNL     1       4.566   6.358  17.759  0.00  0.00    +0.000 C 
ATOM      4  C   UNL     1       5.874   6.316  16.989  0.00  0.00    +0.000 C 
ATOM      5  N   UNL     1       3.870   7.421  17.506  0.00  0.00    +0.000 NA
ATOM      6  C   UNL     1       2.735   7.710  18.191  0.00  0.00    +0.000 C 
ATOM      7  S   UNL     1       1.783   9.051  17.886  0.00  0.00    +0.000 S 
ATOM      8  N   UNL     1       2.386   6.915  19.230  0.00  0.00    +0.000 N 
ATOM      9  C   UNL     1       2.838   5.557  19.426  0.00  0.00    +0.000 C 
ATOM     10  C   UNL     1       1.717   4.596  19.012  0.00  0.00    +0.000 C 
ATOM     11  H   UNL     1       1.532   7.200  19.694  0.00  0.00    +0.000 HD
ENDROOT
BRANCH   1  12
ATOM     12  O   UNL     1       5.966   3.795  18.300  0.00  0.00    +0.000 OA
ATOM     13  H   UNL     1       5.771   3.845  17.351  0.00  0.00    +0.000 HD
ENDBRANCH   1  12
BRANCH   1  14
ATOM     14  O   UNL     1       4.342   3.273  19.942  0.00  0.00    +0.000 OA
BRANCH  14  16
ATOM     15  C   UNL     1       3.488   1.565  18.501  0.00  0.00    +0.000 C 
ATOM     16  C   UNL     1       4.439   1.878  19.641  0.00  0.00    +0.000 C 
ENDBRANCH  14  16
ENDBRANCH   1  14
TORSDOF 3
ENDMDL
MODEL 5
REMARK VINA RESULT:      -5.3      1.173      1.240
REMARK  Name = 
REMARK  6 active torsions:
REMARK  status: ('A' for Active; 'I' for Inactive)
REMARK    1  A    between atoms: C_1  and  C_2
REMARK    2  A    between atoms: C_2  and  O_3
REMARK    3  A    between atoms: O_3  and  C_4
REMARK    4  A    between atoms: C_4  and  O_5
REMARK    5  A    between atoms: C_7  and  C_8
REMARK    6  A    between atoms: C_13  and  C_14
REMARK                            x       y       z     vdW  Elec       q    Type
REMARK                         _______ _______ _______ _____ _____    ______ ____
ROOT
ATOM      1  C   UNL     1       4.558   5.783  17.397  0.00  0.00    +0.000 C 
ATOM      2  C   UNL     1       3.920   5.133  18.397  0.00  0.00    +0.000 C 
ATOM      3  C   UNL     1       2.867   5.715  19.295  0.00  0.00    +0.000 C 
ATOM      4  C   UNL     1       2.442   7.173  19.236  0.00  0.00    +0.000 C 
ATOM      5  N   UNL     1       2.233   5.046  20.205  0.00  0.00    +0.000 NA
ATOM      6  C   UNL     1       2.562   3.764  20.504  0.00  0.00    +0.000 C 
ATOM      7  S   UNL     1       1.759   2.844  21.649  0.00  0.00    +0.000 S 
ATOM      8  N   UNL     1       3.643   3.215  19.904  0.00  0.00    +0.000 N 
ATOM      9  C   UNL     1       4.233   3.679  18.669  0.00  0.00    +0.000 C 
ATOM     10  C   UNL     1       3.798   2.746  17.531  0.00  0.00    +0.000 C 
ATOM     11  H   UNL     1       3.826   2.259  20.184  0.00  0.00    +0.000 HD
ENDROOT
BRANCH   1  12
ATOM     12  O   UNL     1       4.265   7.078  17.056  0.00  0.00    +0.000 OA
ATOM     13  H   UNL     1       4.751   7.274  16.240  0.00  0.00    +0.000 HD
ENDBRANCH   1  12
BRANCH   1  14
ATOM     14  O   UNL     1       5.568   5.133  16.708  0.00  0.00    +0.000 OA
BRANCH  14  16
ATOM     15  C   UNL     1       5.981   4.103  14.588  0.00  0.00    +0.000 C 
ATOM     16  C   UNL     1       5.628   5.395  15.302  0.00  0.00    +0.000 C 
ENDBRANCH  14  16
ENDBRANCH   1  14
TORSDOF 3
ENDMDL
MODEL 6
REMARK VINA RESULT:      -5.3      2.915      4.440
REMARK  Name = 
REMARK  6 active torsions:
REMARK  status: ('A' for Active; 'I' for Inactive)
REMARK    1  A    between atoms: C_1  and  C_2
REMARK    2  A    between atoms: C_2  and  O_3
REMARK    3  A    between atoms: O_3  and  C_4
REMARK    4  A    between atoms: C_4  and  O_5
REMARK    5  A    between atoms: C_7  and  C_8
REMARK    6  A    between atoms: C_13  and  C_14
REMARK                            x       y       z     vdW  Elec       q    Type
REMARK                         _______ _______ _______ _____ _____    ______ ____
ROOT
ATOM      1  C   UNL     1       4.113   3.294  19.395  0.00  0.00    +0.000 C 
ATOM      2  C   UNL     1       3.740   4.539  19.023  0.00  0.00    +0.000 C 
ATOM      3  C   UNL     1       4.657   5.632  18.556  0.00  0.00    +0.000 C 
ATOM      4  C   UNL     1       6.169   5.486  18.526  0.00  0.00    +0.000 C 
ATOM      5  N   UNL     1       4.259   6.795  18.150  0.00  0.00    +0.000 NA
ATOM      6  C   UNL     1       2.957   7.169  18.228  0.00  0.00    +0.000 C 
ATOM      7  S   UNL     1       2.382   8.647  17.693  0.00  0.00    +0.000 S 
ATOM      8  N   UNL     1       2.079   6.338  18.837  0.00  0.00    +0.000 N 
ATOM      9  C   UNL     1       2.276   4.920  19.032  0.00  0.00    +0.000 C 
ATOM     10  C   UNL     1       1.449   4.157  17.989  0.00  0.00    +0.000 C 
ATOM     11  H   UNL     1       1.130   6.690  18.860  0.00  0.00    +0.000 HD
ENDROOT
BRANCH   1  12
ATOM     12  O   UNL     1       5.414   2.868  19.336  0.00  0.00    +0.000 OA
ATOM     13  H   UNL     1       5.405   1.976  18.954  0.00  0.00    +0.000 HD
ENDBRANCH   1  12
BRANCH   1  14
ATOM     14  O   UNL     1       3.154   2.420  19.881  0.00  0.00    +0.000 OA
BRANCH  14  16
ATOM     15  C   UNL     1       1.511   2.599  21.611  0.00  0.00    +0.000 C 
ATOM     16  C   UNL     1       2.985   2.415  21.303  0.00  0.00    +0.000 C 
ENDBRANCH  14  16
ENDBRANCH   1  14
TORSDOF 3
ENDMDL
MODEL 7
REMARK VINA RESULT:      -5.3      3.436      4.662
REMARK  Name = 
REMARK  6 active torsions:
REMARK  status: ('A' for Active; 'I' for Inactive)
REMARK    1  A    between atoms: C_1  and  C_2
REMARK    2  A    between atoms: C_2  and  O_3
REMARK    3  A    between atoms: O_3  and  C_4
REMARK    4  A    between atoms: C_4  and  O_5
REMARK    5  A    between atoms: C_7  and  C_8
REMARK    6  A    between atoms: C_13  and  C_14
REMARK                            x       y       z     vdW  Elec       q    Type
REMARK                         _______ _______ _______ _____ _____    ______ ____
ROOT
ATOM      1  C   UNL     1       2.669   5.583  19.783  0.00  0.00    +0.000 C 
ATOM      2  C   UNL     1       3.419   5.459  18.664  0.00  0.00    +0.000 C 
ATOM      3  C   UNL     1       3.754   6.561  17.701  0.00  0.00    +0.000 C 
ATOM      4  C   UNL     1       3.202   7.971  17.832  0.00  0.00    +0.000 C 
ATOM      5  N   UNL     1       4.526   6.420  16.671  0.00  0.00    +0.000 NA
ATOM      6  C   UNL     1       5.010   5.206  16.305  0.00  0.00    +0.000 C 
ATOM      7  S   UNL     1       6.033   4.969  15.002  0.00  0.00    +0.000 S 
ATOM      8  N   UNL     1       4.591   4.111  16.980  0.00  0.00    +0.000 N 
ATOM      9  C   UNL     1       4.026   4.120  18.310  0.00  0.00    +0.000 C 
ATOM     10  C   UNL     1       5.098   3.661  19.307  0.00  0.00    +0.000 C 
ATOM     11  H   UNL     1       4.992   3.244  16.644  0.00  0.00    +0.000 HD
ENDROOT
BRANCH   1  12
ATOM     12  O   UNL     1       2.156   6.785  20.194  0.00  0.00    +0.000 OA
ATOM     13  H   UNL     1       2.845   7.453  20.051  0.00  0.00    +0.000 HD
ENDBRANCH   1  12
BRANCH   1  14
ATOM     14  O   UNL     1       2.379   4.453  20.528  0.00  0.00    +0.000 OA
BRANCH  14  16
ATOM     15  C   UNL     1       0.821   2.908  19.574  0.00  0.00    +0.000 C 
ATOM     16  C   UNL     1       1.004   4.057  20.547  0.00  0.00    +0.000 C 
ENDBRANCH  14  16
ENDBRANCH   1  14
TORSDOF 3
ENDMDL
MODEL 8
REMARK VINA RESULT:      -5.3      2.729      3.971
REMARK  Name = 
REMARK  6 active torsions:
REMARK  status: ('A' for Active; 'I' for Inactive)
REMARK    1  A    between atoms: C_1  and  C_2
REMARK    2  A    between atoms: C_2  and  O_3
REMARK    3  A    between atoms: O_3  and  C_4
REMARK    4  A    between atoms: C_4  and  O_5
REMARK    5  A    between atoms: C_7  and  C_8
REMARK    6  A    between atoms: C_13  and  C_14
REMARK                            x       y       z     vdW  Elec       q    Type
REMARK                         _______ _______ _______ _____ _____    ______ ____
ROOT
ATOM      1  C   UNL     1       4.559   3.818  17.854  0.00  0.00    +0.000 C 
ATOM      2  C   UNL     1       3.983   5.042  17.888  0.00  0.00    +0.000 C 
ATOM      3  C   UNL     1       4.573   6.308  17.337  0.00  0.00    +0.000 C 
ATOM      4  C   UNL     1       5.964   6.379  16.732  0.00  0.00    +0.000 C 
ATOM      5  N   UNL     1       3.967   7.453  17.334  0.00  0.00    +0.000 NA
ATOM      6  C   UNL     1       2.771   7.628  17.949  0.00  0.00    +0.000 C 
ATOM      7  S   UNL     1       1.931   9.076  17.952  0.00  0.00    +0.000 S 
ATOM      8  N   UNL     1       2.254   6.602  18.665  0.00  0.00    +0.000 N 
ATOM      9  C   UNL     1       2.611   5.212  18.501  0.00  0.00    +0.000 C 
ATOM     10  C   UNL     1       1.505   4.507  17.705  0.00  0.00    +0.000 C 
ATOM     11  H   UNL     1       1.363   6.813  19.098  0.00  0.00    +0.000 HD
ENDROOT
BRANCH   1  12
ATOM     12  O   UNL     1       5.765   3.590  17.247  0.00  0.00    +0.000 OA
ATOM     13  H   UNL     1       5.949   4.356  16.681  0.00  0.00    +0.000 HD
ENDBRANCH   1  12
BRANCH   1  14
ATOM     14  O   UNL     1       3.924   2.758  18.480  0.00  0.00    +0.000 OA
BRANCH  14  16
ATOM     15  C   UNL     1       3.219   2.523  20.754  0.00  0.00    +0.000 C 
ATOM     16  C   UNL     1       4.392   2.444  19.795  0.00  0.00    +0.000 C 
ENDBRANCH  14  16
ENDBRANCH   1  14
TORSDOF 3
ENDMDL
MODEL 9
REMARK VINA RESULT:      -5.3      2.759      3.684
REMARK  Name = 
REMARK  6 active torsions:
REMARK  status: ('A' for Active; 'I' for Inactive)
REMARK    1  A    between atoms: C_1  and  C_2
REMARK    2  A    between atoms: C_2  and  O_3
REMARK    3  A    between atoms: O_3  and  C_4
REMARK    4  A    between atoms: C_4  and  O_5
REMARK    5  A    between atoms: C_7  and  C_8
REMARK    6  A    between atoms: C_13  and  C_14
REMARK                            x       y       z     vdW  Elec       q    Type
REMARK                         _______ _______ _______ _____ _____    ______ ____
ROOT
ATOM      1  C   UNL     1       7.031   6.092  16.767  0.00  0.00    +0.000 C 
ATOM      2  C   UNL     1       5.841   5.507  17.037  0.00  0.00    +0.000 C 
ATOM      3  C   UNL     1       5.066   4.619  16.108  0.00  0.00    +0.000 C 
ATOM      4  C   UNL     1       5.500   4.333  14.681  0.00  0.00    +0.000 C 
ATOM      5  N   UNL     1       3.958   4.026  16.422  0.00  0.00    +0.000 NA
ATOM      6  C   UNL     1       3.334   4.260  17.604  0.00  0.00    +0.000 C 
ATOM      7  S   UNL     1       1.918   3.502  18.073  0.00  0.00    +0.000 S 
ATOM      8  N   UNL     1       3.837   5.212  18.425  0.00  0.00    +0.000 N 
ATOM      9  C   UNL     1       5.195   5.706  18.390  0.00  0.00    +0.000 C 
ATOM     10  C   UNL     1       5.986   5.062  19.536  0.00  0.00    +0.000 C 
ATOM     11  H   UNL     1       3.314   5.332  19.283  0.00  0.00    +0.000 HD
ENDROOT
BRANCH   1  12
ATOM     12  O   UNL     1       7.700   5.889  15.589  0.00  0.00    +0.000 OA
ATOM     13  H   UNL     1       7.163   5.279  15.059  0.00  0.00    +0.000 HD
ENDBRANCH   1  12
BRANCH   1  14
ATOM     14  O   UNL     1       7.584   6.954  17.700  0.00  0.00    +0.000 OA
BRANCH  14  16
ATOM     15  C   UNL     1       8.458   9.117  18.230  0.00  0.00    +0.000 C 
ATOM     16  C   UNL     1       7.426   8.350  17.426  0.00  0.00    +0.000 C 
ENDBRANCH  14  16
ENDBRANCH   1  14
TORSDOF 3
ENDMDL
