MODEL 1
REMARK VINA RESULT:      -7.0      0.000      0.000
REMARK  Name = 
REMARK  6 active torsions:
REMARK  status: ('A' for Active; 'I' for Inactive)
REMARK    1  A    between atoms: C_2  and  C_3
REMARK    2  A    between atoms: C_2  and  C_10
REMARK    3  A    between atoms: C_4  and  C_5
REMARK    4  A    between atoms: C_14  and  O_15
REMARK    5  A    between atoms: O_15  and  C_16
REMARK    6  A    between atoms: C_16  and  C_17
REMARK                            x       y       z     vdW  Elec       q    Type
REMARK                         _______ _______ _______ _____ _____    ______ ____
ROOT
ATOM      1  C   UNL     1       5.660   6.304  17.641  0.00  0.00    +0.000 A 
ATOM      2  C   UNL     1       4.579   7.096  17.235  0.00  0.00    +0.000 A 
ATOM      3  C   UNL     1       3.301   6.824  17.716  0.00  0.00    +0.000 A 
ATOM      4  C   UNL     1       3.106   5.764  18.603  0.00  0.00    +0.000 A 
ATOM      5  C   UNL     1       4.180   4.971  19.017  0.00  0.00    +0.000 A 
ATOM      6  C   UNL     1       5.455   5.226  18.513  0.00  0.00    +0.000 A 
ENDROOT
BRANCH   1   8
ATOM      7  O   UNL     1       7.518   5.941  16.231  0.00  0.00    +0.000 OA
ATOM      8  C   UNL     1       7.042   6.569  17.166  0.00  0.00    +0.000 C 
BRANCH   8   9
ATOM      9  C   UNL     1       7.820   7.576  17.929  0.00  0.00    +0.000 C 
ATOM     10  C   UNL     1       7.839   8.858  17.543  0.00  0.00    +0.000 C 
BRANCH  10  11
ATOM     11  C   UNL     1       8.604   9.803  18.282  0.00  0.00    +0.000 A 
ATOM     12  C   UNL     1       8.994  11.084  17.917  0.00  0.00    +0.000 A 
ATOM     13  C   UNL     1       9.752  11.629  18.981  0.00  0.00    +0.000 A 
ATOM     14  C   UNL     1       9.787  10.659  19.950  0.00  0.00    +0.000 A 
ATOM     15  O   UNL     1       9.102   9.566  19.545  0.00  0.00    +0.000 OA
ENDBRANCH  10  11
ENDBRANCH   8   9
ENDBRANCH   1   8
BRANCH   5  16
ATOM     16  O   UNL     1       3.857   3.967  19.888  0.00  0.00    +0.000 OA
BRANCH  16  17
ATOM     17  C   UNL     1       3.631   2.680  19.303  0.00  0.00    +0.000 C 
BRANCH  17  18
ATOM     18  C   UNL     1       2.294   2.185  19.763  0.00  0.00    +0.000 C 
ATOM     19  C   UNL     1       1.326   3.127  20.417  0.00  0.00    +0.000 C 
ATOM     20  S   UNL     1       0.901   2.604  18.829  0.00  0.00    +0.000 S 
ENDBRANCH  17  18
ENDBRANCH  16  17
ENDBRANCH   5  16
TORSDOF 6
ENDMDL
MODEL 2
REMARK VINA RESULT:      -6.8      3.273      8.016
REMARK  Name = 
REMARK  6 active torsions:
REMARK  status: ('A' for Active; 'I' for Inactive)
REMARK    1  A    between atoms: C_2  and  C_3
REMARK    2  A    between atoms: C_2  and  C_10
REMARK    3  A    between atoms: C_4  and  C_5
REMARK    4  A    between atoms: C_14  and  O_15
REMARK    5  A    between atoms: O_15  and  C_16
REMARK    6  A    between atoms: C_16  and  C_17
REMARK                            x       y       z     vdW  Elec       q    Type
REMARK                         _______ _______ _______ _____ _____    ______ ____
ROOT
ATOM      1  C   UNL     1       6.340   5.965  17.246  0.00  0.00    +0.000 A 
ATOM      2  C   UNL     1       6.989   5.234  18.248  0.00  0.00    +0.000 A 
ATOM      3  C   UNL     1       7.969   5.845  19.026  0.00  0.00    +0.000 A 
ATOM      4  C   UNL     1       8.297   7.183  18.804  0.00  0.00    +0.000 A 
ATOM      5  C   UNL     1       7.650   7.922  17.809  0.00  0.00    +0.000 A 
ATOM      6  C   UNL     1       6.688   7.302  17.011  0.00  0.00    +0.000 A 
ENDROOT
BRANCH   1   8
ATOM      7  O   UNL     1       5.225   5.577  15.202  0.00  0.00    +0.000 OA
ATOM      8  C   UNL     1       5.277   5.359  16.403  0.00  0.00    +0.000 C 
BRANCH   8   9
ATOM      9  C   UNL     1       4.259   4.545  17.111  0.00  0.00    +0.000 C 
ATOM     10  C   UNL     1       3.263   5.133  17.785  0.00  0.00    +0.000 C 
BRANCH  10  11
ATOM     11  C   UNL     1       2.306   4.333  18.467  0.00  0.00    +0.000 A 
ATOM     12  C   UNL     1       1.684   3.166  18.044  0.00  0.00    +0.000 A 
ATOM     13  C   UNL     1       0.802   2.745  19.067  0.00  0.00    +0.000 A 
ATOM     14  C   UNL     1       0.927   3.669  20.072  0.00  0.00    +0.000 A 
ATOM     15  O   UNL     1       1.825   4.620  19.727  0.00  0.00    +0.000 OA
ENDBRANCH  10  11
ENDBRANCH   8   9
ENDBRANCH   1   8
BRANCH   5  16
ATOM     16  O   UNL     1       8.059   9.221  17.693  0.00  0.00    +0.000 OA
BRANCH  16  17
ATOM     17  C   UNL     1       8.869   9.720  18.763  0.00  0.00    +0.000 C 
BRANCH  17  18
ATOM     18  C   UNL     1       9.541  10.975  18.295  0.00  0.00    +0.000 C 
ATOM     19  C   UNL     1       8.720  12.143  17.832  0.00  0.00    +0.000 C 
ATOM     20  S   UNL     1       9.527  12.351  19.342  0.00  0.00    +0.000 S 
ENDBRANCH  17  18
ENDBRANCH  16  17
ENDBRANCH   5  16
TORSDOF 6
ENDMDL
MODEL 3
REMARK VINA RESULT:      -6.8      3.367      8.192
REMARK  Name = 
REMARK  6 active torsions:
REMARK  status: ('A' for Active; 'I' for Inactive)
REMARK    1  A    between atoms: C_2  and  C_3
REMARK    2  A    between atoms: C_2  and  C_10
REMARK    3  A    between atoms: C_4  and  C_5
REMARK    4  A    between atoms: C_14  and  O_15
REMARK    5  A    between atoms: O_15  and  C_16
REMARK    6  A    between atoms: C_16  and  C_17
REMARK                            x       y       z     vdW  Elec       q    Type
REMARK                         _______ _______ _______ _____ _____    ______ ____
ROOT
ATOM      1  C   UNL     1       6.288   5.732  17.277  0.00  0.00    +0.000 A 
ATOM      2  C   UNL     1       7.004   5.063  18.276  0.00  0.00    +0.000 A 
ATOM      3  C   UNL     1       7.980   5.741  19.001  0.00  0.00    +0.000 A 
ATOM      4  C   UNL     1       8.238   7.085  18.728  0.00  0.00    +0.000 A 
ATOM      5  C   UNL     1       7.524   7.763  17.736  0.00  0.00    +0.000 A 
ATOM      6  C   UNL     1       6.566   7.076  16.990  0.00  0.00    +0.000 A 
ENDROOT
BRANCH   1   8
ATOM      7  O   UNL     1       5.364   4.847  15.293  0.00  0.00    +0.000 OA
ATOM      8  C   UNL     1       5.226   5.053  16.490  0.00  0.00    +0.000 C 
BRANCH   8   9
ATOM      9  C   UNL     1       3.981   4.710  17.220  0.00  0.00    +0.000 C 
ATOM     10  C   UNL     1       3.873   3.546  17.873  0.00  0.00    +0.000 C 
BRANCH  10  11
ATOM     11  C   UNL     1       2.665   3.232  18.554  0.00  0.00    +0.000 A 
ATOM     12  C   UNL     1       2.363   3.369  19.903  0.00  0.00    +0.000 A 
ATOM     13  C   UNL     1       1.040   2.911  20.102  0.00  0.00    +0.000 A 
ATOM     14  C   UNL     1       0.588   2.520  18.868  0.00  0.00    +0.000 A 
ATOM     15  O   UNL     1       1.549   2.710  17.935  0.00  0.00    +0.000 OA
ENDBRANCH  10  11
ENDBRANCH   8   9
ENDBRANCH   1   8
BRANCH   5  16
ATOM     16  O   UNL     1       7.869   9.075  17.568  0.00  0.00    +0.000 OA
BRANCH  16  17
ATOM     17  C   UNL     1       8.749   9.623  18.555  0.00  0.00    +0.000 C 
BRANCH  17  18
ATOM     18  C   UNL     1       8.980  11.067  18.228  0.00  0.00    +0.000 C 
ATOM     19  C   UNL     1       9.552  11.993  19.261  0.00  0.00    +0.000 C 
ATOM     20  S   UNL     1      10.603  11.595  17.952  0.00  0.00    +0.000 S 
ENDBRANCH  17  18
ENDBRANCH  16  17
ENDBRANCH   5  16
TORSDOF 6
ENDMDL
MODEL 4
REMARK VINA RESULT:      -6.7      3.909      6.211
REMARK  Name = 
REMARK  6 active torsions:
REMARK  status: ('A' for Active; 'I' for Inactive)
REMARK    1  A    between atoms: C_2  and  C_3
REMARK    2  A    between atoms: C_2  and  C_10
REMARK    3  A    between atoms: C_4  and  C_5
REMARK    4  A    between atoms: C_14  and  O_15
REMARK    5  A    between atoms: O_15  and  C_16
REMARK    6  A    between atoms: C_16  and  C_17
REMARK                            x       y       z     vdW  Elec       q    Type
REMARK                         _______ _______ _______ _____ _____    ______ ____
ROOT
ATOM      1  C   UNL     1       5.217   5.589  16.409  0.00  0.00    +0.000 A 
ATOM      2  C   UNL     1       4.920   6.903  16.789  0.00  0.00    +0.000 A 
ATOM      3  C   UNL     1       3.821   7.156  17.606  0.00  0.00    +0.000 A 
ATOM      4  C   UNL     1       3.024   6.097  18.044  0.00  0.00    +0.000 A 
ATOM      5  C   UNL     1       3.318   4.782  17.674  0.00  0.00    +0.000 A 
ATOM      6  C   UNL     1       4.401   4.531  16.832  0.00  0.00    +0.000 A 
ENDROOT
BRANCH   1   8
ATOM      7  O   UNL     1       7.421   5.921  15.631  0.00  0.00    +0.000 OA
ATOM      8  C   UNL     1       6.389   5.271  15.553  0.00  0.00    +0.000 C 
BRANCH   8   9
ATOM      9  C   UNL     1       6.206   4.179  14.566  0.00  0.00    +0.000 C 
ATOM     10  C   UNL     1       6.694   4.294  13.324  0.00  0.00    +0.000 C 
BRANCH  10  11
ATOM     11  C   UNL     1       6.495   3.241  12.390  0.00  0.00    +0.000 A 
ATOM     12  C   UNL     1       7.430   2.589  11.598  0.00  0.00    +0.000 A 
ATOM     13  C   UNL     1       6.748   1.621  10.823  0.00  0.00    +0.000 A 
ATOM     14  C   UNL     1       5.427   1.720  11.179  0.00  0.00    +0.000 A 
ATOM     15  O   UNL     1       5.264   2.681  12.116  0.00  0.00    +0.000 OA
ENDBRANCH  10  11
ENDBRANCH   8   9
ENDBRANCH   1   8
BRANCH   5  16
ATOM     16  O   UNL     1       2.463   3.836  18.171  0.00  0.00    +0.000 OA
BRANCH  16  17
ATOM     17  C   UNL     1       1.441   4.316  19.051  0.00  0.00    +0.000 C 
BRANCH  17  18
ATOM     18  C   UNL     1       1.041   3.194  19.960  0.00  0.00    +0.000 C 
ATOM     19  C   UNL     1       1.929   1.993  20.111  0.00  0.00    +0.000 C 
ATOM     20  S   UNL     1       1.852   3.041  21.479  0.00  0.00    +0.000 S 
ENDBRANCH  17  18
ENDBRANCH  16  17
ENDBRANCH   5  16
TORSDOF 6
ENDMDL
MODEL 5
REMARK VINA RESULT:      -6.7      4.073      5.811
REMARK  Name = 
REMARK  6 active torsions:
REMARK  status: ('A' for Active; 'I' for Inactive)
REMARK    1  A    between atoms: C_2  and  C_3
REMARK    2  A    between atoms: C_2  and  C_10
REMARK    3  A    between atoms: C_4  and  C_5
REMARK    4  A    between atoms: C_14  and  O_15
REMARK    5  A    between atoms: O_15  and  C_16
REMARK    6  A    between atoms: C_16  and  C_17
REMARK                            x       y       z     vdW  Elec       q    Type
REMARK                         _______ _______ _______ _____ _____    ______ ____
ROOT
ATOM      1  C   UNL     1       5.158   4.786  18.434  0.00  0.00    +0.000 A 
ATOM      2  C   UNL     1       4.564   3.587  18.847  0.00  0.00    +0.000 A 
ATOM      3  C   UNL     1       3.192   3.538  19.081  0.00  0.00    +0.000 A 
ATOM      4  C   UNL     1       2.417   4.685  18.901  0.00  0.00    +0.000 A 
ATOM      5  C   UNL     1       3.002   5.884  18.484  0.00  0.00    +0.000 A 
ATOM      6  C   UNL     1       4.380   5.941  18.277  0.00  0.00    +0.000 A 
ENDROOT
BRANCH   1   8
ATOM      7  O   UNL     1       7.428   4.919  19.068  0.00  0.00    +0.000 OA
ATOM      8  C   UNL     1       6.615   4.880  18.157  0.00  0.00    +0.000 C 
BRANCH   8   9
ATOM      9  C   UNL     1       7.008   4.991  16.731  0.00  0.00    +0.000 C 
ATOM     10  C   UNL     1       6.312   4.356  15.780  0.00  0.00    +0.000 C 
BRANCH  10  11
ATOM     11  C   UNL     1       6.717   4.466  14.421  0.00  0.00    +0.000 A 
ATOM     12  C   UNL     1       6.265   3.756  13.316  0.00  0.00    +0.000 A 
ATOM     13  C   UNL     1       6.978   4.214  12.183  0.00  0.00    +0.000 A 
ATOM     14  C   UNL     1       7.829   5.186  12.642  0.00  0.00    +0.000 A 
ATOM     15  O   UNL     1       7.680   5.348  13.977  0.00  0.00    +0.000 OA
ENDBRANCH  10  11
ENDBRANCH   8   9
ENDBRANCH   1   8
BRANCH   5  16
ATOM     16  O   UNL     1       2.134   6.933  18.343  0.00  0.00    +0.000 OA
BRANCH  16  17
ATOM     17  C   UNL     1       2.706   8.161  17.880  0.00  0.00    +0.000 C 
BRANCH  17  18
ATOM     18  C   UNL     1       1.616   9.185  17.803  0.00  0.00    +0.000 C 
ATOM     19  C   UNL     1       0.987   9.712  19.060  0.00  0.00    +0.000 C 
ATOM     20  S   UNL     1       1.999  10.821  18.210  0.00  0.00    +0.000 S 
ENDBRANCH  17  18
ENDBRANCH  16  17
ENDBRANCH   5  16
TORSDOF 6
ENDMDL
MODEL 6
REMARK VINA RESULT:      -6.7      4.400      5.696
REMARK  Name = 
REMARK  6 active torsions:
REMARK  status: ('A' for Active; 'I' for Inactive)
REMARK    1  A    between atoms: C_2  and  C_3
REMARK    2  A    between atoms: C_2  and  C_10
REMARK    3  A    between atoms: C_4  and  C_5
REMARK    4  A    between atoms: C_14  and  O_15
REMARK    5  A    between atoms: O_15  and  C_16
REMARK    6  A    between atoms: C_16  and  C_17
REMARK                            x       y       z     vdW  Elec       q    Type
REMARK                         _______ _______ _______ _____ _____    ______ ____
ROOT
ATOM      1  C   UNL     1       3.841   4.122  18.440  0.00  0.00    +0.000 A 
ATOM      2  C   UNL     1       2.981   3.154  17.909  0.00  0.00    +0.000 A 
ATOM      3  C   UNL     1       1.654   3.101  18.328  0.00  0.00    +0.000 A 
ATOM      4  C   UNL     1       1.189   4.014  19.275  0.00  0.00    +0.000 A 
ATOM      5  C   UNL     1       2.040   4.988  19.807  0.00  0.00    +0.000 A 
ATOM      6  C   UNL     1       3.376   5.023  19.408  0.00  0.00    +0.000 A 
ENDROOT
BRANCH   1   8
ATOM      7  O   UNL     1       6.159   4.339  18.830  0.00  0.00    +0.000 OA
ATOM      8  C   UNL     1       5.259   4.227  18.010  0.00  0.00    +0.000 C 
BRANCH   8   9
ATOM      9  C   UNL     1       5.504   4.256  16.547  0.00  0.00    +0.000 C 
ATOM     10  C   UNL     1       6.710   4.580  16.064  0.00  0.00    +0.000 C 
BRANCH  10  11
ATOM     11  C   UNL     1       6.918   4.615  14.658  0.00  0.00    +0.000 A 
ATOM     12  C   UNL     1       6.292   3.874  13.665  0.00  0.00    +0.000 A 
ATOM     13  C   UNL     1       6.847   4.255  12.421  0.00  0.00    +0.000 A 
ATOM     14  C   UNL     1       7.784   5.214  12.706  0.00  0.00    +0.000 A 
ATOM     15  O   UNL     1       7.833   5.441  14.039  0.00  0.00    +0.000 OA
ENDBRANCH  10  11
ENDBRANCH   8   9
ENDBRANCH   1   8
BRANCH   5  16
ATOM     16  O   UNL     1       1.463   5.824  20.723  0.00  0.00    +0.000 OA
BRANCH  16  17
ATOM     17  C   UNL     1       2.009   7.145  20.797  0.00  0.00    +0.000 C 
BRANCH  17  18
ATOM     18  C   UNL     1       0.924   8.076  21.242  0.00  0.00    +0.000 C 
ATOM     19  C   UNL     1       1.263   9.310  22.027  0.00  0.00    +0.000 C 
ATOM     20  S   UNL     1       0.738   9.578  20.405  0.00  0.00    +0.000 S 
ENDBRANCH  17  18
ENDBRANCH  16  17
ENDBRANCH   5  16
TORSDOF 6
ENDMDL
MODEL 7
REMARK VINA RESULT:      -6.7      3.879      6.307
REMARK  Name = 
REMARK  6 active torsions:
REMARK  status: ('A' for Active; 'I' for Inactive)
REMARK    1  A    between atoms: C_2  and  C_3
REMARK    2  A    between atoms: C_2  and  C_10
REMARK    3  A    between atoms: C_4  and  C_5
REMARK    4  A    between atoms: C_14  and  O_15
REMARK    5  A    between atoms: O_15  and  C_16
REMARK    6  A    between atoms: C_16  and  C_17
REMARK                            x       y       z     vdW  Elec       q    Type
REMARK                         _______ _______ _______ _____ _____    ______ ____
ROOT
ATOM      1  C   UNL     1       6.026   5.253  16.955  0.00  0.00    +0.000 A 
ATOM      2  C   UNL     1       6.671   5.173  18.194  0.00  0.00    +0.000 A 
ATOM      3  C   UNL     1       5.928   5.253  19.369  0.00  0.00    +0.000 A 
ATOM      4  C   UNL     1       4.543   5.410  19.304  0.00  0.00    +0.000 A 
ATOM      5  C   UNL     1       3.890   5.485  18.070  0.00  0.00    +0.000 A 
ATOM      6  C   UNL     1       4.637   5.434  16.894  0.00  0.00    +0.000 A 
ENDROOT
BRANCH   1   8
ATOM      7  O   UNL     1       7.712   5.906  15.437  0.00  0.00    +0.000 OA
ATOM      8  C   UNL     1       6.777   5.156  15.677  0.00  0.00    +0.000 C 
BRANCH   8   9
ATOM      9  C   UNL     1       6.286   4.156  14.697  0.00  0.00    +0.000 C 
ATOM     10  C   UNL     1       6.405   4.375  13.382  0.00  0.00    +0.000 C 
BRANCH  10  11
ATOM     11  C   UNL     1       5.914   3.408  12.461  0.00  0.00    +0.000 A 
ATOM     12  C   UNL     1       6.570   2.315  11.912  0.00  0.00    +0.000 A 
ATOM     13  C   UNL     1       5.669   1.659  11.040  0.00  0.00    +0.000 A 
ATOM     14  C   UNL     1       4.502   2.376  11.098  0.00  0.00    +0.000 A 
ATOM     15  O   UNL     1       4.634   3.421  11.947  0.00  0.00    +0.000 OA
ENDBRANCH  10  11
ENDBRANCH   8   9
ENDBRANCH   1   8
BRANCH   5  16
ATOM     16  O   UNL     1       2.532   5.636  18.141  0.00  0.00    +0.000 OA
BRANCH  16  17
ATOM     17  C   UNL     1       1.754   4.510  17.723  0.00  0.00    +0.000 C 
BRANCH  17  18
ATOM     18  C   UNL     1       1.635   3.567  18.880  0.00  0.00    +0.000 C 
ATOM     19  C   UNL     1       0.712   2.385  18.799  0.00  0.00    +0.000 C 
ATOM     20  S   UNL     1       2.398   2.020  18.759  0.00  0.00    +0.000 S 
ENDBRANCH  17  18
ENDBRANCH  16  17
ENDBRANCH   5  16
TORSDOF 6
ENDMDL
MODEL 8
REMARK VINA RESULT:      -6.6      3.617      6.012
REMARK  Name = 
REMARK  6 active torsions:
REMARK  status: ('A' for Active; 'I' for Inactive)
REMARK    1  A    between atoms: C_2  and  C_3
REMARK    2  A    between atoms: C_2  and  C_10
REMARK    3  A    between atoms: C_4  and  C_5
REMARK    4  A    between atoms: C_14  and  O_15
REMARK    5  A    between atoms: O_15  and  C_16
REMARK    6  A    between atoms: C_16  and  C_17
REMARK                            x       y       z     vdW  Elec       q    Type
REMARK                         _______ _______ _______ _____ _____    ______ ____
ROOT
ATOM      1  C   UNL     1       5.514   5.443  16.883  0.00  0.00    +0.000 A 
ATOM      2  C   UNL     1       5.482   6.837  16.763  0.00  0.00    +0.000 A 
ATOM      3  C   UNL     1       4.382   7.548  17.237  0.00  0.00    +0.000 A 
ATOM      4  C   UNL     1       3.319   6.866  17.831  0.00  0.00    +0.000 A 
ATOM      5  C   UNL     1       3.346   5.475  17.960  0.00  0.00    +0.000 A 
ATOM      6  C   UNL     1       4.434   4.760  17.459  0.00  0.00    +0.000 A 
ENDROOT
BRANCH   1   8
ATOM      7  O   UNL     1       7.738   4.661  17.008  0.00  0.00    +0.000 OA
ATOM      8  C   UNL     1       6.674   4.646  16.407  0.00  0.00    +0.000 C 
BRANCH   8   9
ATOM      9  C   UNL     1       6.484   3.898  15.140  0.00  0.00    +0.000 C 
ATOM     10  C   UNL     1       5.640   4.348  14.202  0.00  0.00    +0.000 C 
BRANCH  10  11
ATOM     11  C   UNL     1       5.464   3.607  13.002  0.00  0.00    +0.000 A 
ATOM     12  C   UNL     1       4.407   3.642  12.102  0.00  0.00    +0.000 A 
ATOM     13  C   UNL     1       4.681   2.715  11.069  0.00  0.00    +0.000 A 
ATOM     14  C   UNL     1       5.895   2.157  11.380  0.00  0.00    +0.000 A 
ATOM     15  O   UNL     1       6.374   2.684  12.530  0.00  0.00    +0.000 OA
ENDBRANCH  10  11
ENDBRANCH   8   9
ENDBRANCH   1   8
BRANCH   5  16
ATOM     16  O   UNL     1       2.246   4.927  18.562  0.00  0.00    +0.000 OA
BRANCH  16  17
ATOM     17  C   UNL     1       2.209   5.008  19.991  0.00  0.00    +0.000 C 
BRANCH  17  18
ATOM     18  C   UNL     1       1.207   4.012  20.489  0.00  0.00    +0.000 C 
ATOM     19  C   UNL     1       1.209   2.608  19.959  0.00  0.00    +0.000 C 
ATOM     20  S   UNL     1       1.742   2.791  21.590  0.00  0.00    +0.000 S 
ENDBRANCH  17  18
ENDBRANCH  16  17
ENDBRANCH   5  16
TORSDOF 6
ENDMDL
MODEL 9
REMARK VINA RESULT:      -6.5      3.876      6.189
REMARK  Name = 
REMARK  6 active torsions:
REMARK  status: ('A' for Active; 'I' for Inactive)
REMARK    1  A    between atoms: C_2  and  C_3
REMARK    2  A    between atoms: C_2  and  C_10
REMARK    3  A    between atoms: C_4  and  C_5
REMARK    4  A    between atoms: C_14  and  O_15
REMARK    5  A    between atoms: O_15  and  C_16
REMARK    6  A    between atoms: C_16  and  C_17
REMARK                            x       y       z     vdW  Elec       q    Type
REMARK                         _______ _______ _______ _____ _____    ______ ____
ROOT
ATOM      1  C   UNL     1       5.045   5.662  16.466  0.00  0.00    +0.000 A 
ATOM      2  C   UNL     1       4.800   6.960  16.927  0.00  0.00    +0.000 A 
ATOM      3  C   UNL     1       3.679   7.215  17.714  0.00  0.00    +0.000 A 
ATOM      4  C   UNL     1       2.809   6.174  18.040  0.00  0.00    +0.000 A 
ATOM      5  C   UNL     1       3.050   4.874  17.588  0.00  0.00    +0.000 A 
ATOM      6  C   UNL     1       4.156   4.623  16.776  0.00  0.00    +0.000 A 
ENDROOT
BRANCH   1   8
ATOM      7  O   UNL     1       7.273   5.977  15.753  0.00  0.00    +0.000 OA
ATOM      8  C   UNL     1       6.237   5.340  15.639  0.00  0.00    +0.000 C 
BRANCH   8   9
ATOM      9  C   UNL     1       6.070   4.262  14.633  0.00  0.00    +0.000 C 
ATOM     10  C   UNL     1       6.627   4.369  13.420  0.00  0.00    +0.000 C 
BRANCH  10  11
ATOM     11  C   UNL     1       6.442   3.329  12.468  0.00  0.00    +0.000 A 
ATOM     12  C   UNL     1       5.268   2.690  12.091  0.00  0.00    +0.000 A 
ATOM     13  C   UNL     1       5.595   1.716  11.118  0.00  0.00    +0.000 A 
ATOM     14  C   UNL     1       6.952   1.806  10.939  0.00  0.00    +0.000 A 
ATOM     15  O   UNL     1       7.468   2.768  11.737  0.00  0.00    +0.000 OA
ENDBRANCH  10  11
ENDBRANCH   8   9
ENDBRANCH   1   8
BRANCH   5  16
ATOM     16  O   UNL     1       2.125   3.944  17.977  0.00  0.00    +0.000 OA
BRANCH  16  17
ATOM     17  C   UNL     1       1.998   3.741  19.389  0.00  0.00    +0.000 C 
BRANCH  17  18
ATOM     18  C   UNL     1       2.559   2.392  19.720  0.00  0.00    +0.000 C 
ATOM     19  C   UNL     1       3.362   1.638  18.700  0.00  0.00    +0.000 C 
ATOM     20  S   UNL     1       4.254   2.265  20.037  0.00  0.00    +0.000 S 
ENDBRANCH  17  18
ENDBRANCH  16  17
ENDBRANCH   5  16
TORSDOF 6
ENDMDL
