MODEL 1
REMARK VINA RESULT:      -7.8      0.000      0.000
REMARK  Name = 
REMARK  5 active torsions:
REMARK  status: ('A' for Active; 'I' for Inactive)
REMARK    1  A    between atoms: C_2  and  O_3
REMARK    2  A    between atoms: C_2  and  C_4
REMARK    3  A    between atoms: C_4  and  C_15
REMARK    4  A    between atoms: C_5  and  C_6
REMARK    5  A    between atoms: C_11  and  N_12
REMARK                            x       y       z     vdW  Elec       q    Type
REMARK                         _______ _______ _______ _____ _____    ______ ____
ROOT
ATOM      1  C   UNL     1       5.952   5.079  16.244  0.00  0.00    +0.000 C 
ATOM      2  C   UNL     1       4.684   4.699  16.510  0.00  0.00    +0.000 C 
ENDROOT
BRANCH   2   3
ATOM      3  C   UNL     1       3.906   5.132  17.687  0.00  0.00    +0.000 A 
ATOM      4  C   UNL     1       3.394   6.439  17.642  0.00  0.00    +0.000 A 
ATOM      5  C   UNL     1       2.593   6.932  18.675  0.00  0.00    +0.000 A 
ATOM      6  C   UNL     1       2.283   6.128  19.767  0.00  0.00    +0.000 A 
ATOM      7  C   UNL     1       2.791   4.832  19.842  0.00  0.00    +0.000 A 
ATOM      8  C   UNL     1       3.613   4.333  18.814  0.00  0.00    +0.000 A 
BRANCH   8   9
ATOM      9  N   UNL     1       4.158   2.974  18.976  0.00  0.00    +0.000 N 
ATOM     10  O   UNL     1       5.104   2.801  19.759  0.00  0.00    +0.000 OA
ATOM     11  O   UNL     1       3.613   2.056  18.344  0.00  0.00    +0.000 OA
ENDBRANCH   8   9
ENDBRANCH   2   3
BRANCH   1  12
ATOM     12  C   UNL     1       6.716   5.885  17.217  0.00  0.00    +0.000 A 
ATOM     13  C   UNL     1       6.955   7.245  16.974  0.00  0.00    +0.000 A 
ATOM     14  C   UNL     1       7.798   7.975  17.814  0.00  0.00    +0.000 A 
ATOM     15  C   UNL     1       8.403   7.353  18.905  0.00  0.00    +0.000 A 
ATOM     16  C   UNL     1       8.143   6.011  19.175  0.00  0.00    +0.000 A 
ATOM     17  C   UNL     1       7.297   5.279  18.339  0.00  0.00    +0.000 A 
ENDBRANCH   1  12
BRANCH   1  19
ATOM     18  O   UNL     1       7.482   5.212  14.410  0.00  0.00    +0.000 OA
ATOM     19  C   UNL     1       6.619   4.590  15.004  0.00  0.00    +0.000 C 
BRANCH  19  20
ATOM     20  O   UNL     1       6.169   3.387  14.580  0.00  0.00    +0.000 OA
ATOM     21  H   UNL     1       5.957   2.764  15.303  0.00  0.00    +0.000 HD
ENDBRANCH  19  20
ENDBRANCH   1  19
TORSDOF 5
ENDMDL
MODEL 2
REMARK VINA RESULT:      -7.8      0.359      1.136
REMARK  Name = 
REMARK  5 active torsions:
REMARK  status: ('A' for Active; 'I' for Inactive)
REMARK    1  A    between atoms: C_2  and  O_3
REMARK    2  A    between atoms: C_2  and  C_4
REMARK    3  A    between atoms: C_4  and  C_15
REMARK    4  A    between atoms: C_5  and  C_6
REMARK    5  A    between atoms: C_11  and  N_12
REMARK                            x       y       z     vdW  Elec       q    Type
REMARK                         _______ _______ _______ _____ _____    ______ ____
ROOT
ATOM      1  C   UNL     1       6.120   5.146  16.002  0.00  0.00    +0.000 C 
ATOM      2  C   UNL     1       4.811   4.914  16.248  0.00  0.00    +0.000 C 
ENDROOT
BRANCH   2   3
ATOM      3  C   UNL     1       4.080   5.398  17.434  0.00  0.00    +0.000 A 
ATOM      4  C   UNL     1       3.622   6.726  17.378  0.00  0.00    +0.000 A 
ATOM      5  C   UNL     1       2.866   7.269  18.420  0.00  0.00    +0.000 A 
ATOM      6  C   UNL     1       2.548   6.496  19.532  0.00  0.00    +0.000 A 
ATOM      7  C   UNL     1       3.002   5.181  19.618  0.00  0.00    +0.000 A 
ATOM      8  C   UNL     1       3.779   4.632  18.580  0.00  0.00    +0.000 A 
BRANCH   8   9
ATOM      9  N   UNL     1       4.271   3.253  18.754  0.00  0.00    +0.000 N 
ATOM     10  O   UNL     1       5.155   3.038  19.595  0.00  0.00    +0.000 OA
ATOM     11  O   UNL     1       3.742   2.363  18.069  0.00  0.00    +0.000 OA
ENDBRANCH   8   9
ENDBRANCH   2   3
BRANCH   1  12
ATOM     12  C   UNL     1       6.965   5.820  17.008  0.00  0.00    +0.000 A 
ATOM     13  C   UNL     1       7.428   5.115  18.128  0.00  0.00    +0.000 A 
ATOM     14  C   UNL     1       8.102   5.781  19.153  0.00  0.00    +0.000 A 
ATOM     15  C   UNL     1       8.322   7.155  19.064  0.00  0.00    +0.000 A 
ATOM     16  C   UNL     1       7.896   7.858  17.939  0.00  0.00    +0.000 A 
ATOM     17  C   UNL     1       7.226   7.193  16.909  0.00  0.00    +0.000 A 
ENDBRANCH   1  12
BRANCH   1  19
ATOM     18  O   UNL     1       7.607   5.204  14.131  0.00  0.00    +0.000 OA
ATOM     19  C   UNL     1       6.735   4.621  14.751  0.00  0.00    +0.000 C 
BRANCH  19  20
ATOM     20  O   UNL     1       6.226   3.434  14.347  0.00  0.00    +0.000 OA
ATOM     21  H   UNL     1       5.790   3.466  13.474  0.00  0.00    +0.000 HD
ENDBRANCH  19  20
ENDBRANCH   1  19
TORSDOF 5
ENDMDL
MODEL 3
REMARK VINA RESULT:      -7.7      2.695      3.911
REMARK  Name = 
REMARK  5 active torsions:
REMARK  status: ('A' for Active; 'I' for Inactive)
REMARK    1  A    between atoms: C_2  and  O_3
REMARK    2  A    between atoms: C_2  and  C_4
REMARK    3  A    between atoms: C_4  and  C_15
REMARK    4  A    between atoms: C_5  and  C_6
REMARK    5  A    between atoms: C_11  and  N_12
REMARK                            x       y       z     vdW  Elec       q    Type
REMARK                         _______ _______ _______ _____ _____    ______ ____
ROOT
ATOM      1  C   UNL     1       6.360   5.408  18.610  0.00  0.00    +0.000 C 
ATOM      2  C   UNL     1       5.310   5.060  19.385  0.00  0.00    +0.000 C 
ENDROOT
BRANCH   2   3
ATOM      3  C   UNL     1       4.066   4.441  18.887  0.00  0.00    +0.000 A 
ATOM      4  C   UNL     1       4.143   3.077  18.557  0.00  0.00    +0.000 A 
ATOM      5  C   UNL     1       3.012   2.376  18.133  0.00  0.00    +0.000 A 
ATOM      6  C   UNL     1       1.782   3.020  18.038  0.00  0.00    +0.000 A 
ATOM      7  C   UNL     1       1.682   4.376  18.345  0.00  0.00    +0.000 A 
ATOM      8  C   UNL     1       2.821   5.094  18.757  0.00  0.00    +0.000 A 
BRANCH   8   9
ATOM      9  N   UNL     1       2.660   6.536  19.019  0.00  0.00    +0.000 N 
ATOM     10  O   UNL     1       2.894   7.337  18.104  0.00  0.00    +0.000 OA
ATOM     11  O   UNL     1       2.257   6.874  20.144  0.00  0.00    +0.000 OA
ENDBRANCH   8   9
ENDBRANCH   2   3
BRANCH   1  12
ATOM     12  C   UNL     1       6.276   5.303  17.139  0.00  0.00    +0.000 A 
ATOM     13  C   UNL     1       5.479   6.198  16.412  0.00  0.00    +0.000 A 
ATOM     14  C   UNL     1       5.279   6.013  15.042  0.00  0.00    +0.000 A 
ATOM     15  C   UNL     1       5.880   4.938  14.390  0.00  0.00    +0.000 A 
ATOM     16  C   UNL     1       6.702   4.063  15.098  0.00  0.00    +0.000 A 
ATOM     17  C   UNL     1       6.908   4.248  16.467  0.00  0.00    +0.000 A 
ENDBRANCH   1  12
BRANCH   1  19
ATOM     18  O   UNL     1       8.224   6.901  18.738  0.00  0.00    +0.000 OA
ATOM     19  C   UNL     1       7.571   6.003  19.241  0.00  0.00    +0.000 C 
BRANCH  19  20
ATOM     20  O   UNL     1       7.899   5.445  20.429  0.00  0.00    +0.000 OA
ATOM     21  H   UNL     1       7.193   4.891  20.815  0.00  0.00    +0.000 HD
ENDBRANCH  19  20
ENDBRANCH   1  19
TORSDOF 5
ENDMDL
MODEL 4
REMARK VINA RESULT:      -7.6      2.714      5.521
REMARK  Name = 
REMARK  5 active torsions:
REMARK  status: ('A' for Active; 'I' for Inactive)
REMARK    1  A    between atoms: C_2  and  O_3
REMARK    2  A    between atoms: C_2  and  C_4
REMARK    3  A    between atoms: C_4  and  C_15
REMARK    4  A    between atoms: C_5  and  C_6
REMARK    5  A    between atoms: C_11  and  N_12
REMARK                            x       y       z     vdW  Elec       q    Type
REMARK                         _______ _______ _______ _____ _____    ______ ____
ROOT
ATOM      1  C   UNL     1       3.305   6.269  18.493  0.00  0.00    +0.000 C 
ATOM      2  C   UNL     1       4.419   6.645  17.827  0.00  0.00    +0.000 C 
ENDROOT
BRANCH   2   3
ATOM      3  C   UNL     1       5.317   5.725  17.103  0.00  0.00    +0.000 A 
ATOM      4  C   UNL     1       4.816   5.190  15.904  0.00  0.00    +0.000 A 
ATOM      5  C   UNL     1       5.603   4.355  15.106  0.00  0.00    +0.000 A 
ATOM      6  C   UNL     1       6.904   4.046  15.487  0.00  0.00    +0.000 A 
ATOM      7  C   UNL     1       7.420   4.552  16.679  0.00  0.00    +0.000 A 
ATOM      8  C   UNL     1       6.628   5.380  17.497  0.00  0.00    +0.000 A 
BRANCH   8   9
ATOM      9  N   UNL     1       7.213   5.843  18.768  0.00  0.00    +0.000 N 
ATOM     10  O   UNL     1       6.899   5.260  19.815  0.00  0.00    +0.000 OA
ATOM     11  O   UNL     1       8.028   6.778  18.719  0.00  0.00    +0.000 OA
ENDBRANCH   8   9
ENDBRANCH   2   3
BRANCH   1  12
ATOM     12  C   UNL     1       2.969   4.839  18.648  0.00  0.00    +0.000 A 
ATOM     13  C   UNL     1       1.836   4.308  18.017  0.00  0.00    +0.000 A 
ATOM     14  C   UNL     1       1.431   2.997  18.278  0.00  0.00    +0.000 A 
ATOM     15  C   UNL     1       2.159   2.208  19.167  0.00  0.00    +0.000 A 
ATOM     16  C   UNL     1       3.307   2.716  19.772  0.00  0.00    +0.000 A 
ATOM     17  C   UNL     1       3.717   4.025  19.509  0.00  0.00    +0.000 A 
ENDBRANCH   1  12
BRANCH   1  19
ATOM     18  O   UNL     1       2.095   8.328  18.621  0.00  0.00    +0.000 OA
ATOM     19  C   UNL     1       2.468   7.303  19.164  0.00  0.00    +0.000 C 
BRANCH  19  20
ATOM     20  O   UNL     1       2.167   7.011  20.450  0.00  0.00    +0.000 OA
ATOM     21  H   UNL     1       2.881   6.549  20.931  0.00  0.00    +0.000 HD
ENDBRANCH  19  20
ENDBRANCH   1  19
TORSDOF 5
ENDMDL
MODEL 5
REMARK VINA RESULT:      -7.6      2.166      3.344
REMARK  Name = 
REMARK  5 active torsions:
REMARK  status: ('A' for Active; 'I' for Inactive)
REMARK    1  A    between atoms: C_2  and  O_3
REMARK    2  A    between atoms: C_2  and  C_4
REMARK    3  A    between atoms: C_4  and  C_15
REMARK    4  A    between atoms: C_5  and  C_6
REMARK    5  A    between atoms: C_11  and  N_12
REMARK                            x       y       z     vdW  Elec       q    Type
REMARK                         _______ _______ _______ _____ _____    ______ ____
ROOT
ATOM      1  C   UNL     1       6.207   5.360  18.741  0.00  0.00    +0.000 C 
ATOM      2  C   UNL     1       5.159   5.145  19.566  0.00  0.00    +0.000 C 
ENDROOT
BRANCH   2   3
ATOM      3  C   UNL     1       3.856   4.595  19.144  0.00  0.00    +0.000 A 
ATOM      4  C   UNL     1       3.087   5.409  18.294  0.00  0.00    +0.000 A 
ATOM      5  C   UNL     1       1.865   4.964  17.786  0.00  0.00    +0.000 A 
ATOM      6  C   UNL     1       1.391   3.696  18.109  0.00  0.00    +0.000 A 
ATOM      7  C   UNL     1       2.128   2.875  18.961  0.00  0.00    +0.000 A 
ATOM      8  C   UNL     1       3.352   3.323  19.492  0.00  0.00    +0.000 A 
BRANCH   8   9
ATOM      9  N   UNL     1       4.058   2.428  20.426  0.00  0.00    +0.000 N 
ATOM     10  O   UNL     1       3.585   2.256  21.558  0.00  0.00    +0.000 OA
ATOM     11  O   UNL     1       5.081   1.858  20.014  0.00  0.00    +0.000 OA
ENDBRANCH   8   9
ENDBRANCH   2   3
BRANCH   1  12
ATOM     12  C   UNL     1       6.068   5.167  17.283  0.00  0.00    +0.000 A 
ATOM     13  C   UNL     1       5.662   6.231  16.466  0.00  0.00    +0.000 A 
ATOM     14  C   UNL     1       5.387   6.018  15.113  0.00  0.00    +0.000 A 
ATOM     15  C   UNL     1       5.521   4.743  14.568  0.00  0.00    +0.000 A 
ATOM     16  C   UNL     1       5.958   3.685  15.365  0.00  0.00    +0.000 A 
ATOM     17  C   UNL     1       6.238   3.896  16.717  0.00  0.00    +0.000 A 
ENDBRANCH   1  12
BRANCH   1  19
ATOM     18  O   UNL     1       8.152   6.750  18.744  0.00  0.00    +0.000 OA
ATOM     19  C   UNL     1       7.480   5.898  19.297  0.00  0.00    +0.000 C 
BRANCH  19  20
ATOM     20  O   UNL     1       7.839   5.341  20.477  0.00  0.00    +0.000 OA
ATOM     21  H   UNL     1       7.112   5.286  21.127  0.00  0.00    +0.000 HD
ENDBRANCH  19  20
ENDBRANCH   1  19
TORSDOF 5
ENDMDL
MODEL 6
REMARK VINA RESULT:      -7.6      2.631      5.505
REMARK  Name = 
REMARK  5 active torsions:
REMARK  status: ('A' for Active; 'I' for Inactive)
REMARK    1  A    between atoms: C_2  and  O_3
REMARK    2  A    between atoms: C_2  and  C_4
REMARK    3  A    between atoms: C_4  and  C_15
REMARK    4  A    between atoms: C_5  and  C_6
REMARK    5  A    between atoms: C_11  and  N_12
REMARK                            x       y       z     vdW  Elec       q    Type
REMARK                         _______ _______ _______ _____ _____    ______ ____
ROOT
ATOM      1  C   UNL     1       3.403   6.059  18.521  0.00  0.00    +0.000 C 
ATOM      2  C   UNL     1       4.422   6.585  17.807  0.00  0.00    +0.000 C 
ENDROOT
BRANCH   2   3
ATOM      3  C   UNL     1       5.354   5.804  16.971  0.00  0.00    +0.000 A 
ATOM      4  C   UNL     1       4.848   5.350  15.741  0.00  0.00    +0.000 A 
ATOM      5  C   UNL     1       5.660   4.652  14.844  0.00  0.00    +0.000 A 
ATOM      6  C   UNL     1       6.993   4.403  15.154  0.00  0.00    +0.000 A 
ATOM      7  C   UNL     1       7.516   4.831  16.373  0.00  0.00    +0.000 A 
ATOM      8  C   UNL     1       6.699   5.519  17.290  0.00  0.00    +0.000 A 
BRANCH   8   9
ATOM      9  N   UNL     1       7.297   5.900  18.582  0.00  0.00    +0.000 N 
ATOM     10  O   UNL     1       7.100   5.175  19.567  0.00  0.00    +0.000 OA
ATOM     11  O   UNL     1       8.006   6.918  18.609  0.00  0.00    +0.000 OA
ENDBRANCH   8   9
ENDBRANCH   2   3
BRANCH   1  12
ATOM     12  C   UNL     1       3.225   4.596  18.612  0.00  0.00    +0.000 A 
ATOM     13  C   UNL     1       4.069   3.832  19.431  0.00  0.00    +0.000 A 
ATOM     14  C   UNL     1       4.003   2.438  19.409  0.00  0.00    +0.000 A 
ATOM     15  C   UNL     1       3.090   1.797  18.573  0.00  0.00    +0.000 A 
ATOM     16  C   UNL     1       2.223   2.549  17.781  0.00  0.00    +0.000 A 
ATOM     17  C   UNL     1       2.284   3.944  17.805  0.00  0.00    +0.000 A 
ENDBRANCH   1  12
BRANCH   1  19
ATOM     18  O   UNL     1       2.108   8.034  18.897  0.00  0.00    +0.000 OA
ATOM     19  C   UNL     1       2.516   6.962  19.308  0.00  0.00    +0.000 C 
BRANCH  19  20
ATOM     20  O   UNL     1       2.211   6.492  20.539  0.00  0.00    +0.000 OA
ATOM     21  H   UNL     1       1.293   6.676  20.818  0.00  0.00    +0.000 HD
ENDBRANCH  19  20
ENDBRANCH   1  19
TORSDOF 5
ENDMDL
MODEL 7
REMARK VINA RESULT:      -7.6      2.659      4.020
REMARK  Name = 
REMARK  5 active torsions:
REMARK  status: ('A' for Active; 'I' for Inactive)
REMARK    1  A    between atoms: C_2  and  O_3
REMARK    2  A    between atoms: C_2  and  C_4
REMARK    3  A    between atoms: C_4  and  C_15
REMARK    4  A    between atoms: C_5  and  C_6
REMARK    5  A    between atoms: C_11  and  N_12
REMARK                            x       y       z     vdW  Elec       q    Type
REMARK                         _______ _______ _______ _____ _____    ______ ____
ROOT
ATOM      1  C   UNL     1       6.184   5.254  18.639  0.00  0.00    +0.000 C 
ATOM      2  C   UNL     1       5.190   4.876  19.472  0.00  0.00    +0.000 C 
ENDROOT
BRANCH   2   3
ATOM      3  C   UNL     1       3.942   4.213  19.046  0.00  0.00    +0.000 A 
ATOM      4  C   UNL     1       4.034   2.838  18.775  0.00  0.00    +0.000 A 
ATOM      5  C   UNL     1       2.903   2.098  18.422  0.00  0.00    +0.000 A 
ATOM      6  C   UNL     1       1.659   2.716  18.341  0.00  0.00    +0.000 A 
ATOM      7  C   UNL     1       1.543   4.082  18.592  0.00  0.00    +0.000 A 
ATOM      8  C   UNL     1       2.682   4.838  18.931  0.00  0.00    +0.000 A 
BRANCH   8   9
ATOM      9  N   UNL     1       2.502   6.287  19.134  0.00  0.00    +0.000 N 
ATOM     10  O   UNL     1       2.650   7.047  18.167  0.00  0.00    +0.000 OA
ATOM     11  O   UNL     1       2.170   6.671  20.267  0.00  0.00    +0.000 OA
ENDBRANCH   8   9
ENDBRANCH   2   3
BRANCH   1  12
ATOM     12  C   UNL     1       6.024   5.136  17.176  0.00  0.00    +0.000 A 
ATOM     13  C   UNL     1       6.654   4.096  16.478  0.00  0.00    +0.000 A 
ATOM     14  C   UNL     1       6.628   4.064  15.083  0.00  0.00    +0.000 A 
ATOM     15  C   UNL     1       5.968   5.068  14.375  0.00  0.00    +0.000 A 
ATOM     16  C   UNL     1       5.309   6.087  15.062  0.00  0.00    +0.000 A 
ATOM     17  C   UNL     1       5.329   6.118  16.458  0.00  0.00    +0.000 A 
ENDBRANCH   1  12
BRANCH   1  19
ATOM     18  O   UNL     1       8.032   6.772  18.633  0.00  0.00    +0.000 OA
ATOM     19  C   UNL     1       7.408   5.892  19.200  0.00  0.00    +0.000 C 
BRANCH  19  20
ATOM     20  O   UNL     1       7.782   5.395  20.402  0.00  0.00    +0.000 OA
ATOM     21  H   UNL     1       8.718   5.562  20.626  0.00  0.00    +0.000 HD
ENDBRANCH  19  20
ENDBRANCH   1  19
TORSDOF 5
ENDMDL
MODEL 8
REMARK VINA RESULT:      -7.5      1.847      5.108
REMARK  Name = 
REMARK  5 active torsions:
REMARK  status: ('A' for Active; 'I' for Inactive)
REMARK    1  A    between atoms: C_2  and  O_3
REMARK    2  A    between atoms: C_2  and  C_4
REMARK    3  A    between atoms: C_4  and  C_15
REMARK    4  A    between atoms: C_5  and  C_6
REMARK    5  A    between atoms: C_11  and  N_12
REMARK                            x       y       z     vdW  Elec       q    Type
REMARK                         _______ _______ _______ _____ _____    ______ ____
ROOT
ATOM      1  C   UNL     1       3.222   4.257  18.004  0.00  0.00    +0.000 C 
ATOM      2  C   UNL     1       4.487   4.042  17.581  0.00  0.00    +0.000 C 
ENDROOT
BRANCH   2   3
ATOM      3  C   UNL     1       5.624   4.948  17.836  0.00  0.00    +0.000 A 
ATOM      4  C   UNL     1       6.161   4.915  19.134  0.00  0.00    +0.000 A 
ATOM      5  C   UNL     1       7.276   5.686  19.470  0.00  0.00    +0.000 A 
ATOM      6  C   UNL     1       7.881   6.496  18.515  0.00  0.00    +0.000 A 
ATOM      7  C   UNL     1       7.360   6.557  17.223  0.00  0.00    +0.000 A 
ATOM      8  C   UNL     1       6.225   5.797  16.882  0.00  0.00    +0.000 A 
BRANCH   8   9
ATOM      9  N   UNL     1       5.694   5.943  15.515  0.00  0.00    +0.000 N 
ATOM     10  O   UNL     1       4.976   6.919  15.257  0.00  0.00    +0.000 OA
ATOM     11  O   UNL     1       6.026   5.092  14.675  0.00  0.00    +0.000 OA
ENDBRANCH   8   9
ENDBRANCH   2   3
BRANCH   1  12
ATOM     12  C   UNL     1       2.857   5.525  18.668  0.00  0.00    +0.000 A 
ATOM     13  C   UNL     1       2.451   5.527  20.010  0.00  0.00    +0.000 A 
ATOM     14  C   UNL     1       1.966   6.695  20.600  0.00  0.00    +0.000 A 
ATOM     15  C   UNL     1       1.887   7.871  19.854  0.00  0.00    +0.000 A 
ATOM     16  C   UNL     1       2.321   7.887  18.529  0.00  0.00    +0.000 A 
ATOM     17  C   UNL     1       2.812   6.721  17.939  0.00  0.00    +0.000 A 
ENDBRANCH   1  12
BRANCH   1  19
ATOM     18  O   UNL     1       1.002   3.537  17.484  0.00  0.00    +0.000 OA
ATOM     19  C   UNL     1       2.167   3.251  17.701  0.00  0.00    +0.000 C 
BRANCH  19  20
ATOM     20  O   UNL     1       2.613   1.973  17.702  0.00  0.00    +0.000 OA
ATOM     21  H   UNL     1       2.725   1.591  16.810  0.00  0.00    +0.000 HD
ENDBRANCH  19  20
ENDBRANCH   1  19
TORSDOF 5
ENDMDL
MODEL 9
REMARK VINA RESULT:      -7.5      2.138      3.505
REMARK  Name = 
REMARK  5 active torsions:
REMARK  status: ('A' for Active; 'I' for Inactive)
REMARK    1  A    between atoms: C_2  and  O_3
REMARK    2  A    between atoms: C_2  and  C_4
REMARK    3  A    between atoms: C_4  and  C_15
REMARK    4  A    between atoms: C_5  and  C_6
REMARK    5  A    between atoms: C_11  and  N_12
REMARK                            x       y       z     vdW  Elec       q    Type
REMARK                         _______ _______ _______ _____ _____    ______ ____
ROOT
ATOM      1  C   UNL     1       6.027   5.318  18.673  0.00  0.00    +0.000 C 
ATOM      2  C   UNL     1       5.019   5.088  19.542  0.00  0.00    +0.000 C 
ENDROOT
BRANCH   2   3
ATOM      3  C   UNL     1       3.715   4.499  19.180  0.00  0.00    +0.000 A 
ATOM      4  C   UNL     1       2.906   5.268  18.325  0.00  0.00    +0.000 A 
ATOM      5  C   UNL     1       1.678   4.782  17.869  0.00  0.00    +0.000 A 
ATOM      6  C   UNL     1       1.239   3.519  18.252  0.00  0.00    +0.000 A 
ATOM      7  C   UNL     1       2.015   2.743  19.111  0.00  0.00    +0.000 A 
ATOM      8  C   UNL     1       3.246   3.232  19.588  0.00  0.00    +0.000 A 
BRANCH   8   9
ATOM      9  N   UNL     1       3.996   2.384  20.533  0.00  0.00    +0.000 N 
ATOM     10  O   UNL     1       5.077   1.900  20.169  0.00  0.00    +0.000 OA
ATOM     11  O   UNL     1       3.520   2.228  21.668  0.00  0.00    +0.000 OA
ENDBRANCH   8   9
ENDBRANCH   2   3
BRANCH   1  12
ATOM     12  C   UNL     1       5.836   5.102  17.225  0.00  0.00    +0.000 A 
ATOM     13  C   UNL     1       6.128   3.856  16.652  0.00  0.00    +0.000 A 
ATOM     14  C   UNL     1       6.090   3.689  15.267  0.00  0.00    +0.000 A 
ATOM     15  C   UNL     1       5.755   4.764  14.445  0.00  0.00    +0.000 A 
ATOM     16  C   UNL     1       5.428   5.997  15.007  0.00  0.00    +0.000 A 
ATOM     17  C   UNL     1       5.461   6.165  16.393  0.00  0.00    +0.000 A 
ENDBRANCH   1  12
BRANCH   1  19
ATOM     18  O   UNL     1       7.953   6.731  18.565  0.00  0.00    +0.000 OA
ATOM     19  C   UNL     1       7.307   5.895  19.172  0.00  0.00    +0.000 C 
BRANCH  19  20
ATOM     20  O   UNL     1       7.704   5.395  20.365  0.00  0.00    +0.000 OA
ATOM     21  H   UNL     1       7.690   4.419  20.410  0.00  0.00    +0.000 HD
ENDBRANCH  19  20
ENDBRANCH   1  19
TORSDOF 5
ENDMDL
