MODEL 1
REMARK VINA RESULT:      -6.4      0.000      0.000
REMARK  Name = 
REMARK  11 active torsions:
REMARK  status: ('A' for Active; 'I' for Inactive)
REMARK    1  A    between atoms: C_1  and  O_2
REMARK    2  A    between atoms: O_2  and  C_3
REMARK    3  A    between atoms: C_9  and  C_10
REMARK    4  A    between atoms: C_20  and  O_21
REMARK    5  A    between atoms: O_21  and  C_22
REMARK    6  A    between atoms: C_22  and  C_23
REMARK    7  A    between atoms: C_25  and  O_26
REMARK    8  A    between atoms: O_26  and  C_27
REMARK    9  A    between atoms: C_27  and  C_28
REMARK   10  A    between atoms: C_30  and  C_31
REMARK   11  A    between atoms: C_30  and  C_32
REMARK                            x       y       z     vdW  Elec       q    Type
REMARK                         _______ _______ _______ _____ _____    ______ ____
ROOT
ATOM      1  C   UNL     1      -3.655  11.393  17.461  0.00  0.00    +0.000 A 
ATOM      2  C   UNL     1      -2.261  11.402  17.529  0.00  0.00    +0.000 A 
ATOM      3  C   UNL     1      -1.600  11.891  18.659  0.00  0.00    +0.000 A 
ATOM      4  C   UNL     1      -2.309  12.453  19.725  0.00  0.00    +0.000 A 
ATOM      5  C   UNL     1      -3.718  12.383  19.685  0.00  0.00    +0.000 A 
ATOM      6  O   UNL     1      -4.398  12.833  20.794  0.00  0.00    +0.000 OA
ATOM      7  C   UNL     1      -5.776  12.772  20.807  0.00  0.00    +0.000 A 
ATOM      8  C   UNL     1      -6.531  12.293  19.815  0.00  0.00    +0.000 A 
ATOM      9  C   UNL     1      -5.872  11.775  18.606  0.00  0.00    +0.000 A 
ATOM     10  O   UNL     1      -6.570  11.288  17.729  0.00  0.00    +0.000 OA
ATOM     11  C   UNL     1      -4.389  11.857  18.566  0.00  0.00    +0.000 A 
ATOM     12  C   UNL     1      -1.552  13.057  20.897  0.00  0.00    +0.000 C 
ATOM     13  C   UNL     1      -0.051  13.250  20.545  0.00  0.00    +0.000 C 
ATOM     14  C   UNL     1       0.463  11.960  19.855  0.00  0.00    +0.000 C 
ATOM     15  C   UNL     1       1.947  12.081  19.463  0.00  0.00    +0.000 C 
ATOM     16  C   UNL     1       0.335  10.692  20.727  0.00  0.00    +0.000 C 
ATOM     17  O   UNL     1      -0.239  11.764  18.614  0.00  0.00    +0.000 OA
ENDROOT
BRANCH   7  18
ATOM     18  C   UNL     1      -6.396  13.299  22.023  0.00  0.00    +0.000 A 
ATOM     19  C   UNL     1      -6.367  14.669  22.306  0.00  0.00    +0.000 A 
ATOM     20  C   UNL     1      -7.017  15.168  23.437  0.00  0.00    +0.000 A 
ATOM     21  C   UNL     1      -7.694  14.298  24.292  0.00  0.00    +0.000 A 
ATOM     22  C   UNL     1      -7.697  12.929  24.035  0.00  0.00    +0.000 A 
ATOM     23  C   UNL     1      -7.043  12.430  22.909  0.00  0.00    +0.000 A 
ENDBRANCH   7  18
BRANCH   1  25
ATOM     24  C   UNL     1      -3.590  10.520  15.240  0.00  0.00    +0.000 C 
ATOM     25  O   UNL     1      -4.341  10.996  16.348  0.00  0.00    +0.000 OA
ENDBRANCH   1  25
BRANCH  12  26
ATOM     26  O   UNL     1      -2.138  14.336  21.225  0.00  0.00    +0.000 OA
BRANCH  26  27
ATOM     27  C   UNL     1      -2.095  14.697  22.537  0.00  0.00    +0.000 C 
ATOM     28  C   UNL     1      -2.533  13.571  23.422  0.00  0.00    +0.000 C 
ATOM     29  O   UNL     1      -1.717  15.782  22.961  0.00  0.00    +0.000 OA
ENDBRANCH  26  27
ENDBRANCH  12  26
BRANCH  13  30
ATOM     30  O   UNL     1       0.747  13.513  21.725  0.00  0.00    +0.000 OA
BRANCH  30  31
ATOM     31  C   UNL     1       1.571  14.598  21.678  0.00  0.00    +0.000 C 
ATOM     32  C   UNL     1       1.070  15.616  20.696  0.00  0.00    +0.000 C 
ATOM     33  O   UNL     1       2.595  14.739  22.328  0.00  0.00    +0.000 OA
ENDBRANCH  30  31
ENDBRANCH  13  30
TORSDOF 6
ENDMDL
MODEL 2
REMARK VINA RESULT:      -6.4      3.000      7.143
REMARK  Name = 
REMARK  11 active torsions:
REMARK  status: ('A' for Active; 'I' for Inactive)
REMARK    1  A    between atoms: C_1  and  O_2
REMARK    2  A    between atoms: O_2  and  C_3
REMARK    3  A    between atoms: C_9  and  C_10
REMARK    4  A    between atoms: C_20  and  O_21
REMARK    5  A    between atoms: O_21  and  C_22
REMARK    6  A    between atoms: C_22  and  C_23
REMARK    7  A    between atoms: C_25  and  O_26
REMARK    8  A    between atoms: O_26  and  C_27
REMARK    9  A    between atoms: C_27  and  C_28
REMARK   10  A    between atoms: C_30  and  C_31
REMARK   11  A    between atoms: C_30  and  C_32
REMARK                            x       y       z     vdW  Elec       q    Type
REMARK                         _______ _______ _______ _____ _____    ______ ____
ROOT
ATOM      1  C   UNL     1      -0.954  11.642  22.695  0.00  0.00    +0.000 A 
ATOM      2  C   UNL     1      -2.239  11.619  23.241  0.00  0.00    +0.000 A 
ATOM      3  C   UNL     1      -3.167  12.617  22.933  0.00  0.00    +0.000 A 
ATOM      4  C   UNL     1      -2.819  13.707  22.129  0.00  0.00    +0.000 A 
ATOM      5  C   UNL     1      -1.543  13.695  21.525  0.00  0.00    +0.000 A 
ATOM      6  O   UNL     1      -1.259  14.714  20.644  0.00  0.00    +0.000 OA
ATOM      7  C   UNL     1      -0.030  14.737  20.019  0.00  0.00    +0.000 A 
ATOM      8  C   UNL     1       0.934  13.828  20.190  0.00  0.00    +0.000 A 
ATOM      9  C   UNL     1       0.693  12.699  21.100  0.00  0.00    +0.000 A 
ATOM     10  O   UNL     1       1.560  11.844  21.205  0.00  0.00    +0.000 OA
ATOM     11  C   UNL     1      -0.617  12.673  21.802  0.00  0.00    +0.000 A 
ATOM     12  C   UNL     1      -3.828  14.819  21.891  0.00  0.00    +0.000 C 
ATOM     13  C   UNL     1      -5.014  14.713  22.888  0.00  0.00    +0.000 C 
ATOM     14  C   UNL     1      -5.472  13.233  22.954  0.00  0.00    +0.000 C 
ATOM     15  C   UNL     1      -6.642  13.047  23.937  0.00  0.00    +0.000 C 
ATOM     16  C   UNL     1      -5.937  12.663  21.596  0.00  0.00    +0.000 C 
ATOM     17  O   UNL     1      -4.407  12.421  23.478  0.00  0.00    +0.000 OA
ENDROOT
BRANCH   7  18
ATOM     18  C   UNL     1       0.175  15.876  19.124  0.00  0.00    +0.000 A 
ATOM     19  C   UNL     1      -0.902  16.675  18.725  0.00  0.00    +0.000 A 
ATOM     20  C   UNL     1      -0.685  17.797  17.922  0.00  0.00    +0.000 A 
ATOM     21  C   UNL     1       0.607  18.121  17.510  0.00  0.00    +0.000 A 
ATOM     22  C   UNL     1       1.679  17.309  17.874  0.00  0.00    +0.000 A 
ATOM     23  C   UNL     1       1.463  16.185  18.671  0.00  0.00    +0.000 A 
ENDBRANCH   7  18
BRANCH   1  25
ATOM     24  C   UNL     1      -0.289   9.354  22.846  0.00  0.00    +0.000 C 
ATOM     25  O   UNL     1       0.009  10.731  23.027  0.00  0.00    +0.000 OA
ENDBRANCH   1  25
BRANCH  12  26
ATOM     26  O   UNL     1      -3.170  16.094  22.059  0.00  0.00    +0.000 OA
BRANCH  26  27
ATOM     27  C   UNL     1      -3.515  17.069  21.174  0.00  0.00    +0.000 C 
ATOM     28  C   UNL     1      -2.956  18.396  21.586  0.00  0.00    +0.000 C 
ATOM     29  O   UNL     1      -4.167  16.899  20.152  0.00  0.00    +0.000 OA
ENDBRANCH  26  27
ENDBRANCH  12  26
BRANCH  13  30
ATOM     30  O   UNL     1      -6.130  15.543  22.485  0.00  0.00    +0.000 OA
BRANCH  30  31
ATOM     31  C   UNL     1      -6.564  16.468  23.389  0.00  0.00    +0.000 C 
ATOM     32  C   UNL     1      -5.528  16.721  24.444  0.00  0.00    +0.000 C 
ATOM     33  O   UNL     1      -7.653  17.020  23.370  0.00  0.00    +0.000 OA
ENDBRANCH  30  31
ENDBRANCH  13  30
TORSDOF 6
ENDMDL
MODEL 3
REMARK VINA RESULT:      -6.4      3.026      7.097
REMARK  Name = 
REMARK  11 active torsions:
REMARK  status: ('A' for Active; 'I' for Inactive)
REMARK    1  A    between atoms: C_1  and  O_2
REMARK    2  A    between atoms: O_2  and  C_3
REMARK    3  A    between atoms: C_9  and  C_10
REMARK    4  A    between atoms: C_20  and  O_21
REMARK    5  A    between atoms: O_21  and  C_22
REMARK    6  A    between atoms: C_22  and  C_23
REMARK    7  A    between atoms: C_25  and  O_26
REMARK    8  A    between atoms: O_26  and  C_27
REMARK    9  A    between atoms: C_27  and  C_28
REMARK   10  A    between atoms: C_30  and  C_31
REMARK   11  A    between atoms: C_30  and  C_32
REMARK                            x       y       z     vdW  Elec       q    Type
REMARK                         _______ _______ _______ _____ _____    ______ ____
ROOT
ATOM      1  C   UNL     1      -0.974  11.615  22.705  0.00  0.00    +0.000 A 
ATOM      2  C   UNL     1      -2.253  11.559  23.261  0.00  0.00    +0.000 A 
ATOM      3  C   UNL     1      -3.199  12.551  22.989  0.00  0.00    +0.000 A 
ATOM      4  C   UNL     1      -2.874  13.667  22.212  0.00  0.00    +0.000 A 
ATOM      5  C   UNL     1      -1.603  13.691  21.597  0.00  0.00    +0.000 A 
ATOM      6  O   UNL     1      -1.342  14.738  20.742  0.00  0.00    +0.000 OA
ATOM      7  C   UNL     1      -0.119  14.796  20.107  0.00  0.00    +0.000 A 
ATOM      8  C   UNL     1       0.859  13.897  20.244  0.00  0.00    +0.000 A 
ATOM      9  C   UNL     1       0.643  12.739  21.125  0.00  0.00    +0.000 A 
ATOM     10  O   UNL     1       1.523  11.895  21.199  0.00  0.00    +0.000 OA
ATOM     11  C   UNL     1      -0.660  12.675  21.837  0.00  0.00    +0.000 A 
ATOM     12  C   UNL     1      -3.900  14.771  22.013  0.00  0.00    +0.000 C 
ATOM     13  C   UNL     1      -5.076  14.620  23.017  0.00  0.00    +0.000 C 
ATOM     14  C   UNL     1      -5.512  13.132  23.046  0.00  0.00    +0.000 C 
ATOM     15  C   UNL     1      -6.670  12.902  24.034  0.00  0.00    +0.000 C 
ATOM     16  C   UNL     1      -5.981  12.593  21.677  0.00  0.00    +0.000 C 
ATOM     17  O   UNL     1      -4.431  12.321  23.539  0.00  0.00    +0.000 OA
ENDROOT
BRANCH   7  18
ATOM     18  C   UNL     1       0.061  15.962  19.242  0.00  0.00    +0.000 A 
ATOM     19  C   UNL     1       1.324  16.293  18.739  0.00  0.00    +0.000 A 
ATOM     20  C   UNL     1       1.472  17.370  17.863  0.00  0.00    +0.000 A 
ATOM     21  C   UNL     1       0.359  18.124  17.490  0.00  0.00    +0.000 A 
ATOM     22  C   UNL     1      -0.895  17.821  18.014  0.00  0.00    +0.000 A 
ATOM     23  C   UNL     1      -1.043  16.750  18.895  0.00  0.00    +0.000 A 
ENDBRANCH   7  18
BRANCH   1  25
ATOM     24  C   UNL     1      -0.275   9.334  22.787  0.00  0.00    +0.000 C 
ATOM     25  O   UNL     1       0.005  10.710  23.003  0.00  0.00    +0.000 OA
ENDBRANCH   1  25
BRANCH  12  26
ATOM     26  O   UNL     1      -3.259  16.050  22.211  0.00  0.00    +0.000 OA
BRANCH  26  27
ATOM     27  C   UNL     1      -3.668  17.058  21.393  0.00  0.00    +0.000 C 
ATOM     28  C   UNL     1      -3.297  18.396  21.957  0.00  0.00    +0.000 C 
ATOM     29  O   UNL     1      -4.233  16.913  20.316  0.00  0.00    +0.000 OA
ENDBRANCH  26  27
ENDBRANCH  12  26
BRANCH  13  30
ATOM     30  O   UNL     1      -6.208  15.445  22.646  0.00  0.00    +0.000 OA
BRANCH  30  31
ATOM     31  C   UNL     1      -6.526  16.465  23.494  0.00  0.00    +0.000 C 
ATOM     32  C   UNL     1      -7.848  17.075  23.134  0.00  0.00    +0.000 C 
ATOM     33  O   UNL     1      -5.835  16.857  24.421  0.00  0.00    +0.000 OA
ENDBRANCH  30  31
ENDBRANCH  13  30
TORSDOF 6
ENDMDL
MODEL 4
REMARK VINA RESULT:      -6.3      0.725      1.112
REMARK  Name = 
REMARK  11 active torsions:
REMARK  status: ('A' for Active; 'I' for Inactive)
REMARK    1  A    between atoms: C_1  and  O_2
REMARK    2  A    between atoms: O_2  and  C_3
REMARK    3  A    between atoms: C_9  and  C_10
REMARK    4  A    between atoms: C_20  and  O_21
REMARK    5  A    between atoms: O_21  and  C_22
REMARK    6  A    between atoms: C_22  and  C_23
REMARK    7  A    between atoms: C_25  and  O_26
REMARK    8  A    between atoms: O_26  and  C_27
REMARK    9  A    between atoms: C_27  and  C_28
REMARK   10  A    between atoms: C_30  and  C_31
REMARK   11  A    between atoms: C_30  and  C_32
REMARK                            x       y       z     vdW  Elec       q    Type
REMARK                         _______ _______ _______ _____ _____    ______ ____
ROOT
ATOM      1  C   UNL     1      -3.353  11.278  17.465  0.00  0.00    +0.000 A 
ATOM      2  C   UNL     1      -1.970  11.464  17.508  0.00  0.00    +0.000 A 
ATOM      3  C   UNL     1      -1.365  12.093  18.599  0.00  0.00    +0.000 A 
ATOM      4  C   UNL     1      -2.127  12.620  19.646  0.00  0.00    +0.000 A 
ATOM      5  C   UNL     1      -3.517  12.374  19.633  0.00  0.00    +0.000 A 
ATOM      6  O   UNL     1      -4.237  12.797  20.728  0.00  0.00    +0.000 OA
ATOM      7  C   UNL     1      -5.597  12.567  20.767  0.00  0.00    +0.000 A 
ATOM      8  C   UNL     1      -6.296  11.944  19.814  0.00  0.00    +0.000 A 
ATOM      9  C   UNL     1      -5.589  11.445  18.625  0.00  0.00    +0.000 A 
ATOM     10  O   UNL     1      -6.229  10.827  17.787  0.00  0.00    +0.000 OA
ATOM     11  C   UNL     1      -4.129  11.708  18.556  0.00  0.00    +0.000 A 
ATOM     12  C   UNL     1      -1.440  13.378  20.771  0.00  0.00    +0.000 C 
ATOM     13  C   UNL     1       0.022  13.736  20.384  0.00  0.00    +0.000 C 
ATOM     14  C   UNL     1       0.686  12.483  19.756  0.00  0.00    +0.000 C 
ATOM     15  C   UNL     1       2.139  12.766  19.333  0.00  0.00    +0.000 C 
ATOM     16  C   UNL     1       0.726  11.260  20.696  0.00  0.00    +0.000 C 
ATOM     17  O   UNL     1       0.002  12.133  18.539  0.00  0.00    +0.000 OA
ENDROOT
BRANCH   7  18
ATOM     18  C   UNL     1      -6.265  13.079  21.963  0.00  0.00    +0.000 A 
ATOM     19  C   UNL     1      -7.328  12.380  22.544  0.00  0.00    +0.000 A 
ATOM     20  C   UNL     1      -7.916  12.847  23.722  0.00  0.00    +0.000 A 
ATOM     21  C   UNL     1      -7.447  14.016  24.320  0.00  0.00    +0.000 A 
ATOM     22  C   UNL     1      -6.412  14.736  23.727  0.00  0.00    +0.000 A 
ATOM     23  C   UNL     1      -5.829  14.275  22.548  0.00  0.00    +0.000 A 
ENDBRANCH   7  18
BRANCH   1  25
ATOM     24  C   UNL     1      -3.264  10.606  15.175  0.00  0.00    +0.000 C 
ATOM     25  O   UNL     1      -3.995  10.737  16.387  0.00  0.00    +0.000 OA
ENDBRANCH   1  25
BRANCH  12  26
ATOM     26  O   UNL     1      -2.177  14.591  21.039  0.00  0.00    +0.000 OA
BRANCH  26  27
ATOM     27  C   UNL     1      -2.247  14.975  22.343  0.00  0.00    +0.000 C 
ATOM     28  C   UNL     1      -2.229  13.788  23.258  0.00  0.00    +0.000 C 
ATOM     29  O   UNL     1      -2.284  16.133  22.740  0.00  0.00    +0.000 OA
ENDBRANCH  26  27
ENDBRANCH  12  26
BRANCH  13  30
ATOM     30  O   UNL     1       0.792  14.160  21.534  0.00  0.00    +0.000 OA
BRANCH  30  31
ATOM     31  C   UNL     1       1.313  15.420  21.491  0.00  0.00    +0.000 C 
ATOM     32  C   UNL     1       2.697  15.454  22.070  0.00  0.00    +0.000 C 
ATOM     33  O   UNL     1       0.742  16.408  21.057  0.00  0.00    +0.000 OA
ENDBRANCH  30  31
ENDBRANCH  13  30
TORSDOF 6
ENDMDL
MODEL 5
REMARK VINA RESULT:      -6.3      2.264      5.958
REMARK  Name = 
REMARK  11 active torsions:
REMARK  status: ('A' for Active; 'I' for Inactive)
REMARK    1  A    between atoms: C_1  and  O_2
REMARK    2  A    between atoms: O_2  and  C_3
REMARK    3  A    between atoms: C_9  and  C_10
REMARK    4  A    between atoms: C_20  and  O_21
REMARK    5  A    between atoms: O_21  and  C_22
REMARK    6  A    between atoms: C_22  and  C_23
REMARK    7  A    between atoms: C_25  and  O_26
REMARK    8  A    between atoms: O_26  and  C_27
REMARK    9  A    between atoms: C_27  and  C_28
REMARK   10  A    between atoms: C_30  and  C_31
REMARK   11  A    between atoms: C_30  and  C_32
REMARK                            x       y       z     vdW  Elec       q    Type
REMARK                         _______ _______ _______ _____ _____    ______ ____
ROOT
ATOM      1  C   UNL     1      -5.641  12.677  18.301  0.00  0.00    +0.000 A 
ATOM      2  C   UNL     1      -5.954  13.624  19.277  0.00  0.00    +0.000 A 
ATOM      3  C   UNL     1      -5.077  13.883  20.333  0.00  0.00    +0.000 A 
ATOM      4  C   UNL     1      -3.894  13.154  20.487  0.00  0.00    +0.000 A 
ATOM      5  C   UNL     1      -3.547  12.244  19.465  0.00  0.00    +0.000 A 
ATOM      6  O   UNL     1      -2.324  11.621  19.572  0.00  0.00    +0.000 OA
ATOM      7  C   UNL     1      -1.936  10.733  18.590  0.00  0.00    +0.000 A 
ATOM      8  C   UNL     1      -2.656  10.423  17.509  0.00  0.00    +0.000 A 
ATOM      9  C   UNL     1      -3.964  11.068  17.317  0.00  0.00    +0.000 A 
ATOM     10  O   UNL     1      -4.589  10.819  16.296  0.00  0.00    +0.000 OA
ATOM     11  C   UNL     1      -4.409  12.006  18.379  0.00  0.00    +0.000 A 
ATOM     12  C   UNL     1      -3.009  13.401  21.699  0.00  0.00    +0.000 C 
ATOM     13  C   UNL     1      -3.765  14.227  22.776  0.00  0.00    +0.000 C 
ATOM     14  C   UNL     1      -4.490  15.405  22.075  0.00  0.00    +0.000 C 
ATOM     15  C   UNL     1      -5.275  16.265  23.082  0.00  0.00    +0.000 C 
ATOM     16  C   UNL     1      -3.541  16.360  21.319  0.00  0.00    +0.000 C 
ATOM     17  O   UNL     1      -5.481  14.891  21.167  0.00  0.00    +0.000 OA
ENDROOT
BRANCH   7  18
ATOM     18  C   UNL     1      -0.631  10.111  18.816  0.00  0.00    +0.000 A 
ATOM     19  C   UNL     1      -0.216   9.766  20.107  0.00  0.00    +0.000 A 
ATOM     20  C   UNL     1       1.003   9.114  20.303  0.00  0.00    +0.000 A 
ATOM     21  C   UNL     1       1.815   8.810  19.211  0.00  0.00    +0.000 A 
ATOM     22  C   UNL     1       1.424   9.181  17.926  0.00  0.00    +0.000 A 
ATOM     23  C   UNL     1       0.210   9.838  17.730  0.00  0.00    +0.000 A 
ENDBRANCH   7  18
BRANCH   1  25
ATOM     24  C   UNL     1      -7.180  13.387  16.619  0.00  0.00    +0.000 C 
ATOM     25  O   UNL     1      -6.501  12.338  17.295  0.00  0.00    +0.000 OA
ENDBRANCH   1  25
BRANCH  12  26
ATOM     26  O   UNL     1      -2.613  12.129  22.258  0.00  0.00    +0.000 OA
BRANCH  26  27
ATOM     27  C   UNL     1      -1.308  12.019  22.632  0.00  0.00    +0.000 C 
ATOM     28  C   UNL     1      -0.475  13.099  22.013  0.00  0.00    +0.000 C 
ATOM     29  O   UNL     1      -0.861  11.177  23.400  0.00  0.00    +0.000 OA
ENDBRANCH  26  27
ENDBRANCH  12  26
BRANCH  13  30
ATOM     30  O   UNL     1      -2.863  14.749  23.782  0.00  0.00    +0.000 OA
BRANCH  30  31
ATOM     31  C   UNL     1      -3.097  14.370  25.071  0.00  0.00    +0.000 C 
ATOM     32  C   UNL     1      -4.015  13.185  25.128  0.00  0.00    +0.000 C 
ATOM     33  O   UNL     1      -2.642  14.916  26.064  0.00  0.00    +0.000 OA
ENDBRANCH  30  31
ENDBRANCH  13  30
TORSDOF 6
ENDMDL
MODEL 6
REMARK VINA RESULT:      -6.3      3.241      6.731
REMARK  Name = 
REMARK  11 active torsions:
REMARK  status: ('A' for Active; 'I' for Inactive)
REMARK    1  A    between atoms: C_1  and  O_2
REMARK    2  A    between atoms: O_2  and  C_3
REMARK    3  A    between atoms: C_9  and  C_10
REMARK    4  A    between atoms: C_20  and  O_21
REMARK    5  A    between atoms: O_21  and  C_22
REMARK    6  A    between atoms: C_22  and  C_23
REMARK    7  A    between atoms: C_25  and  O_26
REMARK    8  A    between atoms: O_26  and  C_27
REMARK    9  A    between atoms: C_27  and  C_28
REMARK   10  A    between atoms: C_30  and  C_31
REMARK   11  A    between atoms: C_30  and  C_32
REMARK                            x       y       z     vdW  Elec       q    Type
REMARK                         _______ _______ _______ _____ _____    ______ ____
ROOT
ATOM      1  C   UNL     1       0.089  10.961  21.122  0.00  0.00    +0.000 A 
ATOM      2  C   UNL     1      -0.893  10.896  22.112  0.00  0.00    +0.000 A 
ATOM      3  C   UNL     1      -1.656  12.020  22.441  0.00  0.00    +0.000 A 
ATOM      4  C   UNL     1      -1.414  13.260  21.843  0.00  0.00    +0.000 A 
ATOM      5  C   UNL     1      -0.467  13.310  20.796  0.00  0.00    +0.000 A 
ATOM      6  O   UNL     1      -0.325  14.511  20.139  0.00  0.00    +0.000 OA
ATOM      7  C   UNL     1       0.578  14.604  19.100  0.00  0.00    +0.000 A 
ATOM      8  C   UNL     1       1.341  13.602  18.656  0.00  0.00    +0.000 A 
ATOM      9  C   UNL     1       1.227  12.284  19.297  0.00  0.00    +0.000 A 
ATOM     10  O   UNL     1       1.890  11.361  18.846  0.00  0.00    +0.000 OA
ATOM     11  C   UNL     1       0.278  12.173  20.435  0.00  0.00    +0.000 A 
ATOM     12  C   UNL     1      -2.203  14.479  22.291  0.00  0.00    +0.000 C 
ATOM     13  C   UNL     1      -2.950  14.195  23.624  0.00  0.00    +0.000 C 
ATOM     14  C   UNL     1      -3.633  12.807  23.520  0.00  0.00    +0.000 C 
ATOM     15  C   UNL     1      -4.385  12.449  24.814  0.00  0.00    +0.000 C 
ATOM     16  C   UNL     1      -4.655  12.700  22.367  0.00  0.00    +0.000 C 
ATOM     17  O   UNL     1      -2.631  11.785  23.372  0.00  0.00    +0.000 OA
ENDROOT
BRANCH   7  18
ATOM     18  C   UNL     1       0.666  15.931  18.490  0.00  0.00    +0.000 A 
ATOM     19  C   UNL     1       1.902  16.465  18.111  0.00  0.00    +0.000 A 
ATOM     20  C   UNL     1       1.966  17.704  17.471  0.00  0.00    +0.000 A 
ATOM     21  C   UNL     1       0.796  18.418  17.213  0.00  0.00    +0.000 A 
ATOM     22  C   UNL     1      -0.435  17.908  17.618  0.00  0.00    +0.000 A 
ATOM     23  C   UNL     1      -0.500  16.673  18.263  0.00  0.00    +0.000 A 
ENDBRANCH   7  18
BRANCH   1  25
ATOM     24  C   UNL     1       1.261   9.021  21.871  0.00  0.00    +0.000 C 
ATOM     25  O   UNL     1       0.910   9.911  20.821  0.00  0.00    +0.000 OA
ENDBRANCH   1  25
BRANCH  12  26
ATOM     26  O   UNL     1      -1.294  15.586  22.476  0.00  0.00    +0.000 OA
BRANCH  26  27
ATOM     27  C   UNL     1      -1.641  16.755  21.872  0.00  0.00    +0.000 C 
ATOM     28  C   UNL     1      -0.486  17.708  21.833  0.00  0.00    +0.000 C 
ATOM     29  O   UNL     1      -2.738  17.003  21.387  0.00  0.00    +0.000 OA
ENDBRANCH  26  27
ENDBRANCH  12  26
BRANCH  13  30
ATOM     30  O   UNL     1      -3.951  15.203  23.903  0.00  0.00    +0.000 OA
BRANCH  30  31
ATOM     31  C   UNL     1      -3.701  16.041  24.950  0.00  0.00    +0.000 C 
ATOM     32  C   UNL     1      -2.480  15.612  25.707  0.00  0.00    +0.000 C 
ATOM     33  O   UNL     1      -4.377  17.011  25.258  0.00  0.00    +0.000 OA
ENDBRANCH  30  31
ENDBRANCH  13  30
TORSDOF 6
ENDMDL
MODEL 7
REMARK VINA RESULT:      -6.2      1.669      5.565
REMARK  Name = 
REMARK  11 active torsions:
REMARK  status: ('A' for Active; 'I' for Inactive)
REMARK    1  A    between atoms: C_1  and  O_2
REMARK    2  A    between atoms: O_2  and  C_3
REMARK    3  A    between atoms: C_9  and  C_10
REMARK    4  A    between atoms: C_20  and  O_21
REMARK    5  A    between atoms: O_21  and  C_22
REMARK    6  A    between atoms: C_22  and  C_23
REMARK    7  A    between atoms: C_25  and  O_26
REMARK    8  A    between atoms: O_26  and  C_27
REMARK    9  A    between atoms: C_27  and  C_28
REMARK   10  A    between atoms: C_30  and  C_31
REMARK   11  A    between atoms: C_30  and  C_32
REMARK                            x       y       z     vdW  Elec       q    Type
REMARK                         _______ _______ _______ _____ _____    ______ ____
ROOT
ATOM      1  C   UNL     1      -5.846  13.498  22.434  0.00  0.00    +0.000 A 
ATOM      2  C   UNL     1      -5.028  14.480  22.994  0.00  0.00    +0.000 A 
ATOM      3  C   UNL     1      -3.796  14.802  22.418  0.00  0.00    +0.000 A 
ATOM      4  C   UNL     1      -3.312  14.105  21.308  0.00  0.00    +0.000 A 
ATOM      5  C   UNL     1      -4.168  13.158  20.703  0.00  0.00    +0.000 A 
ATOM      6  O   UNL     1      -3.723  12.565  19.543  0.00  0.00    +0.000 OA
ATOM      7  C   UNL     1      -4.531  11.644  18.908  0.00  0.00    +0.000 A 
ATOM      8  C   UNL     1      -5.744  11.273  19.325  0.00  0.00    +0.000 A 
ATOM      9  C   UNL     1      -6.293  11.881  20.547  0.00  0.00    +0.000 A 
ATOM     10  O   UNL     1      -7.426  11.576  20.888  0.00  0.00    +0.000 OA
ATOM     11  C   UNL     1      -5.425  12.856  21.256  0.00  0.00    +0.000 A 
ATOM     12  C   UNL     1      -1.928  14.422  20.764  0.00  0.00    +0.000 C 
ATOM     13  C   UNL     1      -1.119  15.279  21.777  0.00  0.00    +0.000 C 
ATOM     14  C   UNL     1      -2.036  16.410  22.309  0.00  0.00    +0.000 C 
ATOM     15  C   UNL     1      -1.305  17.296  23.332  0.00  0.00    +0.000 C 
ATOM     16  C   UNL     1      -2.570  17.350  21.207  0.00  0.00    +0.000 C 
ATOM     17  O   UNL     1      -3.141  15.836  23.030  0.00  0.00    +0.000 OA
ENDROOT
BRANCH   7  18
ATOM     18  C   UNL     1      -3.951  11.059  17.699  0.00  0.00    +0.000 A 
ATOM     19  C   UNL     1      -4.495  11.330  16.440  0.00  0.00    +0.000 A 
ATOM     20  C   UNL     1      -3.894  10.818  15.288  0.00  0.00    +0.000 A 
ATOM     21  C   UNL     1      -2.749  10.027  15.392  0.00  0.00    +0.000 A 
ATOM     22  C   UNL     1      -2.222   9.725  16.645  0.00  0.00    +0.000 A 
ATOM     23  C   UNL     1      -2.826  10.231  17.796  0.00  0.00    +0.000 A 
ENDBRANCH   7  18
BRANCH   1  25
ATOM     24  C   UNL     1      -7.634  13.968  23.945  0.00  0.00    +0.000 C 
ATOM     25  O   UNL     1      -7.021  13.097  23.005  0.00  0.00    +0.000 OA
ENDBRANCH   1  25
BRANCH  12  26
ATOM     26  O   UNL     1      -1.227  13.185  20.512  0.00  0.00    +0.000 OA
BRANCH  26  27
ATOM     27  C   UNL     1      -0.537  13.113  19.340  0.00  0.00    +0.000 C 
ATOM     28  C   UNL     1       0.193  11.810  19.221  0.00  0.00    +0.000 C 
ATOM     29  O   UNL     1      -0.530  13.974  18.470  0.00  0.00    +0.000 OA
ENDBRANCH  26  27
ENDBRANCH  12  26
BRANCH  13  30
ATOM     30  O   UNL     1       0.057  15.862  21.166  0.00  0.00    +0.000 OA
BRANCH  30  31
ATOM     31  C   UNL     1       1.259  15.312  21.503  0.00  0.00    +0.000 C 
ATOM     32  C   UNL     1       2.263  15.487  20.402  0.00  0.00    +0.000 C 
ATOM     33  O   UNL     1       1.505  14.735  22.551  0.00  0.00    +0.000 OA
ENDBRANCH  30  31
ENDBRANCH  13  30
TORSDOF 6
ENDMDL
MODEL 8
REMARK VINA RESULT:      -6.2      2.303      5.861
REMARK  Name = 
REMARK  11 active torsions:
REMARK  status: ('A' for Active; 'I' for Inactive)
REMARK    1  A    between atoms: C_1  and  O_2
REMARK    2  A    between atoms: O_2  and  C_3
REMARK    3  A    between atoms: C_9  and  C_10
REMARK    4  A    between atoms: C_20  and  O_21
REMARK    5  A    between atoms: O_21  and  C_22
REMARK    6  A    between atoms: C_22  and  C_23
REMARK    7  A    between atoms: C_25  and  O_26
REMARK    8  A    between atoms: O_26  and  C_27
REMARK    9  A    between atoms: C_27  and  C_28
REMARK   10  A    between atoms: C_30  and  C_31
REMARK   11  A    between atoms: C_30  and  C_32
REMARK                            x       y       z     vdW  Elec       q    Type
REMARK                         _______ _______ _______ _____ _____    ______ ____
ROOT
ATOM      1  C   UNL     1      -5.637  12.721  18.412  0.00  0.00    +0.000 A 
ATOM      2  C   UNL     1      -5.886  13.726  19.347  0.00  0.00    +0.000 A 
ATOM      3  C   UNL     1      -4.959  14.019  20.352  0.00  0.00    +0.000 A 
ATOM      4  C   UNL     1      -3.789  13.268  20.497  0.00  0.00    +0.000 A 
ATOM      5  C   UNL     1      -3.507  12.296  19.513  0.00  0.00    +0.000 A 
ATOM      6  O   UNL     1      -2.296  11.647  19.604  0.00  0.00    +0.000 OA
ATOM      7  C   UNL     1      -1.969  10.699  18.656  0.00  0.00    +0.000 A 
ATOM      8  C   UNL     1      -2.741  10.351  17.624  0.00  0.00    +0.000 A 
ATOM      9  C   UNL     1      -4.040  11.018  17.450  0.00  0.00    +0.000 A 
ATOM     10  O   UNL     1      -4.713  10.731  16.471  0.00  0.00    +0.000 OA
ATOM     11  C   UNL     1      -4.418  12.023  18.477  0.00  0.00    +0.000 A 
ATOM     12  C   UNL     1      -2.849  13.556  21.657  0.00  0.00    +0.000 C 
ATOM     13  C   UNL     1      -3.539  14.458  22.717  0.00  0.00    +0.000 C 
ATOM     14  C   UNL     1      -4.264  15.615  21.983  0.00  0.00    +0.000 C 
ATOM     15  C   UNL     1      -4.986  16.547  22.973  0.00  0.00    +0.000 C 
ATOM     16  C   UNL     1      -3.326  16.503  21.138  0.00  0.00    +0.000 C 
ATOM     17  O   UNL     1      -5.304  15.079  21.145  0.00  0.00    +0.000 OA
ENDROOT
BRANCH   7  18
ATOM     18  C   UNL     1      -0.672  10.056  18.863  0.00  0.00    +0.000 A 
ATOM     19  C   UNL     1       0.166   9.769  17.781  0.00  0.00    +0.000 A 
ATOM     20  C   UNL     1       1.429   9.213  17.997  0.00  0.00    +0.000 A 
ATOM     21  C   UNL     1       1.857   8.937  19.295  0.00  0.00    +0.000 A 
ATOM     22  C   UNL     1       1.014   9.189  20.375  0.00  0.00    +0.000 A 
ATOM     23  C   UNL     1      -0.250   9.737  20.160  0.00  0.00    +0.000 A 
ENDBRANCH   7  18
BRANCH   1  25
ATOM     24  C   UNL     1      -7.226  13.379  16.756  0.00  0.00    +0.000 C 
ATOM     25  O   UNL     1      -6.546  12.350  17.461  0.00  0.00    +0.000 OA
ENDBRANCH   1  25
BRANCH  12  26
ATOM     26  O   UNL     1      -2.460  12.306  22.267  0.00  0.00    +0.000 OA
BRANCH  26  27
ATOM     27  C   UNL     1      -1.141  12.175  22.578  0.00  0.00    +0.000 C 
ATOM     28  C   UNL     1      -0.313  13.202  21.867  0.00  0.00    +0.000 C 
ATOM     29  O   UNL     1      -0.675  11.356  23.360  0.00  0.00    +0.000 OA
ENDBRANCH  26  27
ENDBRANCH  12  26
BRANCH  13  30
ATOM     30  O   UNL     1      -2.584  15.009  23.656  0.00  0.00    +0.000 OA
BRANCH  30  31
ATOM     31  C   UNL     1      -2.729  14.646  24.962  0.00  0.00    +0.000 C 
ATOM     32  C   UNL     1      -1.796  15.418  25.846  0.00  0.00    +0.000 C 
ATOM     33  O   UNL     1      -3.502  13.797  25.380  0.00  0.00    +0.000 OA
ENDBRANCH  30  31
ENDBRANCH  13  30
TORSDOF 6
ENDMDL
MODEL 9
REMARK VINA RESULT:      -6.1      1.455      1.577
REMARK  Name = 
REMARK  11 active torsions:
REMARK  status: ('A' for Active; 'I' for Inactive)
REMARK    1  A    between atoms: C_1  and  O_2
REMARK    2  A    between atoms: O_2  and  C_3
REMARK    3  A    between atoms: C_9  and  C_10
REMARK    4  A    between atoms: C_20  and  O_21
REMARK    5  A    between atoms: O_21  and  C_22
REMARK    6  A    between atoms: C_22  and  C_23
REMARK    7  A    between atoms: C_25  and  O_26
REMARK    8  A    between atoms: O_26  and  C_27
REMARK    9  A    between atoms: C_27  and  C_28
REMARK   10  A    between atoms: C_30  and  C_31
REMARK   11  A    between atoms: C_30  and  C_32
REMARK                            x       y       z     vdW  Elec       q    Type
REMARK                         _______ _______ _______ _____ _____    ______ ____
ROOT
ATOM      1  C   UNL     1      -3.488  10.843  17.119  0.00  0.00    +0.000 A 
ATOM      2  C   UNL     1      -2.139  10.485  17.124  0.00  0.00    +0.000 A 
ATOM      3  C   UNL     1      -1.288  10.909  18.148  0.00  0.00    +0.000 A 
ATOM      4  C   UNL     1      -1.739  11.763  19.158  0.00  0.00    +0.000 A 
ATOM      5  C   UNL     1      -3.117  12.071  19.189  0.00  0.00    +0.000 A 
ATOM      6  O   UNL     1      -3.567  12.817  20.256  0.00  0.00    +0.000 OA
ATOM      7  C   UNL     1      -4.908  13.131  20.336  0.00  0.00    +0.000 A 
ATOM      8  C   UNL     1      -5.836  12.758  19.452  0.00  0.00    +0.000 A 
ATOM      9  C   UNL     1      -5.432  11.942  18.298  0.00  0.00    +0.000 A 
ATOM     10  O   UNL     1      -6.299  11.560  17.526  0.00  0.00    +0.000 OA
ATOM     11  C   UNL     1      -3.987  11.616  18.182  0.00  0.00    +0.000 A 
ATOM     12  C   UNL     1      -0.762  12.277  20.203  0.00  0.00    +0.000 C 
ATOM     13  C   UNL     1       0.705  12.015  19.764  0.00  0.00    +0.000 C 
ATOM     14  C   UNL     1       0.809  10.561  19.233  0.00  0.00    +0.000 C 
ATOM     15  C   UNL     1       2.237  10.231  18.765  0.00  0.00    +0.000 C 
ATOM     16  C   UNL     1       0.423   9.488  20.274  0.00  0.00    +0.000 C 
ATOM     17  O   UNL     1      -0.014  10.415  18.062  0.00  0.00    +0.000 OA
ENDROOT
BRANCH   7  18
ATOM     18  C   UNL     1      -5.271  13.946  21.496  0.00  0.00    +0.000 A 
ATOM     19  C   UNL     1      -6.275  14.915  21.403  0.00  0.00    +0.000 A 
ATOM     20  C   UNL     1      -6.658  15.643  22.532  0.00  0.00    +0.000 A 
ATOM     21  C   UNL     1      -6.033  15.408  23.757  0.00  0.00    +0.000 A 
ATOM     22  C   UNL     1      -5.009  14.469  23.849  0.00  0.00    +0.000 A 
ATOM     23  C   UNL     1      -4.622  13.747  22.720  0.00  0.00    +0.000 A 
ENDBRANCH   7  18
BRANCH   1  25
ATOM     24  C   UNL     1      -3.780  10.295  14.814  0.00  0.00    +0.000 C 
ATOM     25  O   UNL     1      -4.339  10.516  16.102  0.00  0.00    +0.000 OA
ENDBRANCH   1  25
BRANCH  12  26
ATOM     26  O   UNL     1      -0.965  13.695  20.380  0.00  0.00    +0.000 OA
BRANCH  26  27
ATOM     27  C   UNL     1      -1.082  14.129  21.665  0.00  0.00    +0.000 C 
ATOM     28  C   UNL     1      -1.521  15.561  21.714  0.00  0.00    +0.000 C 
ATOM     29  O   UNL     1      -0.893  13.446  22.663  0.00  0.00    +0.000 OA
ENDBRANCH  26  27
ENDBRANCH  12  26
BRANCH  13  30
ATOM     30  O   UNL     1       1.634  12.191  20.862  0.00  0.00    +0.000 OA
BRANCH  30  31
ATOM     31  C   UNL     1       2.299  13.381  20.915  0.00  0.00    +0.000 C 
ATOM     32  C   UNL     1       2.781  13.794  19.556  0.00  0.00    +0.000 C 
ATOM     33  O   UNL     1       2.500  14.035  21.927  0.00  0.00    +0.000 OA
ENDBRANCH  30  31
ENDBRANCH  13  30
TORSDOF 6
ENDMDL
