MODEL 1
REMARK VINA RESULT:      -6.7      0.000      0.000
REMARK  Name = 
REMARK  11 active torsions:
REMARK  status: ('A' for Active; 'I' for Inactive)
REMARK    1  A    between atoms: C_1  and  C_2
REMARK    2  A    between atoms: C_3  and  C_4
REMARK    3  A    between atoms: C_7  and  C_8
REMARK    4  A    between atoms: C_8  and  C_9
REMARK    5  A    between atoms: C_8  and  C_12
REMARK    6  A    between atoms: C_9  and  C_10
REMARK    7  A    between atoms: C_9  and  C_11
REMARK    8  A    between atoms: N_15  and  C_16
REMARK    9  A    between atoms: N_19  and  C_20
REMARK   10  A    between atoms: N_23  and  C_24
REMARK   11  A    between atoms: C_24  and  C_25
REMARK                            x       y       z     vdW  Elec       q    Type
REMARK                         _______ _______ _______ _____ _____    ______ ____
ROOT
ATOM      1  C   UNL     1       0.772   9.353  18.043  0.00  0.00    +0.000 C 
ATOM      2  C   UNL     1       0.449  10.051  19.327  0.00  0.00    +0.000 A 
ATOM      3  C   UNL     1       0.725   9.617  20.628  0.00  0.00    +0.000 A 
ATOM      4  C   UNL     1       1.364   8.412  21.169  0.00  0.00    +0.000 C 
ATOM      5  N   UNL     1       0.278  10.600  21.445  0.00  0.00    +0.000 N 
ATOM      6  O   UNL     1       0.381  10.683  22.689  0.00  0.00    +0.000 OA
ATOM      7  C   UNL     1      -0.273  11.569  20.761  0.00  0.00    +0.000 A 
ATOM      8  N   UNL     1      -0.243  11.271  19.405  0.00  0.00    +0.000 N 
ENDROOT
BRANCH   7   9
ATOM      9  C   UNL     1      -0.867  12.852  21.394  0.00  0.00    +0.000 C 
BRANCH   9  10
ATOM     10  C   UNL     1      -0.031  14.168  21.109  0.00  0.00    +0.000 C 
ATOM     11  C   UNL     1      -0.699  15.155  20.183  0.00  0.00    +0.000 C 
ATOM     12  O   UNL     1      -1.930  15.217  20.108  0.00  0.00    +0.000 OA
ATOM     13  N   UNL     1       0.132  16.084  19.569  0.00  0.00    +0.000 N 
ATOM     14  C   UNL     1      -0.459  17.190  18.831  0.00  0.00    +0.000 C 
ATOM     15  C   UNL     1       1.521  16.066  19.584  0.00  0.00    +0.000 C 
ATOM     16  O   UNL     1       2.179  16.963  19.048  0.00  0.00    +0.000 OA
ATOM     17  N   UNL     1       2.123  15.005  20.219  0.00  0.00    +0.000 N 
ATOM     18  C   UNL     1       3.576  14.917  20.223  0.00  0.00    +0.000 C 
ATOM     19  C   UNL     1       1.466  14.007  20.911  0.00  0.00    +0.000 C 
ATOM     20  O   UNL     1       2.124  13.141  21.491  0.00  0.00    +0.000 OA
ENDBRANCH   9  10
BRANCH   9  21
ATOM     21  C   UNL     1      -1.222  12.679  22.922  0.00  0.00    +0.000 C 
ATOM     22  C   UNL     1      -1.159  14.006  23.706  0.00  0.00    +0.000 C 
ATOM     23  C   UNL     1      -2.589  12.058  23.205  0.00  0.00    +0.000 C 
ENDBRANCH   9  21
ENDBRANCH   7   9
BRANCH   8  24
ATOM     24  C   UNL     1      -0.795  11.996  18.257  0.00  0.00    +0.000 C 
BRANCH  24  25
ATOM     25  C   UNL     1      -2.246  11.675  17.941  0.00  0.00    +0.000 A 
ATOM     26  C   UNL     1      -3.310  11.897  18.830  0.00  0.00    +0.000 A 
ATOM     27  C   UNL     1      -4.634  11.661  18.450  0.00  0.00    +0.000 A 
ATOM     28  C   UNL     1      -4.918  11.166  17.183  0.00  0.00    +0.000 A 
ATOM     29  C   UNL     1      -3.877  10.883  16.304  0.00  0.00    +0.000 A 
ATOM     30  C   UNL     1      -2.552  11.133  16.680  0.00  0.00    +0.000 A 
ENDBRANCH  24  25
ENDBRANCH   8  24
TORSDOF 5
ENDMDL
MODEL 2
REMARK VINA RESULT:      -6.5      2.610      4.245
REMARK  Name = 
REMARK  11 active torsions:
REMARK  status: ('A' for Active; 'I' for Inactive)
REMARK    1  A    between atoms: C_1  and  C_2
REMARK    2  A    between atoms: C_3  and  C_4
REMARK    3  A    between atoms: C_7  and  C_8
REMARK    4  A    between atoms: C_8  and  C_9
REMARK    5  A    between atoms: C_8  and  C_12
REMARK    6  A    between atoms: C_9  and  C_10
REMARK    7  A    between atoms: C_9  and  C_11
REMARK    8  A    between atoms: N_15  and  C_16
REMARK    9  A    between atoms: N_19  and  C_20
REMARK   10  A    between atoms: N_23  and  C_24
REMARK   11  A    between atoms: C_24  and  C_25
REMARK                            x       y       z     vdW  Elec       q    Type
REMARK                         _______ _______ _______ _____ _____    ______ ____
ROOT
ATOM      1  C   UNL     1       0.352   9.950  18.700  0.00  0.00    +0.000 C 
ATOM      2  C   UNL     1      -0.060  10.469  20.041  0.00  0.00    +0.000 A 
ATOM      3  C   UNL     1       0.151   9.873  21.290  0.00  0.00    +0.000 A 
ATOM      4  C   UNL     1       0.784   8.617  21.707  0.00  0.00    +0.000 C 
ATOM      5  N   UNL     1      -0.364  10.734  22.199  0.00  0.00    +0.000 N 
ATOM      6  O   UNL     1      -0.335  10.655  23.447  0.00  0.00    +0.000 OA
ATOM      7  C   UNL     1      -0.896  11.776  21.615  0.00  0.00    +0.000 A 
ATOM      8  N   UNL     1      -0.782  11.659  20.236  0.00  0.00    +0.000 N 
ENDROOT
BRANCH   7   9
ATOM      9  C   UNL     1      -1.554  12.957  22.372  0.00  0.00    +0.000 C 
BRANCH   9  10
ATOM     10  C   UNL     1      -3.103  13.134  22.086  0.00  0.00    +0.000 C 
ATOM     11  C   UNL     1      -3.470  14.397  21.345  0.00  0.00    +0.000 C 
ATOM     12  O   UNL     1      -2.668  14.932  20.574  0.00  0.00    +0.000 OA
ATOM     13  N   UNL     1      -4.793  14.810  21.449  0.00  0.00    +0.000 N 
ATOM     14  C   UNL     1      -5.268  15.894  20.602  0.00  0.00    +0.000 C 
ATOM     15  C   UNL     1      -5.744  14.279  22.310  0.00  0.00    +0.000 C 
ATOM     16  O   UNL     1      -6.912  14.679  22.299  0.00  0.00    +0.000 OA
ATOM     17  N   UNL     1      -5.323  13.293  23.172  0.00  0.00    +0.000 N 
ATOM     18  C   UNL     1      -6.271  12.736  24.124  0.00  0.00    +0.000 C 
ATOM     19  C   UNL     1      -4.061  12.732  23.193  0.00  0.00    +0.000 C 
ATOM     20  O   UNL     1      -3.825  11.809  23.975  0.00  0.00    +0.000 OA
ENDBRANCH   9  10
BRANCH   9  21
ATOM     21  C   UNL     1      -0.753  14.308  22.222  0.00  0.00    +0.000 C 
ATOM     22  C   UNL     1      -0.763  15.157  23.510  0.00  0.00    +0.000 C 
ATOM     23  C   UNL     1       0.708  14.153  21.800  0.00  0.00    +0.000 C 
ENDBRANCH   9  21
ENDBRANCH   7   9
BRANCH   8  24
ATOM     24  C   UNL     1      -1.284  12.519  19.161  0.00  0.00    +0.000 C 
BRANCH  24  25
ATOM     25  C   UNL     1      -2.438  11.936  18.365  0.00  0.00    +0.000 A 
ATOM     26  C   UNL     1      -3.755  11.844  18.846  0.00  0.00    +0.000 A 
ATOM     27  C   UNL     1      -4.792  11.375  18.035  0.00  0.00    +0.000 A 
ATOM     28  C   UNL     1      -4.527  10.956  16.737  0.00  0.00    +0.000 A 
ATOM     29  C   UNL     1      -3.221  10.983  16.257  0.00  0.00    +0.000 A 
ATOM     30  C   UNL     1      -2.185  11.465  17.064  0.00  0.00    +0.000 A 
ENDBRANCH  24  25
ENDBRANCH   8  24
TORSDOF 5
ENDMDL
MODEL 3
REMARK VINA RESULT:      -6.5      1.385      4.116
REMARK  Name = 
REMARK  11 active torsions:
REMARK  status: ('A' for Active; 'I' for Inactive)
REMARK    1  A    between atoms: C_1  and  C_2
REMARK    2  A    between atoms: C_3  and  C_4
REMARK    3  A    between atoms: C_7  and  C_8
REMARK    4  A    between atoms: C_8  and  C_9
REMARK    5  A    between atoms: C_8  and  C_12
REMARK    6  A    between atoms: C_9  and  C_10
REMARK    7  A    between atoms: C_9  and  C_11
REMARK    8  A    between atoms: N_15  and  C_16
REMARK    9  A    between atoms: N_19  and  C_20
REMARK   10  A    between atoms: N_23  and  C_24
REMARK   11  A    between atoms: C_24  and  C_25
REMARK                            x       y       z     vdW  Elec       q    Type
REMARK                         _______ _______ _______ _____ _____    ______ ____
ROOT
ATOM      1  C   UNL     1      -1.672   9.781  17.133  0.00  0.00    +0.000 C 
ATOM      2  C   UNL     1      -1.900  10.875  18.127  0.00  0.00    +0.000 A 
ATOM      3  C   UNL     1      -3.124  11.416  18.537  0.00  0.00    +0.000 A 
ATOM      4  C   UNL     1      -4.516  11.145  18.161  0.00  0.00    +0.000 C 
ATOM      5  N   UNL     1      -2.819  12.347  19.472  0.00  0.00    +0.000 N 
ATOM      6  O   UNL     1      -3.600  13.032  20.170  0.00  0.00    +0.000 OA
ATOM      7  C   UNL     1      -1.526  12.442  19.639  0.00  0.00    +0.000 A 
ATOM      8  N   UNL     1      -0.869  11.567  18.785  0.00  0.00    +0.000 N 
ENDROOT
BRANCH   7   9
ATOM      9  C   UNL     1      -0.848  13.401  20.650  0.00  0.00    +0.000 C 
BRANCH   9  10
ATOM     10  C   UNL     1       0.437  14.139  20.089  0.00  0.00    +0.000 C 
ATOM     11  C   UNL     1       1.719  13.828  20.823  0.00  0.00    +0.000 C 
ATOM     12  O   UNL     1       1.870  12.744  21.396  0.00  0.00    +0.000 OA
ATOM     13  N   UNL     1       2.755  14.740  20.669  0.00  0.00    +0.000 N 
ATOM     14  C   UNL     1       4.078  14.406  21.174  0.00  0.00    +0.000 C 
ATOM     15  C   UNL     1       2.656  15.987  20.063  0.00  0.00    +0.000 C 
ATOM     16  O   UNL     1       3.645  16.713  19.929  0.00  0.00    +0.000 OA
ATOM     17  N   UNL     1       1.410  16.370  19.626  0.00  0.00    +0.000 N 
ATOM     18  C   UNL     1       1.246  17.685  19.025  0.00  0.00    +0.000 C 
ATOM     19  C   UNL     1       0.272  15.587  19.662  0.00  0.00    +0.000 C 
ATOM     20  O   UNL     1      -0.775  16.024  19.181  0.00  0.00    +0.000 OA
ENDBRANCH   9  10
BRANCH   9  21
ATOM     21  C   UNL     1      -0.595  12.734  22.058  0.00  0.00    +0.000 C 
ATOM     22  C   UNL     1      -1.070  13.614  23.232  0.00  0.00    +0.000 C 
ATOM     23  C   UNL     1      -1.229  11.356  22.247  0.00  0.00    +0.000 C 
ENDBRANCH   9  21
ENDBRANCH   7   9
BRANCH   8  24
ATOM     24  C   UNL     1       0.562  11.361  18.546  0.00  0.00    +0.000 C 
BRANCH  24  25
ATOM     25  C   UNL     1       1.104  10.029  19.035  0.00  0.00    +0.000 A 
ATOM     26  C   UNL     1       0.887   9.520  20.326  0.00  0.00    +0.000 A 
ATOM     27  C   UNL     1       1.340   8.249  20.690  0.00  0.00    +0.000 A 
ATOM     28  C   UNL     1       2.048   7.474  19.779  0.00  0.00    +0.000 A 
ATOM     29  C   UNL     1       2.325   7.979  18.513  0.00  0.00    +0.000 A 
ATOM     30  C   UNL     1       1.861   9.247  18.144  0.00  0.00    +0.000 A 
ENDBRANCH  24  25
ENDBRANCH   8  24
TORSDOF 5
ENDMDL
MODEL 4
REMARK VINA RESULT:      -6.2      2.026      3.725
REMARK  Name = 
REMARK  11 active torsions:
REMARK  status: ('A' for Active; 'I' for Inactive)
REMARK    1  A    between atoms: C_1  and  C_2
REMARK    2  A    between atoms: C_3  and  C_4
REMARK    3  A    between atoms: C_7  and  C_8
REMARK    4  A    between atoms: C_8  and  C_9
REMARK    5  A    between atoms: C_8  and  C_12
REMARK    6  A    between atoms: C_9  and  C_10
REMARK    7  A    between atoms: C_9  and  C_11
REMARK    8  A    between atoms: N_15  and  C_16
REMARK    9  A    between atoms: N_19  and  C_20
REMARK   10  A    between atoms: N_23  and  C_24
REMARK   11  A    between atoms: C_24  and  C_25
REMARK                            x       y       z     vdW  Elec       q    Type
REMARK                         _______ _______ _______ _____ _____    ______ ____
ROOT
ATOM      1  C   UNL     1       0.629   9.481  18.006  0.00  0.00    +0.000 C 
ATOM      2  C   UNL     1       0.436  10.083  19.362  0.00  0.00    +0.000 A 
ATOM      3  C   UNL     1       0.751   9.515  20.601  0.00  0.00    +0.000 A 
ATOM      4  C   UNL     1       1.322   8.223  20.996  0.00  0.00    +0.000 C 
ATOM      5  N   UNL     1       0.430  10.452  21.526  0.00  0.00    +0.000 N 
ATOM      6  O   UNL     1       0.610  10.415  22.763  0.00  0.00    +0.000 OA
ATOM      7  C   UNL     1      -0.081  11.515  20.963  0.00  0.00    +0.000 A 
ATOM      8  N   UNL     1      -0.151  11.339  19.587  0.00  0.00    +0.000 N 
ENDROOT
BRANCH   7   9
ATOM      9  C   UNL     1      -0.535  12.777  21.739  0.00  0.00    +0.000 C 
BRANCH   9  10
ATOM     10  C   UNL     1      -2.096  13.046  21.692  0.00  0.00    +0.000 C 
ATOM     11  C   UNL     1      -2.494  14.364  21.075  0.00  0.00    +0.000 C 
ATOM     12  O   UNL     1      -1.783  14.901  20.220  0.00  0.00    +0.000 OA
ATOM     13  N   UNL     1      -3.763  14.835  21.391  0.00  0.00    +0.000 N 
ATOM     14  C   UNL     1      -4.293  15.986  20.676  0.00  0.00    +0.000 C 
ATOM     15  C   UNL     1      -4.608  14.304  22.357  0.00  0.00    +0.000 C 
ATOM     16  O   UNL     1      -5.741  14.761  22.537  0.00  0.00    +0.000 OA
ATOM     17  N   UNL     1      -4.123  13.253  23.100  0.00  0.00    +0.000 N 
ATOM     18  C   UNL     1      -4.954  12.692  24.155  0.00  0.00    +0.000 C 
ATOM     19  C   UNL     1      -2.905  12.631  22.909  0.00  0.00    +0.000 C 
ATOM     20  O   UNL     1      -2.611  11.656  23.603  0.00  0.00    +0.000 OA
ENDBRANCH   9  10
BRANCH   9  21
ATOM     21  C   UNL     1       0.310  14.060  21.378  0.00  0.00    +0.000 C 
ATOM     22  C   UNL     1       0.460  15.033  22.565  0.00  0.00    +0.000 C 
ATOM     23  C   UNL     1       1.717  13.783  20.847  0.00  0.00    +0.000 C 
ENDBRANCH   9  21
ENDBRANCH   7   9
BRANCH   8  24
ATOM     24  C   UNL     1      -0.710  12.203  18.543  0.00  0.00    +0.000 C 
BRANCH  24  25
ATOM     25  C   UNL     1      -2.073  11.776  18.025  0.00  0.00    +0.000 A 
ATOM     26  C   UNL     1      -3.246  11.797  18.797  0.00  0.00    +0.000 A 
ATOM     27  C   UNL     1      -4.486  11.472  18.240  0.00  0.00    +0.000 A 
ATOM     28  C   UNL     1      -4.573  11.088  16.907  0.00  0.00    +0.000 A 
ATOM     29  C   UNL     1      -3.416  11.004  16.137  0.00  0.00    +0.000 A 
ATOM     30  C   UNL     1      -2.176  11.341  16.692  0.00  0.00    +0.000 A 
ENDBRANCH  24  25
ENDBRANCH   8  24
TORSDOF 5
ENDMDL
MODEL 5
REMARK VINA RESULT:      -5.7      3.023      5.038
REMARK  Name = 
REMARK  11 active torsions:
REMARK  status: ('A' for Active; 'I' for Inactive)
REMARK    1  A    between atoms: C_1  and  C_2
REMARK    2  A    between atoms: C_3  and  C_4
REMARK    3  A    between atoms: C_7  and  C_8
REMARK    4  A    between atoms: C_8  and  C_9
REMARK    5  A    between atoms: C_8  and  C_12
REMARK    6  A    between atoms: C_9  and  C_10
REMARK    7  A    between atoms: C_9  and  C_11
REMARK    8  A    between atoms: N_15  and  C_16
REMARK    9  A    between atoms: N_19  and  C_20
REMARK   10  A    between atoms: N_23  and  C_24
REMARK   11  A    between atoms: C_24  and  C_25
REMARK                            x       y       z     vdW  Elec       q    Type
REMARK                         _______ _______ _______ _____ _____    ______ ____
ROOT
ATOM      1  C   UNL     1      -6.457  10.666  18.737  0.00  0.00    +0.000 C 
ATOM      2  C   UNL     1      -6.181  11.531  19.927  0.00  0.00    +0.000 A 
ATOM      3  C   UNL     1      -6.821  11.501  21.171  0.00  0.00    +0.000 A 
ATOM      4  C   UNL     1      -7.916  10.692  21.717  0.00  0.00    +0.000 C 
ATOM      5  N   UNL     1      -6.200  12.440  21.924  0.00  0.00    +0.000 N 
ATOM      6  O   UNL     1      -6.385  12.714  23.131  0.00  0.00    +0.000 OA
ATOM      7  C   UNL     1      -5.272  13.056  21.241  0.00  0.00    +0.000 A 
ATOM      8  N   UNL     1      -5.229  12.563  19.944  0.00  0.00    +0.000 N 
ENDROOT
BRANCH   7   9
ATOM      9  C   UNL     1      -4.363  14.172  21.816  0.00  0.00    +0.000 C 
BRANCH   9  10
ATOM     10  C   UNL     1      -2.868  13.722  22.088  0.00  0.00    +0.000 C 
ATOM     11  C   UNL     1      -1.878  14.142  21.029  0.00  0.00    +0.000 C 
ATOM     12  O   UNL     1      -2.069  15.158  20.354  0.00  0.00    +0.000 OA
ATOM     13  N   UNL     1      -0.684  13.432  20.985  0.00  0.00    +0.000 N 
ATOM     14  C   UNL     1       0.397  13.910  20.136  0.00  0.00    +0.000 C 
ATOM     15  C   UNL     1      -0.405  12.269  21.691  0.00  0.00    +0.000 C 
ATOM     16  O   UNL     1       0.704  11.731  21.625  0.00  0.00    +0.000 OA
ATOM     17  N   UNL     1      -1.419  11.747  22.460  0.00  0.00    +0.000 N 
ATOM     18  C   UNL     1      -1.191  10.506  23.182  0.00  0.00    +0.000 C 
ATOM     19  C   UNL     1      -2.658  12.328  22.653  0.00  0.00    +0.000 C 
ATOM     20  O   UNL     1      -3.462  11.791  23.418  0.00  0.00    +0.000 OA
ENDBRANCH   9  10
BRANCH   9  21
ATOM     21  C   UNL     1      -5.006  14.914  23.052  0.00  0.00    +0.000 C 
ATOM     22  C   UNL     1      -3.955  15.403  24.070  0.00  0.00    +0.000 C 
ATOM     23  C   UNL     1      -5.884  16.116  22.703  0.00  0.00    +0.000 C 
ENDBRANCH   9  21
ENDBRANCH   7   9
BRANCH   8  24
ATOM     24  C   UNL     1      -4.422  12.977  18.792  0.00  0.00    +0.000 C 
BRANCH  24  25
ATOM     25  C   UNL     1      -3.595  11.870  18.163  0.00  0.00    +0.000 A 
ATOM     26  C   UNL     1      -3.819  11.359  16.874  0.00  0.00    +0.000 A 
ATOM     27  C   UNL     1      -2.971  10.398  16.317  0.00  0.00    +0.000 A 
ATOM     28  C   UNL     1      -1.900   9.903  17.051  0.00  0.00    +0.000 A 
ATOM     29  C   UNL     1      -1.691  10.351  18.352  0.00  0.00    +0.000 A 
ATOM     30  C   UNL     1      -2.532  11.323  18.905  0.00  0.00    +0.000 A 
ENDBRANCH  24  25
ENDBRANCH   8  24
TORSDOF 5
ENDMDL
MODEL 6
REMARK VINA RESULT:      -5.7      3.026      4.748
REMARK  Name = 
REMARK  11 active torsions:
REMARK  status: ('A' for Active; 'I' for Inactive)
REMARK    1  A    between atoms: C_1  and  C_2
REMARK    2  A    between atoms: C_3  and  C_4
REMARK    3  A    between atoms: C_7  and  C_8
REMARK    4  A    between atoms: C_8  and  C_9
REMARK    5  A    between atoms: C_8  and  C_12
REMARK    6  A    between atoms: C_9  and  C_10
REMARK    7  A    between atoms: C_9  and  C_11
REMARK    8  A    between atoms: N_15  and  C_16
REMARK    9  A    between atoms: N_19  and  C_20
REMARK   10  A    between atoms: N_23  and  C_24
REMARK   11  A    between atoms: C_24  and  C_25
REMARK                            x       y       z     vdW  Elec       q    Type
REMARK                         _______ _______ _______ _____ _____    ______ ____
ROOT
ATOM      1  C   UNL     1      -0.682  10.540  18.616  0.00  0.00    +0.000 C 
ATOM      2  C   UNL     1      -0.877  10.960  20.038  0.00  0.00    +0.000 A 
ATOM      3  C   UNL     1      -0.370  10.345  21.188  0.00  0.00    +0.000 A 
ATOM      4  C   UNL     1       0.455   9.151  21.406  0.00  0.00    +0.000 C 
ATOM      5  N   UNL     1      -0.784  11.110  22.227  0.00  0.00    +0.000 N 
ATOM      6  O   UNL     1      -0.506  10.988  23.440  0.00  0.00    +0.000 OA
ATOM      7  C   UNL     1      -1.520  12.108  21.814  0.00  0.00    +0.000 A 
ATOM      8  N   UNL     1      -1.663  12.055  20.434  0.00  0.00    +0.000 N 
ENDROOT
BRANCH   7   9
ATOM      9  C   UNL     1      -2.135  13.180  22.748  0.00  0.00    +0.000 C 
BRANCH   9  10
ATOM     10  C   UNL     1      -3.660  13.501  22.459  0.00  0.00    +0.000 C 
ATOM     11  C   UNL     1      -3.929  14.897  21.952  0.00  0.00    +0.000 C 
ATOM     12  O   UNL     1      -3.071  15.513  21.313  0.00  0.00    +0.000 OA
ATOM     13  N   UNL     1      -5.230  15.365  22.095  0.00  0.00    +0.000 N 
ATOM     14  C   UNL     1      -5.613  16.612  21.449  0.00  0.00    +0.000 C 
ATOM     15  C   UNL     1      -6.240  14.746  22.820  0.00  0.00    +0.000 C 
ATOM     16  O   UNL     1      -7.383  15.213  22.852  0.00  0.00    +0.000 OA
ATOM     17  N   UNL     1      -5.907  13.597  23.498  0.00  0.00    +0.000 N 
ATOM     18  C   UNL     1      -6.919  12.936  24.307  0.00  0.00    +0.000 C 
ATOM     19  C   UNL     1      -4.679  12.965  23.449  0.00  0.00    +0.000 C 
ATOM     20  O   UNL     1      -4.523  11.903  24.055  0.00  0.00    +0.000 OA
ENDBRANCH   9  10
BRANCH   9  21
ATOM     21  C   UNL     1      -1.253  14.484  22.854  0.00  0.00    +0.000 C 
ATOM     22  C   UNL     1      -1.114  14.998  24.302  0.00  0.00    +0.000 C 
ATOM     23  C   UNL     1       0.161  14.360  22.287  0.00  0.00    +0.000 C 
ENDBRANCH   9  21
ENDBRANCH   7   9
BRANCH   8  24
ATOM     24  C   UNL     1      -2.448  12.895  19.524  0.00  0.00    +0.000 C 
BRANCH  24  25
ATOM     25  C   UNL     1      -3.714  12.246  18.991  0.00  0.00    +0.000 A 
ATOM     26  C   UNL     1      -3.782  11.536  17.782  0.00  0.00    +0.000 A 
ATOM     27  C   UNL     1      -4.956  10.889  17.386  0.00  0.00    +0.000 A 
ATOM     28  C   UNL     1      -6.096  10.967  18.176  0.00  0.00    +0.000 A 
ATOM     29  C   UNL     1      -6.070  11.713  19.351  0.00  0.00    +0.000 A 
ATOM     30  C   UNL     1      -4.891  12.350  19.754  0.00  0.00    +0.000 A 
ENDBRANCH  24  25
ENDBRANCH   8  24
TORSDOF 5
ENDMDL
MODEL 7
REMARK VINA RESULT:      -5.7      1.260      3.595
REMARK  Name = 
REMARK  11 active torsions:
REMARK  status: ('A' for Active; 'I' for Inactive)
REMARK    1  A    between atoms: C_1  and  C_2
REMARK    2  A    between atoms: C_3  and  C_4
REMARK    3  A    between atoms: C_7  and  C_8
REMARK    4  A    between atoms: C_8  and  C_9
REMARK    5  A    between atoms: C_8  and  C_12
REMARK    6  A    between atoms: C_9  and  C_10
REMARK    7  A    between atoms: C_9  and  C_11
REMARK    8  A    between atoms: N_15  and  C_16
REMARK    9  A    between atoms: N_19  and  C_20
REMARK   10  A    between atoms: N_23  and  C_24
REMARK   11  A    between atoms: C_24  and  C_25
REMARK                            x       y       z     vdW  Elec       q    Type
REMARK                         _______ _______ _______ _____ _____    ______ ____
ROOT
ATOM      1  C   UNL     1      -2.124  10.480  17.627  0.00  0.00    +0.000 C 
ATOM      2  C   UNL     1      -2.442  11.523  18.651  0.00  0.00    +0.000 A 
ATOM      3  C   UNL     1      -3.700  12.034  18.988  0.00  0.00    +0.000 A 
ATOM      4  C   UNL     1      -5.056  11.770  18.491  0.00  0.00    +0.000 C 
ATOM      5  N   UNL     1      -3.481  12.922  19.987  0.00  0.00    +0.000 N 
ATOM      6  O   UNL     1      -4.321  13.566  20.653  0.00  0.00    +0.000 OA
ATOM      7  C   UNL     1      -2.206  13.020  20.260  0.00  0.00    +0.000 A 
ATOM      8  N   UNL     1      -1.474  12.192  19.419  0.00  0.00    +0.000 N 
ENDROOT
BRANCH   7   9
ATOM      9  C   UNL     1      -1.620  13.934  21.365  0.00  0.00    +0.000 C 
BRANCH   9  10
ATOM     10  C   UNL     1      -0.481  14.915  20.864  0.00  0.00    +0.000 C 
ATOM     11  C   UNL     1      -0.868  15.795  19.700  0.00  0.00    +0.000 C 
ATOM     12  O   UNL     1      -2.045  16.127  19.524  0.00  0.00    +0.000 OA
ATOM     13  N   UNL     1       0.177  16.337  18.962  0.00  0.00    +0.000 N 
ATOM     14  C   UNL     1      -0.111  17.353  17.961  0.00  0.00    +0.000 C 
ATOM     15  C   UNL     1       1.518  15.995  19.082  0.00  0.00    +0.000 C 
ATOM     16  O   UNL     1       2.385  16.566  18.414  0.00  0.00    +0.000 OA
ATOM     17  N   UNL     1       1.829  14.995  19.973  0.00  0.00    +0.000 N 
ATOM     18  C   UNL     1       3.214  14.570  20.101  0.00  0.00    +0.000 C 
ATOM     19  C   UNL     1       0.934  14.365  20.815  0.00  0.00    +0.000 C 
ATOM     20  O   UNL     1       1.348  13.524  21.615  0.00  0.00    +0.000 OA
ENDBRANCH   9  10
BRANCH   9  21
ATOM     21  C   UNL     1      -1.207  13.142  22.666  0.00  0.00    +0.000 C 
ATOM     22  C   UNL     1      -1.232  14.019  23.934  0.00  0.00    +0.000 C 
ATOM     23  C   UNL     1      -2.048  11.901  22.965  0.00  0.00    +0.000 C 
ENDBRANCH   9  21
ENDBRANCH   7   9
BRANCH   8  24
ATOM     24  C   UNL     1      -0.026  12.009  19.284  0.00  0.00    +0.000 C 
BRANCH  24  25
ATOM     25  C   UNL     1       0.495  10.669  19.775  0.00  0.00    +0.000 A 
ATOM     26  C   UNL     1       0.268  10.165  21.066  0.00  0.00    +0.000 A 
ATOM     27  C   UNL     1       0.701   8.888  21.432  0.00  0.00    +0.000 A 
ATOM     28  C   UNL     1       1.401   8.102  20.524  0.00  0.00    +0.000 A 
ATOM     29  C   UNL     1       1.689   8.602  19.257  0.00  0.00    +0.000 A 
ATOM     30  C   UNL     1       1.243   9.876  18.887  0.00  0.00    +0.000 A 
ENDBRANCH  24  25
ENDBRANCH   8  24
TORSDOF 5
ENDMDL
MODEL 8
REMARK VINA RESULT:      -5.7      3.351      6.327
REMARK  Name = 
REMARK  11 active torsions:
REMARK  status: ('A' for Active; 'I' for Inactive)
REMARK    1  A    between atoms: C_1  and  C_2
REMARK    2  A    between atoms: C_3  and  C_4
REMARK    3  A    between atoms: C_7  and  C_8
REMARK    4  A    between atoms: C_8  and  C_9
REMARK    5  A    between atoms: C_8  and  C_12
REMARK    6  A    between atoms: C_9  and  C_10
REMARK    7  A    between atoms: C_9  and  C_11
REMARK    8  A    between atoms: N_15  and  C_16
REMARK    9  A    between atoms: N_19  and  C_20
REMARK   10  A    between atoms: N_23  and  C_24
REMARK   11  A    between atoms: C_24  and  C_25
REMARK                            x       y       z     vdW  Elec       q    Type
REMARK                         _______ _______ _______ _____ _____    ______ ____
ROOT
ATOM      1  C   UNL     1      -0.046  14.287  18.811  0.00  0.00    +0.000 C 
ATOM      2  C   UNL     1      -0.845  14.791  19.971  0.00  0.00    +0.000 A 
ATOM      3  C   UNL     1      -0.736  16.031  20.609  0.00  0.00    +0.000 A 
ATOM      4  C   UNL     1       0.140  17.191  20.404  0.00  0.00    +0.000 C 
ATOM      5  N   UNL     1      -1.690  16.035  21.570  0.00  0.00    +0.000 N 
ATOM      6  O   UNL     1      -2.014  16.966  22.339  0.00  0.00    +0.000 OA
ATOM      7  C   UNL     1      -2.340  14.901  21.594  0.00  0.00    +0.000 A 
ATOM      8  N   UNL     1      -1.829  14.038  20.633  0.00  0.00    +0.000 N 
ENDROOT
BRANCH   7   9
ATOM      9  C   UNL     1      -3.507  14.587  22.563  0.00  0.00    +0.000 C 
BRANCH   9  10
ATOM     10  C   UNL     1      -4.923  14.462  21.862  0.00  0.00    +0.000 C 
ATOM     11  C   UNL     1      -5.447  13.052  21.739  0.00  0.00    +0.000 C 
ATOM     12  O   UNL     1      -5.120  12.184  22.554  0.00  0.00    +0.000 OA
ATOM     13  N   UNL     1      -6.432  12.841  20.782  0.00  0.00    +0.000 N 
ATOM     14  C   UNL     1      -7.129  11.564  20.747  0.00  0.00    +0.000 C 
ATOM     15  C   UNL     1      -6.835  13.756  19.816  0.00  0.00    +0.000 C 
ATOM     16  O   UNL     1      -7.754  13.497  19.034  0.00  0.00    +0.000 OA
ATOM     17  N   UNL     1      -6.161  14.954  19.773  0.00  0.00    +0.000 N 
ATOM     18  C   UNL     1      -6.516  15.927  18.751  0.00  0.00    +0.000 C 
ATOM     19  C   UNL     1      -5.181  15.354  20.660  0.00  0.00    +0.000 C 
ATOM     20  O   UNL     1      -4.694  16.482  20.552  0.00  0.00    +0.000 OA
ENDBRANCH   9  10
BRANCH   9  21
ATOM     21  C   UNL     1      -3.538  15.540  23.821  0.00  0.00    +0.000 C 
ATOM     22  C   UNL     1      -4.959  16.027  24.170  0.00  0.00    +0.000 C 
ATOM     23  C   UNL     1      -2.941  14.949  25.098  0.00  0.00    +0.000 C 
ENDBRANCH   9  21
ENDBRANCH   7   9
BRANCH   8  24
ATOM     24  C   UNL     1      -2.167  12.645  20.326  0.00  0.00    +0.000 C 
BRANCH  24  25
ATOM     25  C   UNL     1      -1.394  11.612  21.127  0.00  0.00    +0.000 A 
ATOM     26  C   UNL     1      -1.478  11.479  22.522  0.00  0.00    +0.000 A 
ATOM     27  C   UNL     1      -0.808  10.453  23.195  0.00  0.00    +0.000 A 
ATOM     28  C   UNL     1      -0.013   9.559  22.488  0.00  0.00    +0.000 A 
ATOM     29  C   UNL     1       0.132   9.704  21.111  0.00  0.00    +0.000 A 
ATOM     30  C   UNL     1      -0.550  10.724  20.437  0.00  0.00    +0.000 A 
ENDBRANCH  24  25
ENDBRANCH   8  24
TORSDOF 5
ENDMDL
MODEL 9
REMARK VINA RESULT:      -5.7      2.612      5.703
REMARK  Name = 
REMARK  11 active torsions:
REMARK  status: ('A' for Active; 'I' for Inactive)
REMARK    1  A    between atoms: C_1  and  C_2
REMARK    2  A    between atoms: C_3  and  C_4
REMARK    3  A    between atoms: C_7  and  C_8
REMARK    4  A    between atoms: C_8  and  C_9
REMARK    5  A    between atoms: C_8  and  C_12
REMARK    6  A    between atoms: C_9  and  C_10
REMARK    7  A    between atoms: C_9  and  C_11
REMARK    8  A    between atoms: N_15  and  C_16
REMARK    9  A    between atoms: N_19  and  C_20
REMARK   10  A    between atoms: N_23  and  C_24
REMARK   11  A    between atoms: C_24  and  C_25
REMARK                            x       y       z     vdW  Elec       q    Type
REMARK                         _______ _______ _______ _____ _____    ______ ____
ROOT
ATOM      1  C   UNL     1       1.095  10.154  19.073  0.00  0.00    +0.000 C 
ATOM      2  C   UNL     1       0.238  10.714  20.164  0.00  0.00    +0.000 A 
ATOM      3  C   UNL     1      -0.265  10.044  21.284  0.00  0.00    +0.000 A 
ATOM      4  C   UNL     1      -0.160   8.658  21.755  0.00  0.00    +0.000 C 
ATOM      5  N   UNL     1      -0.948  10.975  21.993  0.00  0.00    +0.000 N 
ATOM      6  O   UNL     1      -1.503  10.850  23.107  0.00  0.00    +0.000 OA
ATOM      7  C   UNL     1      -0.933  12.133  21.387  0.00  0.00    +0.000 A 
ATOM      8  N   UNL     1      -0.235  12.037  20.191  0.00  0.00    +0.000 N 
ENDROOT
BRANCH   7   9
ATOM      9  C   UNL     1      -1.606  13.414  21.942  0.00  0.00    +0.000 C 
BRANCH   9  10
ATOM     10  C   UNL     1      -3.175  13.472  21.729  0.00  0.00    +0.000 C 
ATOM     11  C   UNL     1      -3.992  13.326  22.990  0.00  0.00    +0.000 C 
ATOM     12  O   UNL     1      -3.537  13.683  24.081  0.00  0.00    +0.000 OA
ATOM     13  N   UNL     1      -5.317  12.942  22.825  0.00  0.00    +0.000 N 
ATOM     14  C   UNL     1      -6.217  12.981  23.968  0.00  0.00    +0.000 C 
ATOM     15  C   UNL     1      -5.894  12.503  21.640  0.00  0.00    +0.000 C 
ATOM     16  O   UNL     1      -7.096  12.226  21.578  0.00  0.00    +0.000 OA
ATOM     17  N   UNL     1      -5.066  12.392  20.548  0.00  0.00    +0.000 N 
ATOM     18  C   UNL     1      -5.613  11.894  19.295  0.00  0.00    +0.000 C 
ATOM     19  C   UNL     1      -3.735  12.758  20.510  0.00  0.00    +0.000 C 
ATOM     20  O   UNL     1      -3.114  12.666  19.449  0.00  0.00    +0.000 OA
ENDBRANCH   9  10
BRANCH   9  21
ATOM     21  C   UNL     1      -0.884  14.739  21.480  0.00  0.00    +0.000 C 
ATOM     22  C   UNL     1      -1.873  15.855  21.086  0.00  0.00    +0.000 C 
ATOM     23  C   UNL     1       0.084  15.340  22.500  0.00  0.00    +0.000 C 
ENDBRANCH   9  21
ENDBRANCH   7   9
BRANCH   8  24
ATOM     24  C   UNL     1      -0.009  13.028  19.135  0.00  0.00    +0.000 C 
BRANCH  24  25
ATOM     25  C   UNL     1       1.239  13.875  19.313  0.00  0.00    +0.000 A 
ATOM     26  C   UNL     1       1.439  15.118  18.691  0.00  0.00    +0.000 A 
ATOM     27  C   UNL     1       2.572  15.890  18.960  0.00  0.00    +0.000 A 
ATOM     28  C   UNL     1       3.546  15.419  19.833  0.00  0.00    +0.000 A 
ATOM     29  C   UNL     1       3.398  14.165  20.418  0.00  0.00    +0.000 A 
ATOM     30  C   UNL     1       2.257  13.398  20.158  0.00  0.00    +0.000 A 
ENDBRANCH  24  25
ENDBRANCH   8  24
TORSDOF 5
ENDMDL
