MODEL 1
REMARK VINA RESULT:      -7.4      0.000      0.000
REMARK  Name = 
REMARK  4 active torsions:
REMARK  status: ('A' for Active; 'I' for Inactive)
REMARK    1  A    between atoms: C_1  and  N_2
REMARK    2  A    between atoms: C_4  and  C_5
REMARK    3  A    between atoms: C_11  and  O_12
REMARK    4  A    between atoms: O_12  and  C_13
REMARK                            x       y       z     vdW  Elec       q    Type
REMARK                         _______ _______ _______ _____ _____    ______ ____
ROOT
ATOM      1  C   UNL     1       6.754   4.724  13.652  0.00  0.00    +0.000 C 
ATOM      2  O   UNL     1       7.748   5.371  13.331  0.00  0.00    +0.000 OA
ATOM      3  N   UNL     1       6.120   4.898  14.883  0.00  0.00    +0.000 N 
ATOM      4  C   UNL     1       6.650   5.884  15.810  0.00  0.00    +0.000 C 
ATOM      5  C   UNL     1       5.967   5.624  17.151  0.00  0.00    +0.000 C 
ATOM      6  C   UNL     1       4.972   6.706  17.599  0.00  0.00    +0.000 C 
ATOM      7  C   UNL     1       3.761   5.923  18.125  0.00  0.00    +0.000 C 
ATOM      8  C   UNL     1       3.677   4.806  17.086  0.00  0.00    +0.000 C 
ATOM      9  C   UNL     1       5.131   4.350  16.957  0.00  0.00    +0.000 C 
ATOM     10  C   UNL     1       5.483   3.802  15.592  0.00  0.00    +0.000 C 
ENDROOT
BRANCH   1  14
ATOM     11  C   UNL     1       6.030   0.707  10.791  0.00  0.00    +0.000 C 
ATOM     12  N   UNL     1       5.860   1.947  11.508  0.00  0.00    +0.000 N 
ATOM     13  C   UNL     1       6.761   2.535  12.343  0.00  0.00    +0.000 A 
ATOM     14  C   UNL     1       6.195   3.727  12.756  0.00  0.00    +0.000 A 
ATOM     15  C   UNL     1       4.914   3.713  12.160  0.00  0.00    +0.000 A 
ATOM     16  N   UNL     1       4.720   2.647  11.376  0.00  0.00    +0.000 NA
ENDBRANCH   1  14
BRANCH   7  17
ATOM     17  O   UNL     1       4.087   5.426  19.430  0.00  0.00    +0.000 OA
BRANCH  17  18
ATOM     18  C   UNL     1       3.223   4.519  19.983  0.00  0.00    +0.000 A 
ATOM     19  C   UNL     1       1.889   4.929  20.055  0.00  0.00    +0.000 A 
ATOM     20  C   UNL     1       0.928   4.108  20.648  0.00  0.00    +0.000 A 
ATOM     21  C   UNL     1       1.299   2.862  21.159  0.00  0.00    +0.000 A 
ATOM     22  C   UNL     1       2.623   2.438  21.063  0.00  0.00    +0.000 A 
ATOM     23  C   UNL     1       3.581   3.261  20.466  0.00  0.00    +0.000 A 
ENDBRANCH  17  18
ENDBRANCH   7  17
TORSDOF 3
ENDMDL
MODEL 2
REMARK VINA RESULT:      -7.4      0.589      1.471
REMARK  Name = 
REMARK  4 active torsions:
REMARK  status: ('A' for Active; 'I' for Inactive)
REMARK    1  A    between atoms: C_1  and  N_2
REMARK    2  A    between atoms: C_4  and  C_5
REMARK    3  A    between atoms: C_11  and  O_12
REMARK    4  A    between atoms: O_12  and  C_13
REMARK                            x       y       z     vdW  Elec       q    Type
REMARK                         _______ _______ _______ _____ _____    ______ ____
ROOT
ATOM      1  C   UNL     1       6.811   4.632  13.828  0.00  0.00    +0.000 C 
ATOM      2  O   UNL     1       7.922   5.086  13.565  0.00  0.00    +0.000 OA
ATOM      3  N   UNL     1       6.196   4.845  15.063  0.00  0.00    +0.000 N 
ATOM      4  C   UNL     1       6.889   5.637  16.064  0.00  0.00    +0.000 C 
ATOM      5  C   UNL     1       6.136   5.429  17.376  0.00  0.00    +0.000 C 
ATOM      6  C   UNL     1       5.367   6.655  17.892  0.00  0.00    +0.000 C 
ATOM      7  C   UNL     1       4.012   6.098  18.347  0.00  0.00    +0.000 C 
ATOM      8  C   UNL     1       3.730   5.094  17.229  0.00  0.00    +0.000 C 
ATOM      9  C   UNL     1       5.067   4.365  17.082  0.00  0.00    +0.000 C 
ATOM     10  C   UNL     1       5.335   3.853  15.684  0.00  0.00    +0.000 C 
ENDROOT
BRANCH   1  14
ATOM     11  C   UNL     1       3.394   2.854  10.665  0.00  0.00    +0.000 C 
ATOM     12  N   UNL     1       4.592   3.052  11.444  0.00  0.00    +0.000 N 
ATOM     13  C   UNL     1       4.850   4.086  12.292  0.00  0.00    +0.000 A 
ATOM     14  C   UNL     1       6.086   3.832  12.857  0.00  0.00    +0.000 A 
ATOM     15  C   UNL     1       6.511   2.648  12.213  0.00  0.00    +0.000 A 
ATOM     16  N   UNL     1       5.591   2.155  11.377  0.00  0.00    +0.000 NA
ENDBRANCH   1  14
BRANCH   7  17
ATOM     17  O   UNL     1       4.200   5.456  19.617  0.00  0.00    +0.000 OA
BRANCH  17  18
ATOM     18  C   UNL     1       3.177   4.669  20.072  0.00  0.00    +0.000 A 
ATOM     19  C   UNL     1       3.530   3.358  20.404  0.00  0.00    +0.000 A 
ATOM     20  C   UNL     1       2.560   2.450  20.830  0.00  0.00    +0.000 A 
ATOM     21  C   UNL     1       1.228   2.857  20.939  0.00  0.00    +0.000 A 
ATOM     22  C   UNL     1       0.877   4.172  20.636  0.00  0.00    +0.000 A 
ATOM     23  C   UNL     1       1.852   5.079  20.215  0.00  0.00    +0.000 A 
ENDBRANCH  17  18
ENDBRANCH   7  17
TORSDOF 3
ENDMDL
MODEL 3
REMARK VINA RESULT:      -7.3      0.573      1.070
REMARK  Name = 
REMARK  4 active torsions:
REMARK  status: ('A' for Active; 'I' for Inactive)
REMARK    1  A    between atoms: C_1  and  N_2
REMARK    2  A    between atoms: C_4  and  C_5
REMARK    3  A    between atoms: C_11  and  O_12
REMARK    4  A    between atoms: O_12  and  C_13
REMARK                            x       y       z     vdW  Elec       q    Type
REMARK                         _______ _______ _______ _____ _____    ______ ____
ROOT
ATOM      1  C   UNL     1       6.753   4.598  13.717  0.00  0.00    +0.000 C 
ATOM      2  O   UNL     1       7.843   5.084  13.427  0.00  0.00    +0.000 OA
ATOM      3  N   UNL     1       6.165   4.789  14.970  0.00  0.00    +0.000 N 
ATOM      4  C   UNL     1       6.864   5.596  15.955  0.00  0.00    +0.000 C 
ATOM      5  C   UNL     1       6.153   5.361  17.286  0.00  0.00    +0.000 C 
ATOM      6  C   UNL     1       5.365   6.564  17.828  0.00  0.00    +0.000 C 
ATOM      7  C   UNL     1       4.038   5.968  18.318  0.00  0.00    +0.000 C 
ATOM      8  C   UNL     1       3.754   4.962  17.203  0.00  0.00    +0.000 C 
ATOM      9  C   UNL     1       5.105   4.270  17.016  0.00  0.00    +0.000 C 
ATOM     10  C   UNL     1       5.349   3.771  15.609  0.00  0.00    +0.000 C 
ENDROOT
BRANCH   1  14
ATOM     11  C   UNL     1       3.336   2.787  10.573  0.00  0.00    +0.000 C 
ATOM     12  N   UNL     1       4.530   2.988  11.357  0.00  0.00    +0.000 N 
ATOM     13  C   UNL     1       4.797   4.041  12.179  0.00  0.00    +0.000 A 
ATOM     14  C   UNL     1       6.023   3.783  12.763  0.00  0.00    +0.000 A 
ATOM     15  C   UNL     1       6.434   2.575  12.156  0.00  0.00    +0.000 A 
ATOM     16  N   UNL     1       5.514   2.073  11.325  0.00  0.00    +0.000 NA
ENDBRANCH   1  14
BRANCH   7  17
ATOM     17  O   UNL     1       4.278   5.326  19.578  0.00  0.00    +0.000 OA
BRANCH  17  18
ATOM     18  C   UNL     1       3.309   4.474  20.036  0.00  0.00    +0.000 A 
ATOM     19  C   UNL     1       2.024   5.017  20.120  0.00  0.00    +0.000 A 
ATOM     20  C   UNL     1       0.967   4.257  20.622  0.00  0.00    +0.000 A 
ATOM     21  C   UNL     1       1.191   2.940  21.031  0.00  0.00    +0.000 A 
ATOM     22  C   UNL     1       2.465   2.386  20.922  0.00  0.00    +0.000 A 
ATOM     23  C   UNL     1       3.520   3.149  20.415  0.00  0.00    +0.000 A 
ENDBRANCH  17  18
ENDBRANCH   7  17
TORSDOF 3
ENDMDL
MODEL 4
REMARK VINA RESULT:      -7.3      0.092      1.008
REMARK  Name = 
REMARK  4 active torsions:
REMARK  status: ('A' for Active; 'I' for Inactive)
REMARK    1  A    between atoms: C_1  and  N_2
REMARK    2  A    between atoms: C_4  and  C_5
REMARK    3  A    between atoms: C_11  and  O_12
REMARK    4  A    between atoms: O_12  and  C_13
REMARK                            x       y       z     vdW  Elec       q    Type
REMARK                         _______ _______ _______ _____ _____    ______ ____
ROOT
ATOM      1  C   UNL     1       6.745   4.744  13.686  0.00  0.00    +0.000 C 
ATOM      2  O   UNL     1       7.745   5.385  13.372  0.00  0.00    +0.000 OA
ATOM      3  N   UNL     1       6.105   4.921  14.915  0.00  0.00    +0.000 N 
ATOM      4  C   UNL     1       6.635   5.902  15.845  0.00  0.00    +0.000 C 
ATOM      5  C   UNL     1       5.944   5.646  17.182  0.00  0.00    +0.000 C 
ATOM      6  C   UNL     1       4.952   6.734  17.626  0.00  0.00    +0.000 C 
ATOM      7  C   UNL     1       3.734   5.957  18.144  0.00  0.00    +0.000 C 
ATOM      8  C   UNL     1       3.649   4.841  17.104  0.00  0.00    +0.000 C 
ATOM      9  C   UNL     1       5.101   4.377  16.983  0.00  0.00    +0.000 C 
ATOM     10  C   UNL     1       5.457   3.828  15.619  0.00  0.00    +0.000 C 
ENDROOT
BRANCH   1  14
ATOM     11  C   UNL     1       6.019   0.741  10.807  0.00  0.00    +0.000 C 
ATOM     12  N   UNL     1       5.848   1.977  11.531  0.00  0.00    +0.000 N 
ATOM     13  C   UNL     1       6.751   2.562  12.366  0.00  0.00    +0.000 A 
ATOM     14  C   UNL     1       6.185   3.751  12.787  0.00  0.00    +0.000 A 
ATOM     15  C   UNL     1       4.902   3.738  12.194  0.00  0.00    +0.000 A 
ATOM     16  N   UNL     1       4.707   2.676  11.405  0.00  0.00    +0.000 NA
ENDBRANCH   1  14
BRANCH   7  17
ATOM     17  O   UNL     1       4.050   5.457  19.451  0.00  0.00    +0.000 OA
BRANCH  17  18
ATOM     18  C   UNL     1       3.130   4.630  20.039  0.00  0.00    +0.000 A 
ATOM     19  C   UNL     1       3.625   3.402  20.485  0.00  0.00    +0.000 A 
ATOM     20  C   UNL     1       2.768   2.459  21.053  0.00  0.00    +0.000 A 
ATOM     21  C   UNL     1       1.408   2.748  21.189  0.00  0.00    +0.000 A 
ATOM     22  C   UNL     1       0.916   3.983  20.771  0.00  0.00    +0.000 A 
ATOM     23  C   UNL     1       1.778   4.927  20.207  0.00  0.00    +0.000 A 
ENDBRANCH  17  18
ENDBRANCH   7  17
TORSDOF 3
ENDMDL
MODEL 5
REMARK VINA RESULT:      -6.8      4.192      6.108
REMARK  Name = 
REMARK  4 active torsions:
REMARK  status: ('A' for Active; 'I' for Inactive)
REMARK    1  A    between atoms: C_1  and  N_2
REMARK    2  A    between atoms: C_4  and  C_5
REMARK    3  A    between atoms: C_11  and  O_12
REMARK    4  A    between atoms: O_12  and  C_13
REMARK                            x       y       z     vdW  Elec       q    Type
REMARK                         _______ _______ _______ _____ _____    ______ ____
ROOT
ATOM      1  C   UNL     1       4.857   4.360  18.614  0.00  0.00    +0.000 C 
ATOM      2  O   UNL     1       4.963   3.462  19.445  0.00  0.00    +0.000 OA
ATOM      3  N   UNL     1       3.927   5.393  18.751  0.00  0.00    +0.000 N 
ATOM      4  C   UNL     1       3.064   5.408  19.920  0.00  0.00    +0.000 C 
ATOM      5  C   UNL     1       1.974   6.438  19.637  0.00  0.00    +0.000 C 
ATOM      6  C   UNL     1       2.043   7.716  20.489  0.00  0.00    +0.000 C 
ATOM      7  C   UNL     1       1.788   8.857  19.494  0.00  0.00    +0.000 C 
ATOM      8  C   UNL     1       2.597   8.368  18.293  0.00  0.00    +0.000 C 
ATOM      9  C   UNL     1       2.194   6.897  18.188  0.00  0.00    +0.000 C 
ATOM     10  C   UNL     1       3.272   6.006  17.609  0.00  0.00    +0.000 C 
ENDROOT
BRANCH   1  14
ATOM     11  C   UNL     1       6.595   4.032  13.954  0.00  0.00    +0.000 C 
ATOM     12  N   UNL     1       6.467   4.259  15.373  0.00  0.00    +0.000 N 
ATOM     13  C   UNL     1       5.339   4.112  16.122  0.00  0.00    +0.000 A 
ATOM     14  C   UNL     1       5.697   4.381  17.430  0.00  0.00    +0.000 A 
ATOM     15  C   UNL     1       7.057   4.752  17.334  0.00  0.00    +0.000 A 
ATOM     16  N   UNL     1       7.535   4.649  16.089  0.00  0.00    +0.000 NA
ENDBRANCH   1  14
BRANCH   7  17
ATOM     17  O   UNL     1       0.381   8.899  19.219  0.00  0.00    +0.000 OA
BRANCH  17  18
ATOM     18  C   UNL     1      -0.155  10.121  18.913  0.00  0.00    +0.000 A 
ATOM     19  C   UNL     1      -1.272  10.093  18.074  0.00  0.00    +0.000 A 
ATOM     20  C   UNL     1      -1.870  11.282  17.653  0.00  0.00    +0.000 A 
ATOM     21  C   UNL     1      -1.358  12.508  18.084  0.00  0.00    +0.000 A 
ATOM     22  C   UNL     1      -0.262  12.539  18.944  0.00  0.00    +0.000 A 
ATOM     23  C   UNL     1       0.332  11.347  19.366  0.00  0.00    +0.000 A 
ENDBRANCH  17  18
ENDBRANCH   7  17
TORSDOF 3
ENDMDL
MODEL 6
REMARK VINA RESULT:      -6.8      3.551      5.485
REMARK  Name = 
REMARK  4 active torsions:
REMARK  status: ('A' for Active; 'I' for Inactive)
REMARK    1  A    between atoms: C_1  and  N_2
REMARK    2  A    between atoms: C_4  and  C_5
REMARK    3  A    between atoms: C_11  and  O_12
REMARK    4  A    between atoms: O_12  and  C_13
REMARK                            x       y       z     vdW  Elec       q    Type
REMARK                         _______ _______ _______ _____ _____    ______ ____
ROOT
ATOM      1  C   UNL     1       4.312   3.487  17.573  0.00  0.00    +0.000 C 
ATOM      2  O   UNL     1       4.095   2.280  17.643  0.00  0.00    +0.000 OA
ATOM      3  N   UNL     1       3.526   4.423  18.246  0.00  0.00    +0.000 N 
ATOM      4  C   UNL     1       2.421   3.952  19.064  0.00  0.00    +0.000 C 
ATOM      5  C   UNL     1       1.579   5.180  19.399  0.00  0.00    +0.000 C 
ATOM      6  C   UNL     1       1.618   5.619  20.872  0.00  0.00    +0.000 C 
ATOM      7  C   UNL     1       1.763   7.146  20.817  0.00  0.00    +0.000 C 
ATOM      8  C   UNL     1       2.759   7.291  19.667  0.00  0.00    +0.000 C 
ATOM      9  C   UNL     1       2.196   6.343  18.607  0.00  0.00    +0.000 C 
ATOM     10  C   UNL     1       3.249   5.742  17.702  0.00  0.00    +0.000 C 
ENDROOT
BRANCH   1  14
ATOM     11  C   UNL     1       7.215   4.932  13.787  0.00  0.00    +0.000 C 
ATOM     12  N   UNL     1       6.682   4.660  15.100  0.00  0.00    +0.000 N 
ATOM     13  C   UNL     1       5.458   4.137  15.389  0.00  0.00    +0.000 A 
ATOM     14  C   UNL     1       5.403   4.000  16.763  0.00  0.00    +0.000 A 
ATOM     15  C   UNL     1       6.631   4.546  17.202  0.00  0.00    +0.000 A 
ATOM     16  N   UNL     1       7.422   4.919  16.191  0.00  0.00    +0.000 NA
ENDBRANCH   1  14
BRANCH   7  17
ATOM     17  O   UNL     1       0.480   7.701  20.497  0.00  0.00    +0.000 OA
BRANCH  17  18
ATOM     18  C   UNL     1       0.110   8.836  21.169  0.00  0.00    +0.000 A 
ATOM     19  C   UNL     1       0.251  10.029  20.455  0.00  0.00    +0.000 A 
ATOM     20  C   UNL     1      -0.046  11.252  21.057  0.00  0.00    +0.000 A 
ATOM     21  C   UNL     1      -0.500  11.284  22.378  0.00  0.00    +0.000 A 
ATOM     22  C   UNL     1      -0.670  10.094  23.083  0.00  0.00    +0.000 A 
ATOM     23  C   UNL     1      -0.375   8.871  22.476  0.00  0.00    +0.000 A 
ENDBRANCH  17  18
ENDBRANCH   7  17
TORSDOF 3
ENDMDL
MODEL 7
REMARK VINA RESULT:      -6.8      5.317      8.754
REMARK  Name = 
REMARK  4 active torsions:
REMARK  status: ('A' for Active; 'I' for Inactive)
REMARK    1  A    between atoms: C_1  and  N_2
REMARK    2  A    between atoms: C_4  and  C_5
REMARK    3  A    between atoms: C_11  and  O_12
REMARK    4  A    between atoms: O_12  and  C_13
REMARK                            x       y       z     vdW  Elec       q    Type
REMARK                         _______ _______ _______ _____ _____    ______ ____
ROOT
ATOM      1  C   UNL     1      -0.310   9.894  20.328  0.00  0.00    +0.000 C 
ATOM      2  O   UNL     1      -0.608  10.176  21.486  0.00  0.00    +0.000 OA
ATOM      3  N   UNL     1       0.567   8.853  20.020  0.00  0.00    +0.000 N 
ATOM      4  C   UNL     1       1.137   8.073  21.105  0.00  0.00    +0.000 C 
ATOM      5  C   UNL     1       2.268   7.248  20.495  0.00  0.00    +0.000 C 
ATOM      6  C   UNL     1       2.009   5.734  20.423  0.00  0.00    +0.000 C 
ATOM      7  C   UNL     1       2.490   5.326  19.024  0.00  0.00    +0.000 C 
ATOM      8  C   UNL     1       1.978   6.504  18.196  0.00  0.00    +0.000 C 
ATOM      9  C   UNL     1       2.389   7.714  19.036  0.00  0.00    +0.000 C 
ATOM     10  C   UNL     1       1.470   8.907  18.883  0.00  0.00    +0.000 C 
ENDROOT
BRANCH   1  14
ATOM     11  C   UNL     1      -2.777  11.310  16.235  0.00  0.00    +0.000 C 
ATOM     12  N   UNL     1      -1.957  11.289  17.422  0.00  0.00    +0.000 N 
ATOM     13  C   UNL     1      -1.749  10.227  18.249  0.00  0.00    +0.000 A 
ATOM     14  C   UNL     1      -0.854  10.651  19.215  0.00  0.00    +0.000 A 
ATOM     15  C   UNL     1      -0.652  12.015  18.907  0.00  0.00    +0.000 A 
ATOM     16  N   UNL     1      -1.296  12.397  17.799  0.00  0.00    +0.000 NA
ENDBRANCH   1  14
BRANCH   7  17
ATOM     17  O   UNL     1       3.923   5.263  19.049  0.00  0.00    +0.000 OA
BRANCH  17  18
ATOM     18  C   UNL     1       4.560   5.151  17.842  0.00  0.00    +0.000 A 
ATOM     19  C   UNL     1       5.384   6.226  17.496  0.00  0.00    +0.000 A 
ATOM     20  C   UNL     1       6.043   6.245  16.266  0.00  0.00    +0.000 A 
ATOM     21  C   UNL     1       5.890   5.177  15.380  0.00  0.00    +0.000 A 
ATOM     22  C   UNL     1       5.092   4.090  15.733  0.00  0.00    +0.000 A 
ATOM     23  C   UNL     1       4.437   4.073  16.967  0.00  0.00    +0.000 A 
ENDBRANCH  17  18
ENDBRANCH   7  17
TORSDOF 3
ENDMDL
MODEL 8
REMARK VINA RESULT:      -6.8      3.523      5.451
REMARK  Name = 
REMARK  4 active torsions:
REMARK  status: ('A' for Active; 'I' for Inactive)
REMARK    1  A    between atoms: C_1  and  N_2
REMARK    2  A    between atoms: C_4  and  C_5
REMARK    3  A    between atoms: C_11  and  O_12
REMARK    4  A    between atoms: O_12  and  C_13
REMARK                            x       y       z     vdW  Elec       q    Type
REMARK                         _______ _______ _______ _____ _____    ______ ____
ROOT
ATOM      1  C   UNL     1       4.316   3.471  17.473  0.00  0.00    +0.000 C 
ATOM      2  O   UNL     1       4.083   2.265  17.526  0.00  0.00    +0.000 OA
ATOM      3  N   UNL     1       3.545   4.407  18.166  0.00  0.00    +0.000 N 
ATOM      4  C   UNL     1       2.439   3.937  18.982  0.00  0.00    +0.000 C 
ATOM      5  C   UNL     1       1.615   5.171  19.342  0.00  0.00    +0.000 C 
ATOM      6  C   UNL     1       1.668   5.585  20.822  0.00  0.00    +0.000 C 
ATOM      7  C   UNL     1       1.834   7.111  20.790  0.00  0.00    +0.000 C 
ATOM      8  C   UNL     1       2.825   7.262  19.637  0.00  0.00    +0.000 C 
ATOM      9  C   UNL     1       2.244   6.338  18.565  0.00  0.00    +0.000 C 
ATOM     10  C   UNL     1       3.284   5.737  17.644  0.00  0.00    +0.000 C 
ENDROOT
BRANCH   1  14
ATOM     11  C   UNL     1       7.232   4.903  13.694  0.00  0.00    +0.000 C 
ATOM     12  N   UNL     1       6.694   4.636  15.005  0.00  0.00    +0.000 N 
ATOM     13  C   UNL     1       5.470   4.112  15.291  0.00  0.00    +0.000 A 
ATOM     14  C   UNL     1       5.409   3.982  16.667  0.00  0.00    +0.000 A 
ATOM     15  C   UNL     1       6.634   4.532  17.108  0.00  0.00    +0.000 A 
ATOM     16  N   UNL     1       7.429   4.902  16.098  0.00  0.00    +0.000 NA
ENDBRANCH   1  14
BRANCH   7  17
ATOM     17  O   UNL     1       0.556   7.689  20.486  0.00  0.00    +0.000 OA
BRANCH  17  18
ATOM     18  C   UNL     1       0.266   8.894  21.068  0.00  0.00    +0.000 A 
ATOM     19  C   UNL     1      -0.300   8.823  22.344  0.00  0.00    +0.000 A 
ATOM     20  C   UNL     1      -0.685   9.986  23.012  0.00  0.00    +0.000 A 
ATOM     21  C   UNL     1      -0.490  11.231  22.408  0.00  0.00    +0.000 A 
ATOM     22  C   UNL     1       0.101  11.307  21.149  0.00  0.00    +0.000 A 
ATOM     23  C   UNL     1       0.489  10.141  20.485  0.00  0.00    +0.000 A 
ENDBRANCH  17  18
ENDBRANCH   7  17
TORSDOF 3
ENDMDL
MODEL 9
REMARK VINA RESULT:      -6.7      4.165      6.004
REMARK  Name = 
REMARK  4 active torsions:
REMARK  status: ('A' for Active; 'I' for Inactive)
REMARK    1  A    between atoms: C_1  and  N_2
REMARK    2  A    between atoms: C_4  and  C_5
REMARK    3  A    between atoms: C_11  and  O_12
REMARK    4  A    between atoms: O_12  and  C_13
REMARK                            x       y       z     vdW  Elec       q    Type
REMARK                         _______ _______ _______ _____ _____    ______ ____
ROOT
ATOM      1  C   UNL     1       5.063   4.630  18.382  0.00  0.00    +0.000 C 
ATOM      2  O   UNL     1       5.286   3.723  19.181  0.00  0.00    +0.000 OA
ATOM      3  N   UNL     1       4.065   5.581  18.598  0.00  0.00    +0.000 N 
ATOM      4  C   UNL     1       3.271   5.500  19.812  0.00  0.00    +0.000 C 
ATOM      5  C   UNL     1       2.088   6.446  19.617  0.00  0.00    +0.000 C 
ATOM      6  C   UNL     1       2.105   7.705  20.499  0.00  0.00    +0.000 C 
ATOM      7  C   UNL     1       1.706   8.845  19.552  0.00  0.00    +0.000 C 
ATOM      8  C   UNL     1       2.482   8.451  18.296  0.00  0.00    +0.000 C 
ATOM      9  C   UNL     1       2.191   6.955  18.171  0.00  0.00    +0.000 C 
ATOM     10  C   UNL     1       3.301   6.167  17.510  0.00  0.00    +0.000 C 
ENDROOT
BRANCH   1  14
ATOM     11  C   UNL     1       6.770   4.153  13.724  0.00  0.00    +0.000 C 
ATOM     12  N   UNL     1       6.579   4.556  15.096  0.00  0.00    +0.000 N 
ATOM     13  C   UNL     1       5.584   4.149  15.933  0.00  0.00    +0.000 A 
ATOM     14  C   UNL     1       5.832   4.745  17.156  0.00  0.00    +0.000 A 
ATOM     15  C   UNL     1       6.967   5.551  16.911  0.00  0.00    +0.000 A 
ATOM     16  N   UNL     1       7.441   5.413  15.668  0.00  0.00    +0.000 NA
ENDBRANCH   1  14
BRANCH   7  17
ATOM     17  O   UNL     1       0.287   8.782  19.355  0.00  0.00    +0.000 OA
BRANCH  17  18
ATOM     18  C   UNL     1      -0.368   9.970  19.174  0.00  0.00    +0.000 A 
ATOM     19  C   UNL     1      -0.205  10.908  20.197  0.00  0.00    +0.000 A 
ATOM     20  C   UNL     1      -0.868  12.134  20.145  0.00  0.00    +0.000 A 
ATOM     21  C   UNL     1      -1.690  12.434  19.056  0.00  0.00    +0.000 A 
ATOM     22  C   UNL     1      -1.833  11.513  18.019  0.00  0.00    +0.000 A 
ATOM     23  C   UNL     1      -1.164  10.288  18.073  0.00  0.00    +0.000 A 
ENDBRANCH  17  18
ENDBRANCH   7  17
TORSDOF 3
ENDMDL
