MODEL 1
REMARK VINA RESULT:      -8.4      0.000      0.000
REMARK  Name = 
REMARK  4 active torsions:
REMARK  status: ('A' for Active; 'I' for Inactive)
REMARK    1  A    between atoms: C_7  and  C_8
REMARK    2  A    between atoms: C_8  and  N_9
REMARK    3  A    between atoms: N_13  and  C_14
REMARK    4  A    between atoms: N_22  and  C_23
REMARK                            x       y       z     vdW  Elec       q    Type
REMARK                         _______ _______ _______ _____ _____    ______ ____
ROOT
ATOM      1  N   UNL     1       2.447   6.300  20.500  0.00  0.00    +0.000 N 
ATOM      2  C   UNL     1       2.624   7.065  19.364  0.00  0.00    +0.000 A 
ATOM      3  N   UNL     1       1.744   8.023  19.172  0.00  0.00    +0.000 NA
ATOM      4  C   UNL     1       1.840   8.709  18.039  0.00  0.00    +0.000 A 
ATOM      5  N   UNL     1       0.838   9.630  17.736  0.00  0.00    +0.000 N 
ATOM      6  N   UNL     1       2.820   8.545  17.157  0.00  0.00    +0.000 NA
ATOM      7  C   UNL     1       3.706   7.606  17.470  0.00  0.00    +0.000 A 
ATOM      8  N   UNL     1       4.826   7.463  16.649  0.00  0.00    +0.000 N 
ATOM      9  N   UNL     1       3.618   6.823  18.541  0.00  0.00    +0.000 NA
ATOM     10  H   UNL     1       2.573   6.898  21.306  0.00  0.00    +0.000 HD
ATOM     11  H   UNL     1       0.923   9.998  16.801  0.00  0.00    +0.000 HD
ATOM     12  H   UNL     1       4.830   8.144  15.904  0.00  0.00    +0.000 HD
ENDROOT
BRANCH   5  13
ATOM     13  C   UNL     1       0.065  10.388  18.632  0.00  0.00    +0.000 A 
ATOM     14  C   UNL     1      -1.288  10.662  18.393  0.00  0.00    +0.000 A 
ATOM     15  C   UNL     1      -2.040  11.449  19.269  0.00  0.00    +0.000 A 
ATOM     16  C   UNL     1      -1.437  11.996  20.399  0.00  0.00    +0.000 A 
ATOM     17  C   UNL     1      -0.087  11.755  20.642  0.00  0.00    +0.000 A 
ATOM     18  C   UNL     1       0.660  10.954  19.766  0.00  0.00    +0.000 A 
ENDBRANCH   5  13
BRANCH   8  19
ATOM     19  C   UNL     1       5.536   6.279  16.388  0.00  0.00    +0.000 A 
ATOM     20  C   UNL     1       6.614   5.868  17.188  0.00  0.00    +0.000 A 
ATOM     21  C   UNL     1       7.316   4.698  16.906  0.00  0.00    +0.000 A 
ATOM     22  C   UNL     1       6.957   3.922  15.807  0.00  0.00    +0.000 A 
ATOM     23  C   UNL     1       5.895   4.319  14.998  0.00  0.00    +0.000 A 
ATOM     24  C   UNL     1       5.182   5.487  15.291  0.00  0.00    +0.000 A 
ENDBRANCH   8  19
BRANCH   1  25
ATOM     25  C   UNL     1       3.178   5.051  20.561  0.00  0.00    +0.000 C 
BRANCH  25  32
ATOM     26  F   UNL     1       4.131   3.647  18.277  0.00  0.00    +0.000 F 
ATOM     27  C   UNL     1       2.894   3.353  18.707  0.00  0.00    +0.000 A 
ATOM     28  C   UNL     1       2.156   2.392  18.022  0.00  0.00    +0.000 A 
ATOM     29  C   UNL     1       0.869   2.073  18.455  0.00  0.00    +0.000 A 
ATOM     30  C   UNL     1       0.325   2.718  19.566  0.00  0.00    +0.000 A 
ATOM     31  C   UNL     1       1.075   3.681  20.242  0.00  0.00    +0.000 A 
ATOM     32  C   UNL     1       2.376   4.006  19.828  0.00  0.00    +0.000 A 
ENDBRANCH  25  32
ENDBRANCH   1  25
TORSDOF 4
ENDMDL
MODEL 2
REMARK VINA RESULT:      -8.4      0.081      1.264
REMARK  Name = 
REMARK  4 active torsions:
REMARK  status: ('A' for Active; 'I' for Inactive)
REMARK    1  A    between atoms: C_7  and  C_8
REMARK    2  A    between atoms: C_8  and  N_9
REMARK    3  A    between atoms: N_13  and  C_14
REMARK    4  A    between atoms: N_22  and  C_23
REMARK                            x       y       z     vdW  Elec       q    Type
REMARK                         _______ _______ _______ _____ _____    ______ ____
ROOT
ATOM      1  N   UNL     1       2.471   6.313  20.498  0.00  0.00    +0.000 N 
ATOM      2  C   UNL     1       2.644   7.077  19.361  0.00  0.00    +0.000 A 
ATOM      3  N   UNL     1       1.771   8.042  19.177  0.00  0.00    +0.000 NA
ATOM      4  C   UNL     1       1.863   8.728  18.043  0.00  0.00    +0.000 A 
ATOM      5  N   UNL     1       0.865   9.658  17.749  0.00  0.00    +0.000 N 
ATOM      6  N   UNL     1       2.833   8.555  17.152  0.00  0.00    +0.000 NA
ATOM      7  C   UNL     1       3.714   7.609  17.458  0.00  0.00    +0.000 A 
ATOM      8  N   UNL     1       4.825   7.457  16.626  0.00  0.00    +0.000 N 
ATOM      9  N   UNL     1       3.629   6.826  18.529  0.00  0.00    +0.000 NA
ATOM     10  H   UNL     1       2.610   6.910  21.304  0.00  0.00    +0.000 HD
ATOM     11  H   UNL     1       0.945  10.024  16.814  0.00  0.00    +0.000 HD
ATOM     12  H   UNL     1       4.828   8.138  15.881  0.00  0.00    +0.000 HD
ENDROOT
BRANCH   5  13
ATOM     13  C   UNL     1       0.108  10.422  18.653  0.00  0.00    +0.000 A 
ATOM     14  C   UNL     1       0.631  10.845  19.882  0.00  0.00    +0.000 A 
ATOM     15  C   UNL     1      -0.141  11.571  20.793  0.00  0.00    +0.000 A 
ATOM     16  C   UNL     1      -1.467  11.871  20.492  0.00  0.00    +0.000 A 
ATOM     17  C   UNL     1      -2.012  11.438  19.286  0.00  0.00    +0.000 A 
ATOM     18  C   UNL     1      -1.230  10.721  18.370  0.00  0.00    +0.000 A 
ENDBRANCH   5  13
BRANCH   8  19
ATOM     19  C   UNL     1       5.523   6.266  16.359  0.00  0.00    +0.000 A 
ATOM     20  C   UNL     1       5.141   5.397  15.326  0.00  0.00    +0.000 A 
ATOM     21  C   UNL     1       5.836   4.214  15.084  0.00  0.00    +0.000 A 
ATOM     22  C   UNL     1       6.922   3.873  15.886  0.00  0.00    +0.000 A 
ATOM     23  C   UNL     1       7.311   4.720  16.921  0.00  0.00    +0.000 A 
ATOM     24  C   UNL     1       6.620   5.915  17.152  0.00  0.00    +0.000 A 
ENDBRANCH   8  19
BRANCH   1  25
ATOM     25  C   UNL     1       3.192   5.057  20.553  0.00  0.00    +0.000 C 
BRANCH  25  32
ATOM     26  F   UNL     1       4.093   3.649  18.250  0.00  0.00    +0.000 F 
ATOM     27  C   UNL     1       2.863   3.362  18.704  0.00  0.00    +0.000 A 
ATOM     28  C   UNL     1       2.106   2.405  18.033  0.00  0.00    +0.000 A 
ATOM     29  C   UNL     1       0.826   2.093  18.491  0.00  0.00    +0.000 A 
ATOM     30  C   UNL     1       0.306   2.741  19.613  0.00  0.00    +0.000 A 
ATOM     31  C   UNL     1       1.075   3.700  20.274  0.00  0.00    +0.000 A 
ATOM     32  C   UNL     1       2.370   4.018  19.835  0.00  0.00    +0.000 A 
ENDBRANCH  25  32
ENDBRANCH   1  25
TORSDOF 4
ENDMDL
MODEL 3
REMARK VINA RESULT:      -7.9      0.868      1.239
REMARK  Name = 
REMARK  4 active torsions:
REMARK  status: ('A' for Active; 'I' for Inactive)
REMARK    1  A    between atoms: C_7  and  C_8
REMARK    2  A    between atoms: C_8  and  N_9
REMARK    3  A    between atoms: N_13  and  C_14
REMARK    4  A    between atoms: N_22  and  C_23
REMARK                            x       y       z     vdW  Elec       q    Type
REMARK                         _______ _______ _______ _____ _____    ______ ____
ROOT
ATOM      1  N   UNL     1       2.438   6.247  20.474  0.00  0.00    +0.000 N 
ATOM      2  C   UNL     1       2.619   7.022  19.345  0.00  0.00    +0.000 A 
ATOM      3  N   UNL     1       1.729   7.968  19.147  0.00  0.00    +0.000 NA
ATOM      4  C   UNL     1       1.831   8.662  18.019  0.00  0.00    +0.000 A 
ATOM      5  N   UNL     1       0.820   9.572  17.708  0.00  0.00    +0.000 N 
ATOM      6  N   UNL     1       2.825   8.517  17.150  0.00  0.00    +0.000 NA
ATOM      7  C   UNL     1       3.719   7.589  17.469  0.00  0.00    +0.000 A 
ATOM      8  N   UNL     1       4.852   7.466  16.662  0.00  0.00    +0.000 N 
ATOM      9  N   UNL     1       3.628   6.798  18.534  0.00  0.00    +0.000 NA
ATOM     10  H   UNL     1       2.545   6.843  21.286  0.00  0.00    +0.000 HD
ATOM     11  H   UNL     1       0.913   9.946  16.776  0.00  0.00    +0.000 HD
ATOM     12  H   UNL     1       4.856   8.151  15.922  0.00  0.00    +0.000 HD
ENDROOT
BRANCH   5  13
ATOM     13  C   UNL     1       0.026  10.313  18.598  0.00  0.00    +0.000 A 
ATOM     14  C   UNL     1      -1.303  10.646  18.302  0.00  0.00    +0.000 A 
ATOM     15  C   UNL     1      -2.075  11.417  19.174  0.00  0.00    +0.000 A 
ATOM     16  C   UNL     1      -1.517  11.888  20.360  0.00  0.00    +0.000 A 
ATOM     17  C   UNL     1      -0.191  11.589  20.661  0.00  0.00    +0.000 A 
ATOM     18  C   UNL     1       0.576  10.804  19.788  0.00  0.00    +0.000 A 
ENDBRANCH   5  13
BRANCH   8  19
ATOM     19  C   UNL     1       5.582   6.293  16.404  0.00  0.00    +0.000 A 
ATOM     20  C   UNL     1       6.656   5.894  17.214  0.00  0.00    +0.000 A 
ATOM     21  C   UNL     1       7.378   4.735  16.936  0.00  0.00    +0.000 A 
ATOM     22  C   UNL     1       7.042   3.960  15.829  0.00  0.00    +0.000 A 
ATOM     23  C   UNL     1       5.984   4.344  15.010  0.00  0.00    +0.000 A 
ATOM     24  C   UNL     1       5.251   5.501  15.300  0.00  0.00    +0.000 A 
ENDBRANCH   8  19
BRANCH   1  25
ATOM     25  C   UNL     1       3.185   5.008  20.538  0.00  0.00    +0.000 C 
BRANCH  25  32
ATOM     26  F   UNL     1       0.689   3.756  21.089  0.00  0.00    +0.000 F 
ATOM     27  C   UNL     1       1.300   3.430  19.939  0.00  0.00    +0.000 A 
ATOM     28  C   UNL     1       0.688   2.511  19.091  0.00  0.00    +0.000 A 
ATOM     29  C   UNL     1       1.308   2.161  17.891  0.00  0.00    +0.000 A 
ATOM     30  C   UNL     1       2.536   2.726  17.547  0.00  0.00    +0.000 A 
ATOM     31  C   UNL     1       3.139   3.645  18.407  0.00  0.00    +0.000 A 
ATOM     32  C   UNL     1       2.525   4.019  19.612  0.00  0.00    +0.000 A 
ENDBRANCH  25  32
ENDBRANCH   1  25
TORSDOF 4
ENDMDL
MODEL 4
REMARK VINA RESULT:      -7.8      0.978      1.607
REMARK  Name = 
REMARK  4 active torsions:
REMARK  status: ('A' for Active; 'I' for Inactive)
REMARK    1  A    between atoms: C_7  and  C_8
REMARK    2  A    between atoms: C_8  and  N_9
REMARK    3  A    between atoms: N_13  and  C_14
REMARK    4  A    between atoms: N_22  and  C_23
REMARK                            x       y       z     vdW  Elec       q    Type
REMARK                         _______ _______ _______ _____ _____    ______ ____
ROOT
ATOM      1  N   UNL     1       2.159   6.421  20.610  0.00  0.00    +0.000 N 
ATOM      2  C   UNL     1       2.416   7.160  19.472  0.00  0.00    +0.000 A 
ATOM      3  N   UNL     1       1.524   8.076  19.165  0.00  0.00    +0.000 NA
ATOM      4  C   UNL     1       1.705   8.732  18.024  0.00  0.00    +0.000 A 
ATOM      5  N   UNL     1       0.703   9.603  17.596  0.00  0.00    +0.000 N 
ATOM      6  N   UNL     1       2.771   8.581  17.246  0.00  0.00    +0.000 NA
ATOM      7  C   UNL     1       3.657   7.688  17.674  0.00  0.00    +0.000 A 
ATOM      8  N   UNL     1       4.855   7.566  16.968  0.00  0.00    +0.000 N 
ATOM      9  N   UNL     1       3.494   6.933  18.756  0.00  0.00    +0.000 NA
ATOM     10  H   UNL     1       2.184   7.048  21.405  0.00  0.00    +0.000 HD
ATOM     11  H   UNL     1       0.865   9.946  16.663  0.00  0.00    +0.000 HD
ATOM     12  H   UNL     1       4.906   8.224  16.205  0.00  0.00    +0.000 HD
ENDROOT
BRANCH   5  13
ATOM     13  C   UNL     1      -0.179  10.356  18.390  0.00  0.00    +0.000 A 
ATOM     14  C   UNL     1       0.212  10.892  19.624  0.00  0.00    +0.000 A 
ATOM     15  C   UNL     1      -0.683  11.606  20.426  0.00  0.00    +0.000 A 
ATOM     16  C   UNL     1      -2.000  11.779  20.009  0.00  0.00    +0.000 A 
ATOM     17  C   UNL     1      -2.414  11.233  18.796  0.00  0.00    +0.000 A 
ATOM     18  C   UNL     1      -1.510  10.528  17.989  0.00  0.00    +0.000 A 
ENDBRANCH   5  13
BRANCH   8  19
ATOM     19  C   UNL     1       5.630   6.403  16.816  0.00  0.00    +0.000 A 
ATOM     20  C   UNL     1       6.683   6.092  17.690  0.00  0.00    +0.000 A 
ATOM     21  C   UNL     1       7.450   4.942  17.516  0.00  0.00    +0.000 A 
ATOM     22  C   UNL     1       7.183   4.087  16.450  0.00  0.00    +0.000 A 
ATOM     23  C   UNL     1       6.147   4.383  15.568  0.00  0.00    +0.000 A 
ATOM     24  C   UNL     1       5.369   5.531  15.754  0.00  0.00    +0.000 A 
ENDBRANCH   8  19
BRANCH   1  25
ATOM     25  C   UNL     1       2.925   5.205  20.782  0.00  0.00    +0.000 C 
BRANCH  25  32
ATOM     26  F   UNL     1       0.342   4.068  20.422  0.00  0.00    +0.000 F 
ATOM     27  C   UNL     1       1.289   3.737  19.530  0.00  0.00    +0.000 A 
ATOM     28  C   UNL     1       0.960   2.868  18.493  0.00  0.00    +0.000 A 
ATOM     29  C   UNL     1       1.931   2.514  17.556  0.00  0.00    +0.000 A 
ATOM     30  C   UNL     1       3.225   3.025  17.662  0.00  0.00    +0.000 A 
ATOM     31  C   UNL     1       3.542   3.893  18.708  0.00  0.00    +0.000 A 
ATOM     32  C   UNL     1       2.575   4.270  19.653  0.00  0.00    +0.000 A 
ENDBRANCH  25  32
ENDBRANCH   1  25
TORSDOF 4
ENDMDL
MODEL 5
REMARK VINA RESULT:      -7.8      0.872      1.765
REMARK  Name = 
REMARK  4 active torsions:
REMARK  status: ('A' for Active; 'I' for Inactive)
REMARK    1  A    between atoms: C_7  and  C_8
REMARK    2  A    between atoms: C_8  and  N_9
REMARK    3  A    between atoms: N_13  and  C_14
REMARK    4  A    between atoms: N_22  and  C_23
REMARK                            x       y       z     vdW  Elec       q    Type
REMARK                         _______ _______ _______ _____ _____    ______ ____
ROOT
ATOM      1  N   UNL     1       2.552   6.212  20.457  0.00  0.00    +0.000 N 
ATOM      2  C   UNL     1       2.699   6.987  19.324  0.00  0.00    +0.000 A 
ATOM      3  N   UNL     1       1.815   7.947  19.164  0.00  0.00    +0.000 NA
ATOM      4  C   UNL     1       1.882   8.642  18.034  0.00  0.00    +0.000 A 
ATOM      5  N   UNL     1       0.872   9.567  17.765  0.00  0.00    +0.000 N 
ATOM      6  N   UNL     1       2.837   8.485  17.125  0.00  0.00    +0.000 NA
ATOM      7  C   UNL     1       3.731   7.544  17.406  0.00  0.00    +0.000 A 
ATOM      8  N   UNL     1       4.828   7.407  16.554  0.00  0.00    +0.000 N 
ATOM      9  N   UNL     1       3.670   6.751  18.472  0.00  0.00    +0.000 NA
ATOM     10  H   UNL     1       2.700   6.803  21.265  0.00  0.00    +0.000 HD
ATOM     11  H   UNL     1       0.932   9.942  16.832  0.00  0.00    +0.000 HD
ATOM     12  H   UNL     1       4.812   8.094  15.815  0.00  0.00    +0.000 HD
ENDROOT
BRANCH   5  13
ATOM     13  C   UNL     1       0.124  10.317  18.689  0.00  0.00    +0.000 A 
ATOM     14  C   UNL     1       0.566  10.522  20.003  0.00  0.00    +0.000 A 
ATOM     15  C   UNL     1      -0.201  11.236  20.928  0.00  0.00    +0.000 A 
ATOM     16  C   UNL     1      -1.442  11.744  20.552  0.00  0.00    +0.000 A 
ATOM     17  C   UNL     1      -1.909  11.530  19.257  0.00  0.00    +0.000 A 
ATOM     18  C   UNL     1      -1.130  10.824  18.330  0.00  0.00    +0.000 A 
ENDBRANCH   5  13
BRANCH   8  19
ATOM     19  C   UNL     1       5.530   6.225  16.264  0.00  0.00    +0.000 A 
ATOM     20  C   UNL     1       5.133   5.358  15.234  0.00  0.00    +0.000 A 
ATOM     21  C   UNL     1       5.833   4.183  14.970  0.00  0.00    +0.000 A 
ATOM     22  C   UNL     1       6.939   3.846  15.746  0.00  0.00    +0.000 A 
ATOM     23  C   UNL     1       7.343   4.691  16.777  0.00  0.00    +0.000 A 
ATOM     24  C   UNL     1       6.648   5.878  17.031  0.00  0.00    +0.000 A 
ENDBRANCH   8  19
BRANCH   1  25
ATOM     25  C   UNL     1       3.283   4.962  20.488  0.00  0.00    +0.000 C 
BRANCH  25  32
ATOM     26  F   UNL     1       0.687   3.967  21.093  0.00  0.00    +0.000 F 
ATOM     27  C   UNL     1       1.275   3.512  19.975  0.00  0.00    +0.000 A 
ATOM     28  C   UNL     1       0.592   2.591  19.185  0.00  0.00    +0.000 A 
ATOM     29  C   UNL     1       1.186   2.108  18.019  0.00  0.00    +0.000 A 
ATOM     30  C   UNL     1       2.461   2.543  17.651  0.00  0.00    +0.000 A 
ATOM     31  C   UNL     1       3.135   3.464  18.454  0.00  0.00    +0.000 A 
ATOM     32  C   UNL     1       2.547   3.971  19.624  0.00  0.00    +0.000 A 
ENDBRANCH  25  32
ENDBRANCH   1  25
TORSDOF 4
ENDMDL
MODEL 6
REMARK VINA RESULT:      -7.7      8.372      9.281
REMARK  Name = 
REMARK  4 active torsions:
REMARK  status: ('A' for Active; 'I' for Inactive)
REMARK    1  A    between atoms: C_7  and  C_8
REMARK    2  A    between atoms: C_8  and  N_9
REMARK    3  A    between atoms: N_13  and  C_14
REMARK    4  A    between atoms: N_22  and  C_23
REMARK                            x       y       z     vdW  Elec       q    Type
REMARK                         _______ _______ _______ _____ _____    ______ ____
ROOT
ATOM      1  N   UNL     1       6.818  15.763  21.209  0.00  0.00    +0.000 N 
ATOM      2  C   UNL     1       6.732  15.253  19.929  0.00  0.00    +0.000 A 
ATOM      3  N   UNL     1       5.557  15.351  19.347  0.00  0.00    +0.000 NA
ATOM      4  C   UNL     1       5.429  14.783  18.153  0.00  0.00    +0.000 A 
ATOM      5  N   UNL     1       4.160  14.738  17.574  0.00  0.00    +0.000 N 
ATOM      6  N   UNL     1       6.434  14.222  17.490  0.00  0.00    +0.000 NA
ATOM      7  C   UNL     1       7.602  14.236  18.123  0.00  0.00    +0.000 A 
ATOM      8  N   UNL     1       8.725  13.771  17.435  0.00  0.00    +0.000 N 
ATOM      9  N   UNL     1       7.779  14.705  19.354  0.00  0.00    +0.000 NA
ATOM     10  H   UNL     1       6.663  16.762  21.162  0.00  0.00    +0.000 HD
ATOM     11  H   UNL     1       4.138  14.172  16.741  0.00  0.00    +0.000 HD
ATOM     12  H   UNL     1       8.495  13.498  16.491  0.00  0.00    +0.000 HD
ENDROOT
BRANCH   5  13
ATOM     13  C   UNL     1       3.113  15.662  17.726  0.00  0.00    +0.000 A 
ATOM     14  C   UNL     1       2.053  15.438  18.615  0.00  0.00    +0.000 A 
ATOM     15  C   UNL     1       0.994  16.342  18.731  0.00  0.00    +0.000 A 
ATOM     16  C   UNL     1       0.971  17.487  17.938  0.00  0.00    +0.000 A 
ATOM     17  C   UNL     1       2.003  17.715  17.031  0.00  0.00    +0.000 A 
ATOM     18  C   UNL     1       3.069  16.811  16.927  0.00  0.00    +0.000 A 
ENDBRANCH   5  13
BRANCH   8  19
ATOM     19  C   UNL     1       9.853  13.143  17.988  0.00  0.00    +0.000 A 
ATOM     20  C   UNL     1      11.128  13.729  17.941  0.00  0.00    +0.000 A 
ATOM     21  C   UNL     1      12.239  13.085  18.482  0.00  0.00    +0.000 A 
ATOM     22  C   UNL     1      12.093  11.832  19.072  0.00  0.00    +0.000 A 
ATOM     23  C   UNL     1      10.838  11.232  19.122  0.00  0.00    +0.000 A 
ATOM     24  C   UNL     1       9.721  11.887  18.590  0.00  0.00    +0.000 A 
ENDBRANCH   8  19
BRANCH   1  25
ATOM     25  C   UNL     1       7.976  15.373  21.987  0.00  0.00    +0.000 C 
BRANCH  25  32
ATOM     26  F   UNL     1       9.563  13.020  21.777  0.00  0.00    +0.000 F 
ATOM     27  C   UNL     1       8.465  12.955  22.546  0.00  0.00    +0.000 A 
ATOM     28  C   UNL     1       8.166  11.757  23.190  0.00  0.00    +0.000 A 
ATOM     29  C   UNL     1       7.029  11.671  23.994  0.00  0.00    +0.000 A 
ATOM     30  C   UNL     1       6.195  12.779  24.147  0.00  0.00    +0.000 A 
ATOM     31  C   UNL     1       6.505  13.973  23.495  0.00  0.00    +0.000 A 
ATOM     32  C   UNL     1       7.651  14.082  22.692  0.00  0.00    +0.000 A 
ENDBRANCH  25  32
ENDBRANCH   1  25
TORSDOF 4
ENDMDL
MODEL 7
REMARK VINA RESULT:      -7.6      1.668      4.650
REMARK  Name = 
REMARK  4 active torsions:
REMARK  status: ('A' for Active; 'I' for Inactive)
REMARK    1  A    between atoms: C_7  and  C_8
REMARK    2  A    between atoms: C_8  and  N_9
REMARK    3  A    between atoms: N_13  and  C_14
REMARK    4  A    between atoms: N_22  and  C_23
REMARK                            x       y       z     vdW  Elec       q    Type
REMARK                         _______ _______ _______ _____ _____    ______ ____
ROOT
ATOM      1  N   UNL     1       3.601   7.498  17.251  0.00  0.00    +0.000 N 
ATOM      2  C   UNL     1       2.867   7.103  18.351  0.00  0.00    +0.000 A 
ATOM      3  N   UNL     1       2.279   8.065  19.027  0.00  0.00    +0.000 NA
ATOM      4  C   UNL     1       1.647   7.716  20.142  0.00  0.00    +0.000 A 
ATOM      5  N   UNL     1       1.140   8.726  20.960  0.00  0.00    +0.000 N 
ATOM      6  N   UNL     1       1.498   6.458  20.544  0.00  0.00    +0.000 NA
ATOM      7  C   UNL     1       2.060   5.547  19.759  0.00  0.00    +0.000 A 
ATOM      8  N   UNL     1       1.841   4.201  20.057  0.00  0.00    +0.000 N 
ATOM      9  N   UNL     1       2.784   5.834  18.681  0.00  0.00    +0.000 NA
ATOM     10  H   UNL     1       2.965   7.903  16.576  0.00  0.00    +0.000 HD
ATOM     11  H   UNL     1       0.803   8.374  21.842  0.00  0.00    +0.000 HD
ATOM     12  H   UNL     1       1.230   4.092  20.853  0.00  0.00    +0.000 HD
ENDROOT
BRANCH   5  13
ATOM     13  C   UNL     1       0.660   9.988  20.571  0.00  0.00    +0.000 A 
ATOM     14  C   UNL     1       1.291  11.174  20.972  0.00  0.00    +0.000 A 
ATOM     15  C   UNL     1       0.785  12.427  20.614  0.00  0.00    +0.000 A 
ATOM     16  C   UNL     1      -0.381  12.512  19.858  0.00  0.00    +0.000 A 
ATOM     17  C   UNL     1      -1.035  11.345  19.469  0.00  0.00    +0.000 A 
ATOM     18  C   UNL     1      -0.517  10.091  19.820  0.00  0.00    +0.000 A 
ENDBRANCH   5  13
BRANCH   8  19
ATOM     19  C   UNL     1       2.717   3.129  19.816  0.00  0.00    +0.000 A 
ATOM     20  C   UNL     1       3.743   2.792  20.712  0.00  0.00    +0.000 A 
ATOM     21  C   UNL     1       4.612   1.735  20.450  0.00  0.00    +0.000 A 
ATOM     22  C   UNL     1       4.476   1.002  19.274  0.00  0.00    +0.000 A 
ATOM     23  C   UNL     1       3.468   1.327  18.369  0.00  0.00    +0.000 A 
ATOM     24  C   UNL     1       2.588   2.380  18.642  0.00  0.00    +0.000 A 
ENDBRANCH   8  19
BRANCH   1  25
ATOM     25  C   UNL     1       4.518   6.522  16.698  0.00  0.00    +0.000 C 
BRANCH  25  32
ATOM     26  F   UNL     1       5.579   4.587  18.494  0.00  0.00    +0.000 F 
ATOM     27  C   UNL     1       6.308   5.693  18.282  0.00  0.00    +0.000 A 
ATOM     28  C   UNL     1       7.526   5.831  18.942  0.00  0.00    +0.000 A 
ATOM     29  C   UNL     1       8.299   6.973  18.733  0.00  0.00    +0.000 A 
ATOM     30  C   UNL     1       7.849   7.974  17.869  0.00  0.00    +0.000 A 
ATOM     31  C   UNL     1       6.626   7.823  17.215  0.00  0.00    +0.000 A 
ATOM     32  C   UNL     1       5.841   6.675  17.404  0.00  0.00    +0.000 A 
ENDBRANCH  25  32
ENDBRANCH   1  25
TORSDOF 4
ENDMDL
MODEL 8
REMARK VINA RESULT:      -7.5      1.679      4.657
REMARK  Name = 
REMARK  4 active torsions:
REMARK  status: ('A' for Active; 'I' for Inactive)
REMARK    1  A    between atoms: C_7  and  C_8
REMARK    2  A    between atoms: C_8  and  N_9
REMARK    3  A    between atoms: N_13  and  C_14
REMARK    4  A    between atoms: N_22  and  C_23
REMARK                            x       y       z     vdW  Elec       q    Type
REMARK                         _______ _______ _______ _____ _____    ______ ____
ROOT
ATOM      1  N   UNL     1       3.617   7.515  17.222  0.00  0.00    +0.000 N 
ATOM      2  C   UNL     1       2.884   7.107  18.319  0.00  0.00    +0.000 A 
ATOM      3  N   UNL     1       2.288   8.060  19.001  0.00  0.00    +0.000 NA
ATOM      4  C   UNL     1       1.657   7.698  20.112  0.00  0.00    +0.000 A 
ATOM      5  N   UNL     1       1.141   8.699  20.936  0.00  0.00    +0.000 N 
ATOM      6  N   UNL     1       1.517   6.436  20.505  0.00  0.00    +0.000 NA
ATOM      7  C   UNL     1       2.088   5.535  19.714  0.00  0.00    +0.000 A 
ATOM      8  N   UNL     1       1.878   4.185  20.003  0.00  0.00    +0.000 N 
ATOM      9  N   UNL     1       2.811   5.835  18.639  0.00  0.00    +0.000 NA
ATOM     10  H   UNL     1       2.979   7.920  16.549  0.00  0.00    +0.000 HD
ATOM     11  H   UNL     1       0.805   8.338  21.815  0.00  0.00    +0.000 HD
ATOM     12  H   UNL     1       1.268   4.066  20.797  0.00  0.00    +0.000 HD
ENDROOT
BRANCH   5  13
ATOM     13  C   UNL     1       0.652   9.959  20.554  0.00  0.00    +0.000 A 
ATOM     14  C   UNL     1      -0.453  10.097  19.702  0.00  0.00    +0.000 A 
ATOM     15  C   UNL     1      -0.909  11.353  19.295  0.00  0.00    +0.000 A 
ATOM     16  C   UNL     1      -0.249  12.502  19.725  0.00  0.00    +0.000 A 
ATOM     17  C   UNL     1       0.865  12.385  20.553  0.00  0.00    +0.000 A 
ATOM     18  C   UNL     1       1.311  11.123  20.968  0.00  0.00    +0.000 A 
ENDBRANCH   5  13
BRANCH   8  19
ATOM     19  C   UNL     1       2.764   3.122  19.756  0.00  0.00    +0.000 A 
ATOM     20  C   UNL     1       2.670   2.330  18.602  0.00  0.00    +0.000 A 
ATOM     21  C   UNL     1       3.547   1.271  18.380  0.00  0.00    +0.000 A 
ATOM     22  C   UNL     1       4.530   0.977  19.321  0.00  0.00    +0.000 A 
ATOM     23  C   UNL     1       4.634   1.748  20.476  0.00  0.00    +0.000 A 
ATOM     24  C   UNL     1       3.761   2.821  20.690  0.00  0.00    +0.000 A 
ENDBRANCH   8  19
BRANCH   1  25
ATOM     25  C   UNL     1       4.543   6.551  16.665  0.00  0.00    +0.000 C 
BRANCH  25  32
ATOM     26  F   UNL     1       5.600   4.593  18.439  0.00  0.00    +0.000 F 
ATOM     27  C   UNL     1       6.326   5.707  18.249  0.00  0.00    +0.000 A 
ATOM     28  C   UNL     1       7.537   5.841  18.921  0.00  0.00    +0.000 A 
ATOM     29  C   UNL     1       8.305   6.991  18.736  0.00  0.00    +0.000 A 
ATOM     30  C   UNL     1       7.857   8.002  17.885  0.00  0.00    +0.000 A 
ATOM     31  C   UNL     1       6.639   7.855  17.219  0.00  0.00    +0.000 A 
ATOM     32  C   UNL     1       5.859   6.700  17.383  0.00  0.00    +0.000 A 
ENDBRANCH  25  32
ENDBRANCH   1  25
TORSDOF 4
ENDMDL
MODEL 9
REMARK VINA RESULT:      -7.4      3.392      9.358
REMARK  Name = 
REMARK  4 active torsions:
REMARK  status: ('A' for Active; 'I' for Inactive)
REMARK    1  A    between atoms: C_7  and  C_8
REMARK    2  A    between atoms: C_8  and  N_9
REMARK    3  A    between atoms: N_13  and  C_14
REMARK    4  A    between atoms: N_22  and  C_23
REMARK                            x       y       z     vdW  Elec       q    Type
REMARK                         _______ _______ _______ _____ _____    ______ ____
ROOT
ATOM      1  N   UNL     1      -0.020  11.199  18.242  0.00  0.00    +0.000 N 
ATOM      2  C   UNL     1       0.131  10.622  19.488  0.00  0.00    +0.000 A 
ATOM      3  N   UNL     1       0.704   9.439  19.509  0.00  0.00    +0.000 NA
ATOM      4  C   UNL     1       0.774   8.826  20.686  0.00  0.00    +0.000 A 
ATOM      5  N   UNL     1       1.240   7.512  20.721  0.00  0.00    +0.000 N 
ATOM      6  N   UNL     1       0.391   9.381  21.831  0.00  0.00    +0.000 NA
ATOM      7  C   UNL     1      -0.106  10.607  21.723  0.00  0.00    +0.000 A 
ATOM      8  N   UNL     1      -0.416  11.294  22.899  0.00  0.00    +0.000 N 
ATOM      9  N   UNL     1      -0.288  11.241  20.568  0.00  0.00    +0.000 NA
ATOM     10  H   UNL     1       0.902  11.379  17.864  0.00  0.00    +0.000 HD
ATOM     11  H   UNL     1       1.127   7.088  21.629  0.00  0.00    +0.000 HD
ATOM     12  H   UNL     1      -0.184  10.752  23.717  0.00  0.00    +0.000 HD
ENDROOT
BRANCH   5  13
ATOM     13  C   UNL     1       2.178   6.909  19.866  0.00  0.00    +0.000 A 
ATOM     14  C   UNL     1       2.615   7.534  18.691  0.00  0.00    +0.000 A 
ATOM     15  C   UNL     1       3.518   6.911  17.825  0.00  0.00    +0.000 A 
ATOM     16  C   UNL     1       3.987   5.633  18.117  0.00  0.00    +0.000 A 
ATOM     17  C   UNL     1       3.546   4.985  19.269  0.00  0.00    +0.000 A 
ATOM     18  C   UNL     1       2.650   5.619  20.140  0.00  0.00    +0.000 A 
ENDBRANCH   5  13
BRANCH   8  19
ATOM     19  C   UNL     1      -1.430  12.250  23.075  0.00  0.00    +0.000 A 
ATOM     20  C   UNL     1      -1.165  13.628  23.050  0.00  0.00    +0.000 A 
ATOM     21  C   UNL     1      -2.180  14.563  23.241  0.00  0.00    +0.000 A 
ATOM     22  C   UNL     1      -3.483  14.131  23.474  0.00  0.00    +0.000 A 
ATOM     23  C   UNL     1      -3.765  12.767  23.509  0.00  0.00    +0.000 A 
ATOM     24  C   UNL     1      -2.745  11.831  23.303  0.00  0.00    +0.000 A 
ENDBRANCH   8  19
BRANCH   1  25
ATOM     25  C   UNL     1      -0.933  12.319  18.153  0.00  0.00    +0.000 C 
BRANCH  25  32
ATOM     26  F   UNL     1      -3.173  12.482  19.900  0.00  0.00    +0.000 F 
ATOM     27  C   UNL     1      -3.361  11.884  18.713  0.00  0.00    +0.000 A 
ATOM     28  C   UNL     1      -4.623  11.383  18.407  0.00  0.00    +0.000 A 
ATOM     29  C   UNL     1      -4.838  10.759  17.178  0.00  0.00    +0.000 A 
ATOM     30  C   UNL     1      -3.790  10.634  16.264  0.00  0.00    +0.000 A 
ATOM     31  C   UNL     1      -2.530  11.139  16.585  0.00  0.00    +0.000 A 
ATOM     32  C   UNL     1      -2.298  11.781  17.811  0.00  0.00    +0.000 A 
ENDBRANCH  25  32
ENDBRANCH   1  25
TORSDOF 4
ENDMDL
