MODEL 1
REMARK VINA RESULT:      -8.4      0.000      0.000
REMARK  Name = 
REMARK  10 active torsions:
REMARK  status: ('A' for Active; 'I' for Inactive)
REMARK    1  A    between atoms: C_1  and  C_2
REMARK    2  A    between atoms: C_7  and  C_8
REMARK    3  A    between atoms: C_11  and  C_12
REMARK    4  A    between atoms: C_12  and  N_13
REMARK    5  A    between atoms: C_18  and  C_19
REMARK    6  A    between atoms: N_21  and  C_22
REMARK    7  A    between atoms: C_22  and  C_23
REMARK    8  A    between atoms: N_30  and  C_31
REMARK    9  A    between atoms: C_31  and  C_32
REMARK   10  A    between atoms: C_32  and  O_33
REMARK                            x       y       z     vdW  Elec       q    Type
REMARK                         _______ _______ _______ _____ _____    ______ ____
ROOT
ATOM      1  N   UNL     1      -1.111  12.442  21.460  0.00  0.00    +0.000 NA
ATOM      2  C   UNL     1      -1.242  13.437  22.558  0.00  0.00    +0.000 C 
ATOM      3  C   UNL     1      -2.527  13.357  23.427  0.00  0.00    +0.000 C 
ATOM      4  C   UNL     1      -3.686  13.011  22.562  0.00  0.00    +0.000 A 
ATOM      5  C   UNL     1      -3.585  12.618  21.247  0.00  0.00    +0.000 A 
ATOM      6  C   UNL     1      -4.925  12.334  20.843  0.00  0.00    +0.000 A 
ATOM      7  N   UNL     1      -5.786  12.529  21.869  0.00  0.00    +0.000 NA
ATOM      8  N   UNL     1      -4.994  12.884  22.912  0.00  0.00    +0.000 N 
ATOM      9  C   UNL     1      -2.275  12.526  20.519  0.00  0.00    +0.000 C 
ENDROOT
BRANCH   6  10
ATOM     10  C   UNL     1      -5.371  11.838  19.523  0.00  0.00    +0.000 C 
ATOM     11  O   UNL     1      -6.234  10.969  19.420  0.00  0.00    +0.000 OA
ATOM     12  N   UNL     1      -4.782  12.440  18.423  0.00  0.00    +0.000 N 
ATOM     13  H   UNL     1      -3.942  12.985  18.607  0.00  0.00    +0.000 HD
BRANCH  12  14
ATOM     14  C   UNL     1      -5.126  12.011  17.086  0.00  0.00    +0.000 C 
BRANCH  14  15
ATOM     15  C   UNL     1      -4.148  11.058  16.437  0.00  0.00    +0.000 A 
ATOM     16  C   UNL     1      -4.173  10.907  15.037  0.00  0.00    +0.000 A 
ATOM     17  C   UNL     1      -3.231  10.107  14.377  0.00  0.00    +0.000 A 
ATOM     18  C   UNL     1      -2.247   9.451  15.109  0.00  0.00    +0.000 A 
ATOM     19  C   UNL     1      -2.198   9.600  16.492  0.00  0.00    +0.000 A 
ATOM     20  C   UNL     1      -3.135  10.405  17.150  0.00  0.00    +0.000 A 
ENDBRANCH  14  15
ENDBRANCH  12  14
ENDBRANCH   6  10
BRANCH   1  21
ATOM     21  C   UNL     1      -0.928  11.057  21.944  0.00  0.00    +0.000 C 
BRANCH  21  25
ATOM     22  C   UNL     1       1.577   8.244  19.626  0.00  0.00    +0.000 A 
ATOM     23  C   UNL     1       1.328   8.127  21.008  0.00  0.00    +0.000 A 
ATOM     24  C   UNL     1       0.514   9.022  21.719  0.00  0.00    +0.000 A 
ATOM     25  C   UNL     1      -0.052  10.137  21.102  0.00  0.00    +0.000 A 
ATOM     26  C   UNL     1       0.151  10.265  19.723  0.00  0.00    +0.000 A 
ATOM     27  C   UNL     1       0.938   9.325  18.999  0.00  0.00    +0.000 A 
BRANCH  22  34
ATOM     28  C   UNL     1       1.635   5.107  20.172  0.00  0.00    +0.000 C 
ATOM     29  C   UNL     1       2.455   5.818  19.130  0.00  0.00    +0.000 A 
ATOM     30  C   UNL     1       3.283   4.978  18.336  0.00  0.00    +0.000 A 
ATOM     31  C   UNL     1       4.108   5.487  17.339  0.00  0.00    +0.000 A 
ATOM     32  C   UNL     1       4.154   6.854  17.144  0.00  0.00    +0.000 A 
ATOM     33  C   UNL     1       3.367   7.695  17.938  0.00  0.00    +0.000 A 
ATOM     34  C   UNL     1       2.465   7.227  18.936  0.00  0.00    +0.000 A 
ENDBRANCH  22  34
ENDBRANCH  21  25
ENDBRANCH   1  21
BRANCH   8  35
ATOM     35  C   UNL     1      -5.549  12.917  24.253  0.00  0.00    +0.000 C 
BRANCH  35  36
ATOM     36  C   UNL     1      -7.070  12.807  24.233  0.00  0.00    +0.000 C 
BRANCH  36  37
ATOM     37  O   UNL     1      -7.506  11.487  23.910  0.00  0.00    +0.000 OA
ATOM     38  H   UNL     1      -7.153  11.290  23.021  0.00  0.00    +0.000 HD
ENDBRANCH  36  37
ENDBRANCH  35  36
ENDBRANCH   8  35
TORSDOF 9
ENDMDL
MODEL 2
REMARK VINA RESULT:      -8.1      2.473      4.282
REMARK  Name = 
REMARK  10 active torsions:
REMARK  status: ('A' for Active; 'I' for Inactive)
REMARK    1  A    between atoms: C_1  and  C_2
REMARK    2  A    between atoms: C_7  and  C_8
REMARK    3  A    between atoms: C_11  and  C_12
REMARK    4  A    between atoms: C_12  and  N_13
REMARK    5  A    between atoms: C_18  and  C_19
REMARK    6  A    between atoms: N_21  and  C_22
REMARK    7  A    between atoms: C_22  and  C_23
REMARK    8  A    between atoms: N_30  and  C_31
REMARK    9  A    between atoms: C_31  and  C_32
REMARK   10  A    between atoms: C_32  and  O_33
REMARK                            x       y       z     vdW  Elec       q    Type
REMARK                         _______ _______ _______ _____ _____    ______ ____
ROOT
ATOM      1  N   UNL     1      -0.558  11.507  19.054  0.00  0.00    +0.000 NA
ATOM      2  C   UNL     1       0.277  12.671  18.653  0.00  0.00    +0.000 C 
ATOM      3  C   UNL     1       0.615  13.705  19.762  0.00  0.00    +0.000 C 
ATOM      4  C   UNL     1      -0.564  13.876  20.653  0.00  0.00    +0.000 A 
ATOM      5  C   UNL     1      -1.687  13.081  20.617  0.00  0.00    +0.000 A 
ATOM      6  C   UNL     1      -2.515  13.566  21.674  0.00  0.00    +0.000 A 
ATOM      7  N   UNL     1      -1.912  14.588  22.326  0.00  0.00    +0.000 NA
ATOM      8  N   UNL     1      -0.706  14.711  21.716  0.00  0.00    +0.000 N 
ATOM      9  C   UNL     1      -1.864  11.958  19.636  0.00  0.00    +0.000 C 
ENDROOT
BRANCH   6  10
ATOM     10  C   UNL     1      -3.831  13.034  22.090  0.00  0.00    +0.000 C 
ATOM     11  O   UNL     1      -3.943  12.268  23.045  0.00  0.00    +0.000 OA
ATOM     12  N   UNL     1      -4.920  13.482  21.359  0.00  0.00    +0.000 N 
ATOM     13  H   UNL     1      -4.708  13.935  20.472  0.00  0.00    +0.000 HD
BRANCH  12  14
ATOM     14  C   UNL     1      -6.249  13.003  21.664  0.00  0.00    +0.000 C 
BRANCH  14  15
ATOM     15  C   UNL     1      -6.698  11.788  20.885  0.00  0.00    +0.000 A 
ATOM     16  C   UNL     1      -6.107  11.526  19.634  0.00  0.00    +0.000 A 
ATOM     17  C   UNL     1      -6.420  10.367  18.912  0.00  0.00    +0.000 A 
ATOM     18  C   UNL     1      -7.325   9.449  19.436  0.00  0.00    +0.000 A 
ATOM     19  C   UNL     1      -7.907   9.683  20.678  0.00  0.00    +0.000 A 
ATOM     20  C   UNL     1      -7.589  10.839  21.402  0.00  0.00    +0.000 A 
ENDBRANCH  14  15
ENDBRANCH  12  14
ENDBRANCH   6  10
BRANCH   1  21
ATOM     21  C   UNL     1       0.134  10.580  19.975  0.00  0.00    +0.000 C 
BRANCH  21  25
ATOM     22  C   UNL     1       2.602   7.318  18.291  0.00  0.00    +0.000 A 
ATOM     23  C   UNL     1       2.213   7.399  19.643  0.00  0.00    +0.000 A 
ATOM     24  C   UNL     1       1.413   8.434  20.151  0.00  0.00    +0.000 A 
ATOM     25  C   UNL     1       1.005   9.498  19.348  0.00  0.00    +0.000 A 
ATOM     26  C   UNL     1       1.349   9.432  17.992  0.00  0.00    +0.000 A 
ATOM     27  C   UNL     1       2.119   8.353  17.474  0.00  0.00    +0.000 A 
BRANCH  22  34
ATOM     28  C   UNL     1       1.681   4.285  17.985  0.00  0.00    +0.000 C 
ATOM     29  C   UNL     1       3.044   4.814  17.630  0.00  0.00    +0.000 A 
ATOM     30  C   UNL     1       3.945   3.854  17.095  0.00  0.00    +0.000 A 
ATOM     31  C   UNL     1       5.244   4.187  16.729  0.00  0.00    +0.000 A 
ATOM     32  C   UNL     1       5.684   5.480  16.930  0.00  0.00    +0.000 A 
ATOM     33  C   UNL     1       4.818   6.429  17.484  0.00  0.00    +0.000 A 
ATOM     34  C   UNL     1       3.462   6.160  17.827  0.00  0.00    +0.000 A 
ENDBRANCH  22  34
ENDBRANCH  21  25
ENDBRANCH   1  21
BRANCH   8  35
ATOM     35  C   UNL     1       0.321  15.539  22.323  0.00  0.00    +0.000 C 
BRANCH  35  36
ATOM     36  C   UNL     1       0.284  16.965  21.782  0.00  0.00    +0.000 C 
BRANCH  36  37
ATOM     37  O   UNL     1      -1.041  17.496  21.768  0.00  0.00    +0.000 OA
ATOM     38  H   UNL     1      -1.043  18.215  21.108  0.00  0.00    +0.000 HD
ENDBRANCH  36  37
ENDBRANCH  35  36
ENDBRANCH   8  35
TORSDOF 9
ENDMDL
MODEL 3
REMARK VINA RESULT:      -8.0      2.625      4.411
REMARK  Name = 
REMARK  10 active torsions:
REMARK  status: ('A' for Active; 'I' for Inactive)
REMARK    1  A    between atoms: C_1  and  C_2
REMARK    2  A    between atoms: C_7  and  C_8
REMARK    3  A    between atoms: C_11  and  C_12
REMARK    4  A    between atoms: C_12  and  N_13
REMARK    5  A    between atoms: C_18  and  C_19
REMARK    6  A    between atoms: N_21  and  C_22
REMARK    7  A    between atoms: C_22  and  C_23
REMARK    8  A    between atoms: N_30  and  C_31
REMARK    9  A    between atoms: C_31  and  C_32
REMARK   10  A    between atoms: C_32  and  O_33
REMARK                            x       y       z     vdW  Elec       q    Type
REMARK                         _______ _______ _______ _____ _____    ______ ____
ROOT
ATOM      1  N   UNL     1       0.002  12.080  18.755  0.00  0.00    +0.000 NA
ATOM      2  C   UNL     1       0.934  13.159  18.329  0.00  0.00    +0.000 C 
ATOM      3  C   UNL     1       1.200  14.299  19.350  0.00  0.00    +0.000 C 
ATOM      4  C   UNL     1      -0.061  14.614  20.075  0.00  0.00    +0.000 A 
ATOM      5  C   UNL     1      -1.211  13.864  19.996  0.00  0.00    +0.000 A 
ATOM      6  C   UNL     1      -2.126  14.497  20.892  0.00  0.00    +0.000 A 
ATOM      7  N   UNL     1      -1.548  15.563  21.493  0.00  0.00    +0.000 NA
ATOM      8  N   UNL     1      -0.277  15.571  21.018  0.00  0.00    +0.000 N 
ATOM      9  C   UNL     1      -1.335  12.644  19.129  0.00  0.00    +0.000 C 
ENDROOT
BRANCH   6  10
ATOM     10  C   UNL     1      -3.505  14.067  21.207  0.00  0.00    +0.000 C 
ATOM     11  O   UNL     1      -3.769  13.459  22.243  0.00  0.00    +0.000 OA
ATOM     12  N   UNL     1      -4.474  14.422  20.283  0.00  0.00    +0.000 N 
ATOM     13  H   UNL     1      -4.134  14.729  19.373  0.00  0.00    +0.000 HD
BRANCH  12  14
ATOM     14  C   UNL     1      -5.851  14.027  20.481  0.00  0.00    +0.000 C 
BRANCH  14  15
ATOM     15  C   UNL     1      -6.220  12.664  19.942  0.00  0.00    +0.000 A 
ATOM     16  C   UNL     1      -5.633  12.225  18.740  0.00  0.00    +0.000 A 
ATOM     17  C   UNL     1      -5.871  10.937  18.243  0.00  0.00    +0.000 A 
ATOM     18  C   UNL     1      -6.695  10.065  18.949  0.00  0.00    +0.000 A 
ATOM     19  C   UNL     1      -7.271  10.476  20.147  0.00  0.00    +0.000 A 
ATOM     20  C   UNL     1      -7.028  11.762  20.646  0.00  0.00    +0.000 A 
ENDBRANCH  14  15
ENDBRANCH  12  14
ENDBRANCH   6  10
BRANCH   1  21
ATOM     21  C   UNL     1       0.540  11.238  19.845  0.00  0.00    +0.000 C 
BRANCH  21  25
ATOM     22  C   UNL     1       2.225   7.352  18.574  0.00  0.00    +0.000 A 
ATOM     23  C   UNL     1       1.962   8.424  17.699  0.00  0.00    +0.000 A 
ATOM     24  C   UNL     1       1.444   9.655  18.128  0.00  0.00    +0.000 A 
ATOM     25  C   UNL     1       1.091   9.871  19.459  0.00  0.00    +0.000 A 
ATOM     26  C   UNL     1       1.370   8.837  20.360  0.00  0.00    +0.000 A 
ATOM     27  C   UNL     1       1.941   7.608  19.925  0.00  0.00    +0.000 A 
BRANCH  22  34
ATOM     28  C   UNL     1       5.132   6.936  17.341  0.00  0.00    +0.000 C 
ATOM     29  C   UNL     1       4.109   5.848  17.528  0.00  0.00    +0.000 A 
ATOM     30  C   UNL     1       4.529   4.549  17.135  0.00  0.00    +0.000 A 
ATOM     31  C   UNL     1       3.693   3.443  17.235  0.00  0.00    +0.000 A 
ATOM     32  C   UNL     1       2.403   3.620  17.693  0.00  0.00    +0.000 A 
ATOM     33  C   UNL     1       1.965   4.899  18.056  0.00  0.00    +0.000 A 
ATOM     34  C   UNL     1       2.793   6.057  18.025  0.00  0.00    +0.000 A 
ENDBRANCH  22  34
ENDBRANCH  21  25
ENDBRANCH   1  21
BRANCH   8  35
ATOM     35  C   UNL     1       0.717  16.422  21.646  0.00  0.00    +0.000 C 
BRANCH  35  36
ATOM     36  C   UNL     1       0.500  16.519  23.153  0.00  0.00    +0.000 C 
BRANCH  36  37
ATOM     37  O   UNL     1       0.131  15.263  23.720  0.00  0.00    +0.000 OA
ATOM     38  H   UNL     1      -0.229  14.725  22.988  0.00  0.00    +0.000 HD
ENDBRANCH  36  37
ENDBRANCH  35  36
ENDBRANCH   8  35
TORSDOF 9
ENDMDL
MODEL 4
REMARK VINA RESULT:      -8.0      3.485      4.994
REMARK  Name = 
REMARK  10 active torsions:
REMARK  status: ('A' for Active; 'I' for Inactive)
REMARK    1  A    between atoms: C_1  and  C_2
REMARK    2  A    between atoms: C_7  and  C_8
REMARK    3  A    between atoms: C_11  and  C_12
REMARK    4  A    between atoms: C_12  and  N_13
REMARK    5  A    between atoms: C_18  and  C_19
REMARK    6  A    between atoms: N_21  and  C_22
REMARK    7  A    between atoms: C_22  and  C_23
REMARK    8  A    between atoms: N_30  and  C_31
REMARK    9  A    between atoms: C_31  and  C_32
REMARK   10  A    between atoms: C_32  and  O_33
REMARK                            x       y       z     vdW  Elec       q    Type
REMARK                         _______ _______ _______ _____ _____    ______ ____
ROOT
ATOM      1  N   UNL     1       0.651  11.007  21.555  0.00  0.00    +0.000 NA
ATOM      2  C   UNL     1      -0.067  10.559  22.778  0.00  0.00    +0.000 C 
ATOM      3  C   UNL     1      -1.538  11.032  22.940  0.00  0.00    +0.000 C 
ATOM      4  C   UNL     1      -1.664  12.429  22.445  0.00  0.00    +0.000 A 
ATOM      5  C   UNL     1      -0.678  13.102  21.759  0.00  0.00    +0.000 A 
ATOM      6  C   UNL     1      -1.254  14.368  21.435  0.00  0.00    +0.000 A 
ATOM      7  N   UNL     1      -2.528  14.444  21.887  0.00  0.00    +0.000 NA
ATOM      8  N   UNL     1      -2.762  13.230  22.443  0.00  0.00    +0.000 N 
ATOM      9  C   UNL     1       0.666  12.503  21.461  0.00  0.00    +0.000 C 
ENDROOT
BRANCH   6  10
ATOM     10  C   UNL     1      -0.623  15.463  20.667  0.00  0.00    +0.000 C 
ATOM     11  O   UNL     1      -0.789  16.642  20.971  0.00  0.00    +0.000 OA
ATOM     12  N   UNL     1       0.188  15.070  19.614  0.00  0.00    +0.000 N 
ATOM     13  H   UNL     1       0.094  14.102  19.314  0.00  0.00    +0.000 HD
BRANCH  12  14
ATOM     14  C   UNL     1       0.831  16.060  18.781  0.00  0.00    +0.000 C 
BRANCH  14  15
ATOM     15  C   UNL     1       2.343  16.043  18.799  0.00  0.00    +0.000 A 
ATOM     16  C   UNL     1       3.024  15.187  17.912  0.00  0.00    +0.000 A 
ATOM     17  C   UNL     1       4.422  15.197  17.824  0.00  0.00    +0.000 A 
ATOM     18  C   UNL     1       5.159  16.070  18.619  0.00  0.00    +0.000 A 
ATOM     19  C   UNL     1       4.502  16.933  19.491  0.00  0.00    +0.000 A 
ATOM     20  C   UNL     1       3.104  16.927  19.573  0.00  0.00    +0.000 A 
ENDBRANCH  14  15
ENDBRANCH  12  14
ENDBRANCH   6  10
BRANCH   1  21
ATOM     21  C   UNL     1       0.121  10.409  20.312  0.00  0.00    +0.000 C 
BRANCH  21  25
ATOM     22  C   UNL     1       2.598   7.284  18.399  0.00  0.00    +0.000 A 
ATOM     23  C   UNL     1       2.210   7.267  19.753  0.00  0.00    +0.000 A 
ATOM     24  C   UNL     1       1.408   8.261  20.334  0.00  0.00    +0.000 A 
ATOM     25  C   UNL     1       0.994   9.378  19.608  0.00  0.00    +0.000 A 
ATOM     26  C   UNL     1       1.336   9.409  18.251  0.00  0.00    +0.000 A 
ATOM     27  C   UNL     1       2.110   8.372  17.657  0.00  0.00    +0.000 A 
BRANCH  22  34
ATOM     28  C   UNL     1       1.718   4.251  17.981  0.00  0.00    +0.000 C 
ATOM     29  C   UNL     1       3.059   4.822  17.606  0.00  0.00    +0.000 A 
ATOM     30  C   UNL     1       3.957   3.904  16.997  0.00  0.00    +0.000 A 
ATOM     31  C   UNL     1       5.238   4.277  16.605  0.00  0.00    +0.000 A 
ATOM     32  C   UNL     1       5.663   5.567  16.852  0.00  0.00    +0.000 A 
ATOM     33  C   UNL     1       4.800   6.474  17.478  0.00  0.00    +0.000 A 
ATOM     34  C   UNL     1       3.461   6.164  17.852  0.00  0.00    +0.000 A 
ENDBRANCH  22  34
ENDBRANCH  21  25
ENDBRANCH   1  21
BRANCH   8  35
ATOM     35  C   UNL     1      -4.119  12.855  22.799  0.00  0.00    +0.000 C 
BRANCH  35  36
ATOM     36  C   UNL     1      -4.362  12.987  24.299  0.00  0.00    +0.000 C 
BRANCH  36  37
ATOM     37  O   UNL     1      -4.741  11.743  24.889  0.00  0.00    +0.000 OA
ATOM     38  H   UNL     1      -4.606  11.061  24.203  0.00  0.00    +0.000 HD
ENDBRANCH  36  37
ENDBRANCH  35  36
ENDBRANCH   8  35
TORSDOF 9
ENDMDL
MODEL 5
REMARK VINA RESULT:      -7.9      3.282      5.018
REMARK  Name = 
REMARK  10 active torsions:
REMARK  status: ('A' for Active; 'I' for Inactive)
REMARK    1  A    between atoms: C_1  and  C_2
REMARK    2  A    between atoms: C_7  and  C_8
REMARK    3  A    between atoms: C_11  and  C_12
REMARK    4  A    between atoms: C_12  and  N_13
REMARK    5  A    between atoms: C_18  and  C_19
REMARK    6  A    between atoms: N_21  and  C_22
REMARK    7  A    between atoms: C_22  and  C_23
REMARK    8  A    between atoms: N_30  and  C_31
REMARK    9  A    between atoms: C_31  and  C_32
REMARK   10  A    between atoms: C_32  and  O_33
REMARK                            x       y       z     vdW  Elec       q    Type
REMARK                         _______ _______ _______ _____ _____    ______ ____
ROOT
ATOM      1  N   UNL     1       0.624  10.717  21.768  0.00  0.00    +0.000 NA
ATOM      2  C   UNL     1      -0.140  10.350  22.990  0.00  0.00    +0.000 C 
ATOM      3  C   UNL     1      -1.597  10.876  23.090  0.00  0.00    +0.000 C 
ATOM      4  C   UNL     1      -1.665  12.251  22.527  0.00  0.00    +0.000 A 
ATOM      5  C   UNL     1      -0.641  12.860  21.838  0.00  0.00    +0.000 A 
ATOM      6  C   UNL     1      -1.166  14.127  21.440  0.00  0.00    +0.000 A 
ATOM      7  N   UNL     1      -2.448  14.265  21.853  0.00  0.00    +0.000 NA
ATOM      8  N   UNL     1      -2.736  13.086  22.459  0.00  0.00    +0.000 N 
ATOM      9  C   UNL     1       0.691  12.206  21.605  0.00  0.00    +0.000 C 
ENDROOT
BRANCH   6  10
ATOM     10  C   UNL     1      -0.480  15.164  20.639  0.00  0.00    +0.000 C 
ATOM     11  O   UNL     1      -1.001  15.655  19.640  0.00  0.00    +0.000 OA
ATOM     12  N   UNL     1       0.761  15.564  21.108  0.00  0.00    +0.000 N 
ATOM     13  H   UNL     1       1.193  14.960  21.805  0.00  0.00    +0.000 HD
BRANCH  12  14
ATOM     14  C   UNL     1       1.529  16.552  20.385  0.00  0.00    +0.000 C 
BRANCH  14  15
ATOM     15  C   UNL     1       2.614  16.003  19.488  0.00  0.00    +0.000 A 
ATOM     16  C   UNL     1       3.746  16.798  19.224  0.00  0.00    +0.000 A 
ATOM     17  C   UNL     1       4.821  16.305  18.473  0.00  0.00    +0.000 A 
ATOM     18  C   UNL     1       4.781  15.004  17.981  0.00  0.00    +0.000 A 
ATOM     19  C   UNL     1       3.677  14.198  18.244  0.00  0.00    +0.000 A 
ATOM     20  C   UNL     1       2.606  14.690  19.000  0.00  0.00    +0.000 A 
ENDBRANCH  14  15
ENDBRANCH  12  14
ENDBRANCH   6  10
BRANCH   1  21
ATOM     21  C   UNL     1       0.107  10.078  20.539  0.00  0.00    +0.000 C 
BRANCH  21  25
ATOM     22  C   UNL     1       2.697   7.105  18.536  0.00  0.00    +0.000 A 
ATOM     23  C   UNL     1       2.177   8.254  17.906  0.00  0.00    +0.000 A 
ATOM     24  C   UNL     1       1.372   9.193  18.568  0.00  0.00    +0.000 A 
ATOM     25  C   UNL     1       0.977   9.008  19.892  0.00  0.00    +0.000 A 
ATOM     26  C   UNL     1       1.503   7.893  20.556  0.00  0.00    +0.000 A 
ATOM     27  C   UNL     1       2.359   6.970  19.892  0.00  0.00    +0.000 A 
BRANCH  22  34
ATOM     28  C   UNL     1       2.328   3.948  18.339  0.00  0.00    +0.000 C 
ATOM     29  C   UNL     1       3.373   4.743  17.604  0.00  0.00    +0.000 A 
ATOM     30  C   UNL     1       4.218   3.986  16.749  0.00  0.00    +0.000 A 
ATOM     31  C   UNL     1       5.239   4.576  16.012  0.00  0.00    +0.000 A 
ATOM     32  C   UNL     1       5.463   5.932  16.147  0.00  0.00    +0.000 A 
ATOM     33  C   UNL     1       4.658   6.685  17.009  0.00  0.00    +0.000 A 
ATOM     34  C   UNL     1       3.565   6.146  17.746  0.00  0.00    +0.000 A 
ENDBRANCH  22  34
ENDBRANCH  21  25
ENDBRANCH   1  21
BRANCH   8  35
ATOM     35  C   UNL     1      -4.114  12.772  22.794  0.00  0.00    +0.000 C 
BRANCH  35  36
ATOM     36  C   UNL     1      -4.344  12.804  24.302  0.00  0.00    +0.000 C 
BRANCH  36  37
ATOM     37  O   UNL     1      -5.159  11.716  24.740  0.00  0.00    +0.000 OA
ATOM     38  H   UNL     1      -4.594  11.163  25.315  0.00  0.00    +0.000 HD
ENDBRANCH  36  37
ENDBRANCH  35  36
ENDBRANCH   8  35
TORSDOF 9
ENDMDL
MODEL 6
REMARK VINA RESULT:      -7.9      3.640      5.265
REMARK  Name = 
REMARK  10 active torsions:
REMARK  status: ('A' for Active; 'I' for Inactive)
REMARK    1  A    between atoms: C_1  and  C_2
REMARK    2  A    between atoms: C_7  and  C_8
REMARK    3  A    between atoms: C_11  and  C_12
REMARK    4  A    between atoms: C_12  and  N_13
REMARK    5  A    between atoms: C_18  and  C_19
REMARK    6  A    between atoms: N_21  and  C_22
REMARK    7  A    between atoms: C_22  and  C_23
REMARK    8  A    between atoms: N_30  and  C_31
REMARK    9  A    between atoms: C_31  and  C_32
REMARK   10  A    between atoms: C_32  and  O_33
REMARK                            x       y       z     vdW  Elec       q    Type
REMARK                         _______ _______ _______ _____ _____    ______ ____
ROOT
ATOM      1  N   UNL     1       0.512  11.255  21.539  0.00  0.00    +0.000 NA
ATOM      2  C   UNL     1      -0.428  10.908  22.639  0.00  0.00    +0.000 C 
ATOM      3  C   UNL     1      -1.844  11.543  22.576  0.00  0.00    +0.000 C 
ATOM      4  C   UNL     1      -1.737  12.937  22.067  0.00  0.00    +0.000 A 
ATOM      5  C   UNL     1      -0.591  13.486  21.540  0.00  0.00    +0.000 A 
ATOM      6  C   UNL     1      -0.967  14.803  21.133  0.00  0.00    +0.000 A 
ATOM      7  N   UNL     1      -2.278  15.026  21.386  0.00  0.00    +0.000 NA
ATOM      8  N   UNL     1      -2.727  13.854  21.900  0.00  0.00    +0.000 N 
ATOM      9  C   UNL     1       0.708  12.738  21.449  0.00  0.00    +0.000 C 
ENDROOT
BRANCH   6  10
ATOM     10  C   UNL     1      -0.109  15.808  20.470  0.00  0.00    +0.000 C 
ATOM     11  O   UNL     1       0.240  16.837  21.045  0.00  0.00    +0.000 OA
ATOM     12  N   UNL     1       0.298  15.497  19.182  0.00  0.00    +0.000 N 
ATOM     13  H   UNL     1      -0.207  14.742  18.723  0.00  0.00    +0.000 HD
BRANCH  12  14
ATOM     14  C   UNL     1       1.117  16.424  18.433  0.00  0.00    +0.000 C 
BRANCH  14  15
ATOM     15  C   UNL     1       2.604  16.156  18.470  0.00  0.00    +0.000 A 
ATOM     16  C   UNL     1       3.418  16.954  19.297  0.00  0.00    +0.000 A 
ATOM     17  C   UNL     1       4.787  16.691  19.439  0.00  0.00    +0.000 A 
ATOM     18  C   UNL     1       5.359  15.620  18.759  0.00  0.00    +0.000 A 
ATOM     19  C   UNL     1       4.567  14.811  17.950  0.00  0.00    +0.000 A 
ATOM     20  C   UNL     1       3.198  15.071  17.814  0.00  0.00    +0.000 A 
ENDBRANCH  14  15
ENDBRANCH  12  14
ENDBRANCH   6  10
BRANCH   1  21
ATOM     21  C   UNL     1       0.112  10.698  20.229  0.00  0.00    +0.000 C 
BRANCH  21  25
ATOM     22  C   UNL     1       2.502   7.367  18.570  0.00  0.00    +0.000 A 
ATOM     23  C   UNL     1       2.066   8.478  17.821  0.00  0.00    +0.000 A 
ATOM     24  C   UNL     1       1.324   9.533  18.373  0.00  0.00    +0.000 A 
ATOM     25  C   UNL     1       0.911   9.511  19.705  0.00  0.00    +0.000 A 
ATOM     26  C   UNL     1       1.354   8.436  20.484  0.00  0.00    +0.000 A 
ATOM     27  C   UNL     1       2.148   7.394  19.928  0.00  0.00    +0.000 A 
BRANCH  22  34
ATOM     28  C   UNL     1       1.698   4.294  18.341  0.00  0.00    +0.000 C 
ATOM     29  C   UNL     1       2.928   4.913  17.733  0.00  0.00    +0.000 A 
ATOM     30  C   UNL     1       3.747   4.023  16.987  0.00  0.00    +0.000 A 
ATOM     31  C   UNL     1       4.923   4.443  16.375  0.00  0.00    +0.000 A 
ATOM     32  C   UNL     1       5.327   5.754  16.532  0.00  0.00    +0.000 A 
ATOM     33  C   UNL     1       4.545   6.634  17.289  0.00  0.00    +0.000 A 
ATOM     34  C   UNL     1       3.306   6.275  17.892  0.00  0.00    +0.000 A 
ENDBRANCH  22  34
ENDBRANCH  21  25
ENDBRANCH   1  21
BRANCH   8  35
ATOM     35  C   UNL     1      -4.155  13.638  22.046  0.00  0.00    +0.000 C 
BRANCH  35  36
ATOM     36  C   UNL     1      -4.913  14.029  20.781  0.00  0.00    +0.000 C 
BRANCH  36  37
ATOM     37  O   UNL     1      -4.309  13.485  19.607  0.00  0.00    +0.000 OA
ATOM     38  H   UNL     1      -3.499  14.007  19.447  0.00  0.00    +0.000 HD
ENDBRANCH  36  37
ENDBRANCH  35  36
ENDBRANCH   8  35
TORSDOF 9
ENDMDL
MODEL 7
REMARK VINA RESULT:      -7.8      3.457      4.471
REMARK  Name = 
REMARK  10 active torsions:
REMARK  status: ('A' for Active; 'I' for Inactive)
REMARK    1  A    between atoms: C_1  and  C_2
REMARK    2  A    between atoms: C_7  and  C_8
REMARK    3  A    between atoms: C_11  and  C_12
REMARK    4  A    between atoms: C_12  and  N_13
REMARK    5  A    between atoms: C_18  and  C_19
REMARK    6  A    between atoms: N_21  and  C_22
REMARK    7  A    between atoms: C_22  and  C_23
REMARK    8  A    between atoms: N_30  and  C_31
REMARK    9  A    between atoms: C_31  and  C_32
REMARK   10  A    between atoms: C_32  and  O_33
REMARK                            x       y       z     vdW  Elec       q    Type
REMARK                         _______ _______ _______ _____ _____    ______ ____
ROOT
ATOM      1  N   UNL     1       0.396  11.484  21.608  0.00  0.00    +0.000 NA
ATOM      2  C   UNL     1      -0.244  10.865  22.800  0.00  0.00    +0.000 C 
ATOM      3  C   UNL     1      -1.750  11.171  23.025  0.00  0.00    +0.000 C 
ATOM      4  C   UNL     1      -2.027  12.585  22.651  0.00  0.00    +0.000 A 
ATOM      5  C   UNL     1      -1.131  13.408  22.009  0.00  0.00    +0.000 A 
ATOM      6  C   UNL     1      -1.838  14.632  21.802  0.00  0.00    +0.000 A 
ATOM      7  N   UNL     1      -3.102  14.541  22.279  0.00  0.00    +0.000 NA
ATOM      8  N   UNL     1      -3.200  13.267  22.735  0.00  0.00    +0.000 N 
ATOM      9  C   UNL     1       0.259  12.976  21.640  0.00  0.00    +0.000 C 
ENDROOT
BRANCH   6  10
ATOM     10  C   UNL     1      -1.339  15.844  21.119  0.00  0.00    +0.000 C 
ATOM     11  O   UNL     1      -0.749  16.732  21.731  0.00  0.00    +0.000 OA
ATOM     12  N   UNL     1      -1.548  15.893  19.750  0.00  0.00    +0.000 N 
ATOM     13  H   UNL     1      -2.220  15.226  19.375  0.00  0.00    +0.000 HD
BRANCH  12  14
ATOM     14  C   UNL     1      -1.123  17.046  18.988  0.00  0.00    +0.000 C 
BRANCH  14  15
ATOM     15  C   UNL     1       0.236  16.931  18.337  0.00  0.00    +0.000 A 
ATOM     16  C   UNL     1       0.578  17.833  17.311  0.00  0.00    +0.000 A 
ATOM     17  C   UNL     1       1.855  17.829  16.736  0.00  0.00    +0.000 A 
ATOM     18  C   UNL     1       2.813  16.925  17.187  0.00  0.00    +0.000 A 
ATOM     19  C   UNL     1       2.499  16.037  18.210  0.00  0.00    +0.000 A 
ATOM     20  C   UNL     1       1.223  16.046  18.788  0.00  0.00    +0.000 A 
ENDBRANCH  14  15
ENDBRANCH  12  14
ENDBRANCH   6  10
BRANCH   1  21
ATOM     21  C   UNL     1      -0.102  10.939  20.327  0.00  0.00    +0.000 C 
BRANCH  21  25
ATOM     22  C   UNL     1       2.337   7.759  18.456  0.00  0.00    +0.000 A 
ATOM     23  C   UNL     1       1.968   7.776  19.816  0.00  0.00    +0.000 A 
ATOM     24  C   UNL     1       1.177   8.787  20.383  0.00  0.00    +0.000 A 
ATOM     25  C   UNL     1       0.758   9.888  19.637  0.00  0.00    +0.000 A 
ATOM     26  C   UNL     1       1.082   9.885  18.275  0.00  0.00    +0.000 A 
ATOM     27  C   UNL     1       1.843   8.832  17.696  0.00  0.00    +0.000 A 
BRANCH  22  34
ATOM     28  C   UNL     1       1.628   4.656  18.562  0.00  0.00    +0.000 C 
ATOM     29  C   UNL     1       2.854   5.241  17.913  0.00  0.00    +0.000 A 
ATOM     30  C   UNL     1       3.716   4.299  17.290  0.00  0.00    +0.000 A 
ATOM     31  C   UNL     1       4.894   4.683  16.660  0.00  0.00    +0.000 A 
ATOM     32  C   UNL     1       5.256   6.015  16.675  0.00  0.00    +0.000 A 
ATOM     33  C   UNL     1       4.432   6.951  17.310  0.00  0.00    +0.000 A 
ATOM     34  C   UNL     1       3.189   6.623  17.925  0.00  0.00    +0.000 A 
ENDBRANCH  22  34
ENDBRANCH  21  25
ENDBRANCH   1  21
BRANCH   8  35
ATOM     35  C   UNL     1      -4.503  12.729  23.080  0.00  0.00    +0.000 C 
BRANCH  35  36
ATOM     36  C   UNL     1      -5.471  13.830  23.501  0.00  0.00    +0.000 C 
BRANCH  36  37
ATOM     37  O   UNL     1      -6.160  14.391  22.383  0.00  0.00    +0.000 OA
ATOM     38  H   UNL     1      -6.481  13.637  21.851  0.00  0.00    +0.000 HD
ENDBRANCH  36  37
ENDBRANCH  35  36
ENDBRANCH   8  35
TORSDOF 9
ENDMDL
MODEL 8
REMARK VINA RESULT:      -7.8      3.645      5.429
REMARK  Name = 
REMARK  10 active torsions:
REMARK  status: ('A' for Active; 'I' for Inactive)
REMARK    1  A    between atoms: C_1  and  C_2
REMARK    2  A    between atoms: C_7  and  C_8
REMARK    3  A    between atoms: C_11  and  C_12
REMARK    4  A    between atoms: C_12  and  N_13
REMARK    5  A    between atoms: C_18  and  C_19
REMARK    6  A    between atoms: N_21  and  C_22
REMARK    7  A    between atoms: C_22  and  C_23
REMARK    8  A    between atoms: N_30  and  C_31
REMARK    9  A    between atoms: C_31  and  C_32
REMARK   10  A    between atoms: C_32  and  O_33
REMARK                            x       y       z     vdW  Elec       q    Type
REMARK                         _______ _______ _______ _____ _____    ______ ____
ROOT
ATOM      1  N   UNL     1       0.472  11.018  21.536  0.00  0.00    +0.000 NA
ATOM      2  C   UNL     1      -0.399  10.952  22.740  0.00  0.00    +0.000 C 
ATOM      3  C   UNL     1      -1.781  11.654  22.645  0.00  0.00    +0.000 C 
ATOM      4  C   UNL     1      -1.640  12.915  21.868  0.00  0.00    +0.000 A 
ATOM      5  C   UNL     1      -0.510  13.277  21.171  0.00  0.00    +0.000 A 
ATOM      6  C   UNL     1      -0.846  14.513  20.539  0.00  0.00    +0.000 A 
ATOM      7  N   UNL     1      -2.121  14.866  20.827  0.00  0.00    +0.000 NA
ATOM      8  N   UNL     1      -2.591  13.846  21.588  0.00  0.00    +0.000 N 
ATOM      9  C   UNL     1       0.737  12.441  21.145  0.00  0.00    +0.000 C 
ENDROOT
BRANCH   6  10
ATOM     10  C   UNL     1       0.010  15.314  19.639  0.00  0.00    +0.000 C 
ATOM     11  O   UNL     1      -0.351  15.610  18.502  0.00  0.00    +0.000 OA
ATOM     12  N   UNL     1       1.218  15.734  20.172  0.00  0.00    +0.000 N 
ATOM     13  H   UNL     1       1.516  15.268  21.027  0.00  0.00    +0.000 HD
BRANCH  12  14
ATOM     14  C   UNL     1       2.143  16.500  19.367  0.00  0.00    +0.000 C 
BRANCH  14  15
ATOM     15  C   UNL     1       3.526  15.907  19.225  0.00  0.00    +0.000 A 
ATOM     16  C   UNL     1       3.955  15.479  17.954  0.00  0.00    +0.000 A 
ATOM     17  C   UNL     1       5.258  15.006  17.748  0.00  0.00    +0.000 A 
ATOM     18  C   UNL     1       6.153  14.962  18.813  0.00  0.00    +0.000 A 
ATOM     19  C   UNL     1       5.752  15.396  20.073  0.00  0.00    +0.000 A 
ATOM     20  C   UNL     1       4.451  15.874  20.276  0.00  0.00    +0.000 A 
ENDBRANCH  14  15
ENDBRANCH  12  14
ENDBRANCH   6  10
BRANCH   1  21
ATOM     21  C   UNL     1      -0.055  10.249  20.388  0.00  0.00    +0.000 C 
BRANCH  21  25
ATOM     22  C   UNL     1       2.628   7.257  18.542  0.00  0.00    +0.000 A 
ATOM     23  C   UNL     1       2.062   8.345  17.849  0.00  0.00    +0.000 A 
ATOM     24  C   UNL     1       1.227   9.293  18.461  0.00  0.00    +0.000 A 
ATOM     25  C   UNL     1       0.850   9.174  19.798  0.00  0.00    +0.000 A 
ATOM     26  C   UNL     1       1.421   8.121  20.522  0.00  0.00    +0.000 A 
ATOM     27  C   UNL     1       2.305   7.191  19.907  0.00  0.00    +0.000 A 
BRANCH  22  34
ATOM     28  C   UNL     1       2.083   4.150  18.097  0.00  0.00    +0.000 C 
ATOM     29  C   UNL     1       3.262   4.908  17.548  0.00  0.00    +0.000 A 
ATOM     30  C   UNL     1       4.157   4.142  16.753  0.00  0.00    +0.000 A 
ATOM     31  C   UNL     1       5.298   4.697  16.186  0.00  0.00    +0.000 A 
ATOM     32  C   UNL     1       5.590   6.024  16.435  0.00  0.00    +0.000 A 
ATOM     33  C   UNL     1       4.733   6.783  17.240  0.00  0.00    +0.000 A 
ATOM     34  C   UNL     1       3.525   6.283  17.803  0.00  0.00    +0.000 A 
ENDBRANCH  22  34
ENDBRANCH  21  25
ENDBRANCH   1  21
BRANCH   8  35
ATOM     35  C   UNL     1      -4.014  13.756  21.864  0.00  0.00    +0.000 C 
BRANCH  35  36
ATOM     36  C   UNL     1      -4.738  12.929  20.807  0.00  0.00    +0.000 C 
BRANCH  36  37
ATOM     37  O   UNL     1      -4.558  13.464  19.496  0.00  0.00    +0.000 OA
ATOM     38  H   UNL     1      -3.729  13.076  19.152  0.00  0.00    +0.000 HD
ENDBRANCH  36  37
ENDBRANCH  35  36
ENDBRANCH   8  35
TORSDOF 9
ENDMDL
MODEL 9
REMARK VINA RESULT:      -7.8      2.718      4.257
REMARK  Name = 
REMARK  10 active torsions:
REMARK  status: ('A' for Active; 'I' for Inactive)
REMARK    1  A    between atoms: C_1  and  C_2
REMARK    2  A    between atoms: C_7  and  C_8
REMARK    3  A    between atoms: C_11  and  C_12
REMARK    4  A    between atoms: C_12  and  N_13
REMARK    5  A    between atoms: C_18  and  C_19
REMARK    6  A    between atoms: N_21  and  C_22
REMARK    7  A    between atoms: C_22  and  C_23
REMARK    8  A    between atoms: N_30  and  C_31
REMARK    9  A    between atoms: C_31  and  C_32
REMARK   10  A    between atoms: C_32  and  O_33
REMARK                            x       y       z     vdW  Elec       q    Type
REMARK                         _______ _______ _______ _____ _____    ______ ____
ROOT
ATOM      1  N   UNL     1       1.071  11.524  19.066  0.00  0.00    +0.000 NA
ATOM      2  C   UNL     1       1.798  12.736  19.531  0.00  0.00    +0.000 C 
ATOM      3  C   UNL     1       1.189  13.496  20.741  0.00  0.00    +0.000 C 
ATOM      4  C   UNL     1      -0.295  13.485  20.635  0.00  0.00    +0.000 A 
ATOM      5  C   UNL     1      -1.003  12.734  19.724  0.00  0.00    +0.000 A 
ATOM      6  C   UNL     1      -2.376  12.988  20.025  0.00  0.00    +0.000 A 
ATOM      7  N   UNL     1      -2.487  13.833  21.077  0.00  0.00    +0.000 NA
ATOM      8  N   UNL     1      -1.206  14.069  21.457  0.00  0.00    +0.000 N 
ATOM      9  C   UNL     1      -0.344  11.857  18.698  0.00  0.00    +0.000 C 
ENDROOT
BRANCH   6  10
ATOM     10  C   UNL     1      -3.557  12.397  19.360  0.00  0.00    +0.000 C 
ATOM     11  O   UNL     1      -3.455  11.434  18.604  0.00  0.00    +0.000 OA
ATOM     12  N   UNL     1      -4.776  12.975  19.674  0.00  0.00    +0.000 N 
ATOM     13  H   UNL     1      -4.737  13.884  20.132  0.00  0.00    +0.000 HD
BRANCH  12  14
ATOM     14  C   UNL     1      -5.992  12.492  19.058  0.00  0.00    +0.000 C 
BRANCH  14  15
ATOM     15  C   UNL     1      -6.584  11.247  19.677  0.00  0.00    +0.000 A 
ATOM     16  C   UNL     1      -7.268  11.355  20.903  0.00  0.00    +0.000 A 
ATOM     17  C   UNL     1      -7.912  10.250  21.475  0.00  0.00    +0.000 A 
ATOM     18  C   UNL     1      -7.887   9.021  20.822  0.00  0.00    +0.000 A 
ATOM     19  C   UNL     1      -7.230   8.899  19.602  0.00  0.00    +0.000 A 
ATOM     20  C   UNL     1      -6.591  10.005  19.028  0.00  0.00    +0.000 A 
ENDBRANCH  14  15
ENDBRANCH  12  14
ENDBRANCH   6  10
BRANCH   1  21
ATOM     21  C   UNL     1       1.113  10.408  20.033  0.00  0.00    +0.000 C 
BRANCH  21  25
ATOM     22  C   UNL     1       2.215   6.361  18.628  0.00  0.00    +0.000 A 
ATOM     23  C   UNL     1       1.858   6.668  19.956  0.00  0.00    +0.000 A 
ATOM     24  C   UNL     1       1.494   7.956  20.375  0.00  0.00    +0.000 A 
ATOM     25  C   UNL     1       1.529   9.042  19.501  0.00  0.00    +0.000 A 
ATOM     26  C   UNL     1       1.849   8.765  18.166  0.00  0.00    +0.000 A 
ATOM     27  C   UNL     1       2.170   7.447  17.738  0.00  0.00    +0.000 A 
BRANCH  22  34
ATOM     28  C   UNL     1       4.978   5.397  17.370  0.00  0.00    +0.000 C 
ATOM     29  C   UNL     1       3.840   4.490  17.756  0.00  0.00    +0.000 A 
ATOM     30  C   UNL     1       4.076   3.104  17.548  0.00  0.00    +0.000 A 
ATOM     31  C   UNL     1       3.117   2.142  17.844  0.00  0.00    +0.000 A 
ATOM     32  C   UNL     1       1.884   2.550  18.315  0.00  0.00    +0.000 A 
ATOM     33  C   UNL     1       1.628   3.914  18.496  0.00  0.00    +0.000 A 
ATOM     34  C   UNL     1       2.589   4.938  18.262  0.00  0.00    +0.000 A 
ENDBRANCH  22  34
ENDBRANCH  21  25
ENDBRANCH   1  21
BRANCH   8  35
ATOM     35  C   UNL     1      -0.946  14.728  22.725  0.00  0.00    +0.000 C 
BRANCH  35  36
ATOM     36  C   UNL     1      -1.086  16.242  22.608  0.00  0.00    +0.000 C 
BRANCH  36  37
ATOM     37  O   UNL     1      -2.445  16.640  22.429  0.00  0.00    +0.000 OA
ATOM     38  H   UNL     1      -2.839  16.002  21.804  0.00  0.00    +0.000 HD
ENDBRANCH  36  37
ENDBRANCH  35  36
ENDBRANCH   8  35
TORSDOF 9
ENDMDL
