MODEL 1
REMARK VINA RESULT:      -7.9      0.000      0.000
REMARK  Name = 
REMARK  8 active torsions:
REMARK  status: ('A' for Active; 'I' for Inactive)
REMARK    1  A    between atoms: C_1  and  N_2
REMARK    2  A    between atoms: N_2  and  C_3
REMARK    3  A    between atoms: C_3  and  C_4
REMARK    4  A    between atoms: C_4  and  C_5
REMARK    5  A    between atoms: C_5  and  C_6
REMARK    6  A    between atoms: C_6  and  O_7
REMARK    7  A    between atoms: C_6  and  C_8
REMARK    8  A    between atoms: C_6  and  C_14
REMARK                            x       y       z     vdW  Elec       q    Type
REMARK                         _______ _______ _______ _____ _____    ______ ____
ROOT
ATOM      1  C   UNL     1       5.721   4.405  16.035  0.00  0.00    +0.000 C 
ENDROOT
BRANCH   1   2
ATOM      2  C   UNL     1       6.222   4.412  14.564  0.00  0.00    +0.000 A 
ATOM      3  C   UNL     1       5.571   3.624  13.591  0.00  0.00    +0.000 A 
ATOM      4  C   UNL     1       6.049   3.560  12.275  0.00  0.00    +0.000 A 
ATOM      5  C   UNL     1       7.187   4.277  11.906  0.00  0.00    +0.000 A 
ATOM      6  C   UNL     1       7.843   5.069  12.844  0.00  0.00    +0.000 A 
ATOM      7  C   UNL     1       7.368   5.146  14.157  0.00  0.00    +0.000 A 
ENDBRANCH   1   2
BRANCH   1   8
ATOM      8  C   UNL     1       6.587   5.326  16.893  0.00  0.00    +0.000 A 
ATOM      9  C   UNL     1       6.646   6.727  16.714  0.00  0.00    +0.000 A 
ATOM     10  C   UNL     1       7.385   7.523  17.592  0.00  0.00    +0.000 A 
ATOM     11  C   UNL     1       8.086   6.944  18.648  0.00  0.00    +0.000 A 
ATOM     12  C   UNL     1       8.051   5.561  18.833  0.00  0.00    +0.000 A 
ATOM     13  C   UNL     1       7.307   4.759  17.966  0.00  0.00    +0.000 A 
ENDBRANCH   1   8
BRANCH   1  14
ATOM     14  O   UNL     1       5.882   3.134  16.638  0.00  0.00    +0.000 OA
ATOM     15  H   UNL     1       5.065   2.587  16.552  0.00  0.00    +0.000 HD
ENDBRANCH   1  14
BRANCH   1  16
ATOM     16  C   UNL     1       4.189   4.805  16.059  0.00  0.00    +0.000 C 
BRANCH  16  17
ATOM     17  C   UNL     1       3.426   3.903  17.033  0.00  0.00    +0.000 C 
BRANCH  17  18
ATOM     18  C   UNL     1       2.275   4.465  17.844  0.00  0.00    +0.000 C 
BRANCH  18  20
ATOM     19  C   UNL     1       3.003   6.217  19.264  0.00  0.00    +0.000 C 
ATOM     20  N   UNL     1       2.616   4.775  19.287  0.00  0.00    +0.000 N 
ATOM     21  C   UNL     1       3.813   4.022  19.813  0.00  0.00    +0.000 C 
ATOM     22  C   UNL     1       3.531   2.614  20.412  0.00  0.00    +0.000 C 
ATOM     23  C   UNL     1       2.438   2.693  21.467  0.00  0.00    +0.000 C 
ATOM     24  C   UNL     1       1.175   3.257  20.833  0.00  0.00    +0.000 C 
ATOM     25  C   UNL     1       1.454   4.666  20.238  0.00  0.00    +0.000 C 
ENDBRANCH  18  20
ENDBRANCH  17  18
ENDBRANCH  16  17
ENDBRANCH   1  16
TORSDOF 7
ENDMDL
MODEL 2
REMARK VINA RESULT:      -7.9      0.916      1.580
REMARK  Name = 
REMARK  8 active torsions:
REMARK  status: ('A' for Active; 'I' for Inactive)
REMARK    1  A    between atoms: C_1  and  N_2
REMARK    2  A    between atoms: N_2  and  C_3
REMARK    3  A    between atoms: C_3  and  C_4
REMARK    4  A    between atoms: C_4  and  C_5
REMARK    5  A    between atoms: C_5  and  C_6
REMARK    6  A    between atoms: C_6  and  O_7
REMARK    7  A    between atoms: C_6  and  C_8
REMARK    8  A    between atoms: C_6  and  C_14
REMARK                            x       y       z     vdW  Elec       q    Type
REMARK                         _______ _______ _______ _____ _____    ______ ____
ROOT
ATOM      1  C   UNL     1       5.800   4.458  15.935  0.00  0.00    +0.000 C 
ENDROOT
BRANCH   1   2
ATOM      2  C   UNL     1       6.344   4.480  14.479  0.00  0.00    +0.000 A 
ATOM      3  C   UNL     1       5.778   3.635  13.500  0.00  0.00    +0.000 A 
ATOM      4  C   UNL     1       6.299   3.586  12.200  0.00  0.00    +0.000 A 
ATOM      5  C   UNL     1       7.396   4.373  11.853  0.00  0.00    +0.000 A 
ATOM      6  C   UNL     1       7.968   5.222  12.797  0.00  0.00    +0.000 A 
ATOM      7  C   UNL     1       7.449   5.284  14.094  0.00  0.00    +0.000 A 
ENDBRANCH   1   2
BRANCH   1   8
ATOM      8  C   UNL     1       6.656   5.350  16.832  0.00  0.00    +0.000 A 
ATOM      9  C   UNL     1       6.693   6.759  16.719  0.00  0.00    +0.000 A 
ATOM     10  C   UNL     1       7.424   7.524  17.632  0.00  0.00    +0.000 A 
ATOM     11  C   UNL     1       8.139   6.906  18.656  0.00  0.00    +0.000 A 
ATOM     12  C   UNL     1       8.125   5.515  18.775  0.00  0.00    +0.000 A 
ATOM     13  C   UNL     1       7.389   4.744  17.874  0.00  0.00    +0.000 A 
ENDBRANCH   1   8
BRANCH   1  14
ATOM     14  O   UNL     1       5.921   3.175  16.521  0.00  0.00    +0.000 OA
ATOM     15  H   UNL     1       5.310   3.069  17.289  0.00  0.00    +0.000 HD
ENDBRANCH   1  14
BRANCH   1  16
ATOM     16  C   UNL     1       4.275   4.885  15.920  0.00  0.00    +0.000 C 
BRANCH  16  17
ATOM     17  C   UNL     1       3.640   4.608  17.285  0.00  0.00    +0.000 C 
BRANCH  17  18
ATOM     18  C   UNL     1       2.606   3.509  17.433  0.00  0.00    +0.000 C 
BRANCH  18  20
ATOM     19  C   UNL     1       3.532   1.497  18.275  0.00  0.00    +0.000 C 
ATOM     20  N   UNL     1       2.739   2.688  18.699  0.00  0.00    +0.000 N 
ATOM     21  C   UNL     1       1.430   2.160  19.232  0.00  0.00    +0.000 C 
ATOM     22  C   UNL     1       0.645   3.104  20.187  0.00  0.00    +0.000 C 
ATOM     23  C   UNL     1       1.539   3.575  21.325  0.00  0.00    +0.000 C 
ATOM     24  C   UNL     1       2.743   4.299  20.743  0.00  0.00    +0.000 C 
ATOM     25  C   UNL     1       3.532   3.356  19.792  0.00  0.00    +0.000 C 
ENDBRANCH  18  20
ENDBRANCH  17  18
ENDBRANCH  16  17
ENDBRANCH   1  16
TORSDOF 7
ENDMDL
MODEL 3
REMARK VINA RESULT:      -7.8      2.179      6.916
REMARK  Name = 
REMARK  8 active torsions:
REMARK  status: ('A' for Active; 'I' for Inactive)
REMARK    1  A    between atoms: C_1  and  N_2
REMARK    2  A    between atoms: N_2  and  C_3
REMARK    3  A    between atoms: C_3  and  C_4
REMARK    4  A    between atoms: C_4  and  C_5
REMARK    5  A    between atoms: C_5  and  C_6
REMARK    6  A    between atoms: C_6  and  O_7
REMARK    7  A    between atoms: C_6  and  C_8
REMARK    8  A    between atoms: C_6  and  C_14
REMARK                            x       y       z     vdW  Elec       q    Type
REMARK                         _______ _______ _______ _____ _____    ______ ____
ROOT
ATOM      1  C   UNL     1       3.190   5.859  19.094  0.00  0.00    +0.000 C 
ENDROOT
BRANCH   1   2
ATOM      2  C   UNL     1       2.408   7.187  19.291  0.00  0.00    +0.000 A 
ATOM      3  C   UNL     1       1.822   7.484  20.540  0.00  0.00    +0.000 A 
ATOM      4  C   UNL     1       1.053   8.642  20.719  0.00  0.00    +0.000 A 
ATOM      5  C   UNL     1       0.849   9.522  19.658  0.00  0.00    +0.000 A 
ATOM      6  C   UNL     1       1.423   9.256  18.417  0.00  0.00    +0.000 A 
ATOM      7  C   UNL     1       2.200   8.109  18.231  0.00  0.00    +0.000 A 
ENDBRANCH   1   2
BRANCH   1   8
ATOM      8  C   UNL     1       2.474   4.714  19.807  0.00  0.00    +0.000 A 
ATOM      9  C   UNL     1       2.750   4.336  21.142  0.00  0.00    +0.000 A 
ATOM     10  C   UNL     1       1.994   3.342  21.768  0.00  0.00    +0.000 A 
ATOM     11  C   UNL     1       0.968   2.699  21.079  0.00  0.00    +0.000 A 
ATOM     12  C   UNL     1       0.689   3.048  19.757  0.00  0.00    +0.000 A 
ATOM     13  C   UNL     1       1.433   4.048  19.127  0.00  0.00    +0.000 A 
ENDBRANCH   1   8
BRANCH   1  14
ATOM     14  O   UNL     1       4.461   5.901  19.717  0.00  0.00    +0.000 OA
ATOM     15  H   UNL     1       4.963   5.064  19.573  0.00  0.00    +0.000 HD
ENDBRANCH   1  14
BRANCH   1  16
ATOM     16  C   UNL     1       3.376   5.596  17.543  0.00  0.00    +0.000 C 
BRANCH  16  17
ATOM     17  C   UNL     1       4.504   4.587  17.314  0.00  0.00    +0.000 C 
BRANCH  17  18
ATOM     18  C   UNL     1       5.187   4.505  15.962  0.00  0.00    +0.000 C 
BRANCH  18  20
ATOM     19  C   UNL     1       7.113   4.675  14.593  0.00  0.00    +0.000 C 
ATOM     20  N   UNL     1       6.587   5.081  15.929  0.00  0.00    +0.000 N 
ATOM     21  C   UNL     1       7.522   4.486  16.953  0.00  0.00    +0.000 C 
ATOM     22  C   UNL     1       7.516   5.152  18.359  0.00  0.00    +0.000 C 
ATOM     23  C   UNL     1       7.734   6.653  18.239  0.00  0.00    +0.000 C 
ATOM     24  C   UNL     1       6.634   7.246  17.371  0.00  0.00    +0.000 C 
ATOM     25  C   UNL     1       6.641   6.586  15.965  0.00  0.00    +0.000 C 
ENDBRANCH  18  20
ENDBRANCH  17  18
ENDBRANCH  16  17
ENDBRANCH   1  16
TORSDOF 7
ENDMDL
MODEL 4
REMARK VINA RESULT:      -7.7      2.272      7.100
REMARK  Name = 
REMARK  8 active torsions:
REMARK  status: ('A' for Active; 'I' for Inactive)
REMARK    1  A    between atoms: C_1  and  N_2
REMARK    2  A    between atoms: N_2  and  C_3
REMARK    3  A    between atoms: C_3  and  C_4
REMARK    4  A    between atoms: C_4  and  C_5
REMARK    5  A    between atoms: C_5  and  C_6
REMARK    6  A    between atoms: C_6  and  O_7
REMARK    7  A    between atoms: C_6  and  C_8
REMARK    8  A    between atoms: C_6  and  C_14
REMARK                            x       y       z     vdW  Elec       q    Type
REMARK                         _______ _______ _______ _____ _____    ______ ____
ROOT
ATOM      1  C   UNL     1       2.864   6.058  19.218  0.00  0.00    +0.000 C 
ENDROOT
BRANCH   1   2
ATOM      2  C   UNL     1       2.078   7.353  19.566  0.00  0.00    +0.000 A 
ATOM      3  C   UNL     1       1.923   8.368  18.597  0.00  0.00    +0.000 A 
ATOM      4  C   UNL     1       1.280   9.573  18.911  0.00  0.00    +0.000 A 
ATOM      5  C   UNL     1       0.784   9.791  20.195  0.00  0.00    +0.000 A 
ATOM      6  C   UNL     1       0.917   8.803  21.167  0.00  0.00    +0.000 A 
ATOM      7  C   UNL     1       1.548   7.594  20.861  0.00  0.00    +0.000 A 
ENDBRANCH   1   2
BRANCH   1   8
ATOM      8  C   UNL     1       2.211   4.849  19.885  0.00  0.00    +0.000 A 
ATOM      9  C   UNL     1       1.250   4.032  19.245  0.00  0.00    +0.000 A 
ATOM     10  C   UNL     1       0.761   2.886  19.876  0.00  0.00    +0.000 A 
ATOM     11  C   UNL     1       1.203   2.541  21.151  0.00  0.00    +0.000 A 
ATOM     12  C   UNL     1       2.141   3.341  21.805  0.00  0.00    +0.000 A 
ATOM     13  C   UNL     1       2.643   4.483  21.178  0.00  0.00    +0.000 A 
ENDBRANCH   1   8
BRANCH   1  14
ATOM     14  O   UNL     1       4.172   6.076  19.761  0.00  0.00    +0.000 OA
ATOM     15  H   UNL     1       4.797   6.572  19.181  0.00  0.00    +0.000 HD
ENDBRANCH   1  14
BRANCH   1  16
ATOM     16  C   UNL     1       2.953   5.918  17.644  0.00  0.00    +0.000 C 
BRANCH  16  17
ATOM     17  C   UNL     1       4.397   6.124  17.180  0.00  0.00    +0.000 C 
BRANCH  17  18
ATOM     18  C   UNL     1       5.215   4.943  16.694  0.00  0.00    +0.000 C 
BRANCH  18  20
ATOM     19  C   UNL     1       7.128   4.453  15.384  0.00  0.00    +0.000 C 
ATOM     20  N   UNL     1       6.704   5.207  16.600  0.00  0.00    +0.000 N 
ATOM     21  C   UNL     1       7.504   4.647  17.749  0.00  0.00    +0.000 C 
ATOM     22  C   UNL     1       7.642   5.560  19.001  0.00  0.00    +0.000 C 
ATOM     23  C   UNL     1       8.162   6.934  18.604  0.00  0.00    +0.000 C 
ATOM     24  C   UNL     1       7.201   7.557  17.602  0.00  0.00    +0.000 C 
ATOM     25  C   UNL     1       7.065   6.648  16.348  0.00  0.00    +0.000 C 
ENDBRANCH  18  20
ENDBRANCH  17  18
ENDBRANCH  16  17
ENDBRANCH   1  16
TORSDOF 7
ENDMDL
MODEL 5
REMARK VINA RESULT:      -7.7      0.187      1.004
REMARK  Name = 
REMARK  8 active torsions:
REMARK  status: ('A' for Active; 'I' for Inactive)
REMARK    1  A    between atoms: C_1  and  N_2
REMARK    2  A    between atoms: N_2  and  C_3
REMARK    3  A    between atoms: C_3  and  C_4
REMARK    4  A    between atoms: C_4  and  C_5
REMARK    5  A    between atoms: C_5  and  C_6
REMARK    6  A    between atoms: C_6  and  O_7
REMARK    7  A    between atoms: C_6  and  C_8
REMARK    8  A    between atoms: C_6  and  C_14
REMARK                            x       y       z     vdW  Elec       q    Type
REMARK                         _______ _______ _______ _____ _____    ______ ____
ROOT
ATOM      1  C   UNL     1       5.661   4.386  16.166  0.00  0.00    +0.000 C 
ENDROOT
BRANCH   1   2
ATOM      2  C   UNL     1       6.166   4.286  14.699  0.00  0.00    +0.000 A 
ATOM      3  C   UNL     1       7.292   5.031  14.287  0.00  0.00    +0.000 A 
ATOM      4  C   UNL     1       7.722   5.010  12.953  0.00  0.00    +0.000 A 
ATOM      5  C   UNL     1       7.036   4.251  12.006  0.00  0.00    +0.000 A 
ATOM      6  C   UNL     1       5.928   3.501  12.388  0.00  0.00    +0.000 A 
ATOM      7  C   UNL     1       5.497   3.508  13.718  0.00  0.00    +0.000 A 
ENDBRANCH   1   2
BRANCH   1   8
ATOM      8  C   UNL     1       6.545   5.341  16.965  0.00  0.00    +0.000 A 
ATOM      9  C   UNL     1       6.644   6.725  16.689  0.00  0.00    +0.000 A 
ATOM     10  C   UNL     1       7.398   7.560  17.516  0.00  0.00    +0.000 A 
ATOM     11  C   UNL     1       8.075   7.038  18.616  0.00  0.00    +0.000 A 
ATOM     12  C   UNL     1       8.000   5.674  18.898  0.00  0.00    +0.000 A 
ATOM     13  C   UNL     1       7.241   4.833  18.082  0.00  0.00    +0.000 A 
ENDBRANCH   1   8
BRANCH   1  14
ATOM     14  O   UNL     1       5.791   3.154  16.851  0.00  0.00    +0.000 OA
ATOM     15  H   UNL     1       5.854   3.287  17.826  0.00  0.00    +0.000 HD
ENDBRANCH   1  14
BRANCH   1  16
ATOM     16  C   UNL     1       4.138   4.821  16.157  0.00  0.00    +0.000 C 
BRANCH  16  17
ATOM     17  C   UNL     1       3.351   3.996  17.178  0.00  0.00    +0.000 C 
BRANCH  17  18
ATOM     18  C   UNL     1       2.178   4.616  17.913  0.00  0.00    +0.000 C 
BRANCH  18  20
ATOM     19  C   UNL     1       2.660   6.344  19.461  0.00  0.00    +0.000 C 
ATOM     20  N   UNL     1       2.425   4.872  19.386  0.00  0.00    +0.000 N 
ATOM     21  C   UNL     1       3.671   4.214  19.925  0.00  0.00    +0.000 C 
ATOM     22  C   UNL     1       3.512   2.752  20.430  0.00  0.00    +0.000 C 
ATOM     23  C   UNL     1       2.374   2.654  21.435  0.00  0.00    +0.000 C 
ATOM     24  C   UNL     1       1.088   3.125  20.773  0.00  0.00    +0.000 C 
ATOM     25  C   UNL     1       1.242   4.588  20.273  0.00  0.00    +0.000 C 
ENDBRANCH  18  20
ENDBRANCH  17  18
ENDBRANCH  16  17
ENDBRANCH   1  16
TORSDOF 7
ENDMDL
MODEL 6
REMARK VINA RESULT:      -7.7      0.361      1.439
REMARK  Name = 
REMARK  8 active torsions:
REMARK  status: ('A' for Active; 'I' for Inactive)
REMARK    1  A    between atoms: C_1  and  N_2
REMARK    2  A    between atoms: N_2  and  C_3
REMARK    3  A    between atoms: C_3  and  C_4
REMARK    4  A    between atoms: C_4  and  C_5
REMARK    5  A    between atoms: C_5  and  C_6
REMARK    6  A    between atoms: C_6  and  O_7
REMARK    7  A    between atoms: C_6  and  C_8
REMARK    8  A    between atoms: C_6  and  C_14
REMARK                            x       y       z     vdW  Elec       q    Type
REMARK                         _______ _______ _______ _____ _____    ______ ____
ROOT
ATOM      1  C   UNL     1       5.524   4.499  16.413  0.00  0.00    +0.000 C 
ENDROOT
BRANCH   1   2
ATOM      2  C   UNL     1       6.073   4.369  14.964  0.00  0.00    +0.000 A 
ATOM      3  C   UNL     1       7.260   5.037  14.595  0.00  0.00    +0.000 A 
ATOM      4  C   UNL     1       7.734   4.991  13.277  0.00  0.00    +0.000 A 
ATOM      5  C   UNL     1       7.032   4.284  12.302  0.00  0.00    +0.000 A 
ATOM      6  C   UNL     1       5.862   3.609  12.641  0.00  0.00    +0.000 A 
ATOM      7  C   UNL     1       5.387   3.642  13.956  0.00  0.00    +0.000 A 
ENDBRANCH   1   2
BRANCH   1   8
ATOM      8  C   UNL     1       6.404   5.444  17.227  0.00  0.00    +0.000 A 
ATOM      9  C   UNL     1       7.243   5.012  18.280  0.00  0.00    +0.000 A 
ATOM     10  C   UNL     1       8.094   5.913  18.924  0.00  0.00    +0.000 A 
ATOM     11  C   UNL     1       8.116   7.254  18.547  0.00  0.00    +0.000 A 
ATOM     12  C   UNL     1       7.286   7.703  17.518  0.00  0.00    +0.000 A 
ATOM     13  C   UNL     1       6.440   6.807  16.863  0.00  0.00    +0.000 A 
ENDBRANCH   1   8
BRANCH   1  14
ATOM     14  O   UNL     1       5.606   3.273  17.116  0.00  0.00    +0.000 OA
ATOM     15  H   UNL     1       4.710   2.916  17.327  0.00  0.00    +0.000 HD
ENDBRANCH   1  14
BRANCH   1  16
ATOM     16  C   UNL     1       4.013   4.966  16.350  0.00  0.00    +0.000 C 
BRANCH  16  17
ATOM     17  C   UNL     1       3.134   4.011  17.161  0.00  0.00    +0.000 C 
BRANCH  17  18
ATOM     18  C   UNL     1       2.008   4.556  18.018  0.00  0.00    +0.000 C 
BRANCH  18  20
ATOM     19  C   UNL     1       2.665   6.283  19.502  0.00  0.00    +0.000 C 
ATOM     20  N   UNL     1       2.387   4.817  19.461  0.00  0.00    +0.000 N 
ATOM     21  C   UNL     1       3.657   4.130  19.899  0.00  0.00    +0.000 C 
ATOM     22  C   UNL     1       3.504   2.676  20.430  0.00  0.00    +0.000 C 
ATOM     23  C   UNL     1       2.455   2.617  21.529  0.00  0.00    +0.000 C 
ATOM     24  C   UNL     1       1.128   3.117  20.976  0.00  0.00    +0.000 C 
ATOM     25  C   UNL     1       1.277   4.571  20.449  0.00  0.00    +0.000 C 
ENDBRANCH  18  20
ENDBRANCH  17  18
ENDBRANCH  16  17
ENDBRANCH   1  16
TORSDOF 7
ENDMDL
MODEL 7
REMARK VINA RESULT:      -7.7      1.006      1.903
REMARK  Name = 
REMARK  8 active torsions:
REMARK  status: ('A' for Active; 'I' for Inactive)
REMARK    1  A    between atoms: C_1  and  N_2
REMARK    2  A    between atoms: N_2  and  C_3
REMARK    3  A    between atoms: C_3  and  C_4
REMARK    4  A    between atoms: C_4  and  C_5
REMARK    5  A    between atoms: C_5  and  C_6
REMARK    6  A    between atoms: C_6  and  O_7
REMARK    7  A    between atoms: C_6  and  C_8
REMARK    8  A    between atoms: C_6  and  C_14
REMARK                            x       y       z     vdW  Elec       q    Type
REMARK                         _______ _______ _______ _____ _____    ______ ____
ROOT
ATOM      1  C   UNL     1       5.841   4.750  16.259  0.00  0.00    +0.000 C 
ENDROOT
BRANCH   1   2
ATOM      2  C   UNL     1       6.378   4.567  14.812  0.00  0.00    +0.000 A 
ATOM      3  C   UNL     1       7.456   5.354  14.353  0.00  0.00    +0.000 A 
ATOM      4  C   UNL     1       7.909   5.255  13.030  0.00  0.00    +0.000 A 
ATOM      5  C   UNL     1       7.295   4.375  12.141  0.00  0.00    +0.000 A 
ATOM      6  C   UNL     1       6.235   3.582  12.571  0.00  0.00    +0.000 A 
ATOM      7  C   UNL     1       5.782   3.666  13.890  0.00  0.00    +0.000 A 
ENDBRANCH   1   2
BRANCH   1   8
ATOM      8  C   UNL     1       6.741   5.707  17.039  0.00  0.00    +0.000 A 
ATOM      9  C   UNL     1       6.900   7.071  16.704  0.00  0.00    +0.000 A 
ATOM     10  C   UNL     1       7.664   7.915  17.514  0.00  0.00    +0.000 A 
ATOM     11  C   UNL     1       8.292   7.419  18.654  0.00  0.00    +0.000 A 
ATOM     12  C   UNL     1       8.158   6.072  18.994  0.00  0.00    +0.000 A 
ATOM     13  C   UNL     1       7.388   5.224  18.196  0.00  0.00    +0.000 A 
ENDBRANCH   1   8
BRANCH   1  14
ATOM     14  O   UNL     1       5.908   3.545  17.000  0.00  0.00    +0.000 OA
ATOM     15  H   UNL     1       6.605   3.588  17.697  0.00  0.00    +0.000 HD
ENDBRANCH   1  14
BRANCH   1  16
ATOM     16  C   UNL     1       4.337   5.239  16.192  0.00  0.00    +0.000 C 
BRANCH  16  17
ATOM     17  C   UNL     1       3.580   4.784  17.442  0.00  0.00    +0.000 C 
BRANCH  17  18
ATOM     18  C   UNL     1       2.670   3.572  17.380  0.00  0.00    +0.000 C 
BRANCH  18  20
ATOM     19  C   UNL     1       3.527   1.500  18.144  0.00  0.00    +0.000 C 
ATOM     20  N   UNL     1       2.731   2.678  18.600  0.00  0.00    +0.000 N 
ATOM     21  C   UNL     1       1.391   2.142  19.040  0.00  0.00    +0.000 C 
ATOM     22  C   UNL     1       0.575   3.042  20.011  0.00  0.00    +0.000 C 
ATOM     23  C   UNL     1       1.420   3.431  21.215  0.00  0.00    +0.000 C 
ATOM     24  C   UNL     1       2.662   4.167  20.733  0.00  0.00    +0.000 C 
ATOM     25  C   UNL     1       3.481   3.267  19.766  0.00  0.00    +0.000 C 
ENDBRANCH  18  20
ENDBRANCH  17  18
ENDBRANCH  16  17
ENDBRANCH   1  16
TORSDOF 7
ENDMDL
MODEL 8
REMARK VINA RESULT:      -7.7      0.279      1.023
REMARK  Name = 
REMARK  8 active torsions:
REMARK  status: ('A' for Active; 'I' for Inactive)
REMARK    1  A    between atoms: C_1  and  N_2
REMARK    2  A    between atoms: N_2  and  C_3
REMARK    3  A    between atoms: C_3  and  C_4
REMARK    4  A    between atoms: C_4  and  C_5
REMARK    5  A    between atoms: C_5  and  C_6
REMARK    6  A    between atoms: C_6  and  O_7
REMARK    7  A    between atoms: C_6  and  C_8
REMARK    8  A    between atoms: C_6  and  C_14
REMARK                            x       y       z     vdW  Elec       q    Type
REMARK                         _______ _______ _______ _____ _____    ______ ____
ROOT
ATOM      1  C   UNL     1       5.497   4.187  16.120  0.00  0.00    +0.000 C 
ENDROOT
BRANCH   1   2
ATOM      2  C   UNL     1       6.041   4.238  14.665  0.00  0.00    +0.000 A 
ATOM      3  C   UNL     1       5.426   3.468  13.654  0.00  0.00    +0.000 A 
ATOM      4  C   UNL     1       5.944   3.444  12.351  0.00  0.00    +0.000 A 
ATOM      5  C   UNL     1       7.084   4.180  12.034  0.00  0.00    +0.000 A 
ATOM      6  C   UNL     1       7.705   4.954  13.011  0.00  0.00    +0.000 A 
ATOM      7  C   UNL     1       7.190   4.992  14.311  0.00  0.00    +0.000 A 
ENDBRANCH   1   2
BRANCH   1   8
ATOM      8  C   UNL     1       6.331   5.090  17.027  0.00  0.00    +0.000 A 
ATOM      9  C   UNL     1       7.206   4.598  18.022  0.00  0.00    +0.000 A 
ATOM     10  C   UNL     1       8.011   5.474  18.754  0.00  0.00    +0.000 A 
ATOM     11  C   UNL     1       7.951   6.846  18.523  0.00  0.00    +0.000 A 
ATOM     12  C   UNL     1       7.083   7.353  17.554  0.00  0.00    +0.000 A 
ATOM     13  C   UNL     1       6.282   6.484  16.811  0.00  0.00    +0.000 A 
ENDBRANCH   1   8
BRANCH   1  14
ATOM     14  O   UNL     1       5.650   2.901  16.693  0.00  0.00    +0.000 OA
ATOM     15  H   UNL     1       4.927   2.292  16.414  0.00  0.00    +0.000 HD
ENDBRANCH   1  14
BRANCH   1  16
ATOM     16  C   UNL     1       3.962   4.575  16.109  0.00  0.00    +0.000 C 
BRANCH  16  17
ATOM     17  C   UNL     1       3.226   3.834  17.228  0.00  0.00    +0.000 C 
BRANCH  17  18
ATOM     18  C   UNL     1       2.085   4.510  17.964  0.00  0.00    +0.000 C 
BRANCH  18  20
ATOM     19  C   UNL     1       2.579   6.296  19.442  0.00  0.00    +0.000 C 
ATOM     20  N   UNL     1       2.371   4.818  19.420  0.00  0.00    +0.000 N 
ATOM     21  C   UNL     1       3.645   4.201  19.941  0.00  0.00    +0.000 C 
ATOM     22  C   UNL     1       3.531   2.753  20.496  0.00  0.00    +0.000 C 
ATOM     23  C   UNL     1       2.426   2.666  21.538  0.00  0.00    +0.000 C 
ATOM     24  C   UNL     1       1.111   3.091  20.903  0.00  0.00    +0.000 C 
ATOM     25  C   UNL     1       1.221   4.540  20.351  0.00  0.00    +0.000 C 
ENDBRANCH  18  20
ENDBRANCH  17  18
ENDBRANCH  16  17
ENDBRANCH   1  16
TORSDOF 7
ENDMDL
MODEL 9
REMARK VINA RESULT:      -7.6      2.312      7.091
REMARK  Name = 
REMARK  8 active torsions:
REMARK  status: ('A' for Active; 'I' for Inactive)
REMARK    1  A    between atoms: C_1  and  N_2
REMARK    2  A    between atoms: N_2  and  C_3
REMARK    3  A    between atoms: C_3  and  C_4
REMARK    4  A    between atoms: C_4  and  C_5
REMARK    5  A    between atoms: C_5  and  C_6
REMARK    6  A    between atoms: C_6  and  O_7
REMARK    7  A    between atoms: C_6  and  C_8
REMARK    8  A    between atoms: C_6  and  C_14
REMARK                            x       y       z     vdW  Elec       q    Type
REMARK                         _______ _______ _______ _____ _____    ______ ____
ROOT
ATOM      1  C   UNL     1       2.914   6.143  19.238  0.00  0.00    +0.000 C 
ENDROOT
BRANCH   1   2
ATOM      2  C   UNL     1       2.116   7.431  19.589  0.00  0.00    +0.000 A 
ATOM      3  C   UNL     1       1.509   7.563  20.856  0.00  0.00    +0.000 A 
ATOM      4  C   UNL     1       0.727   8.683  21.168  0.00  0.00    +0.000 A 
ATOM      5  C   UNL     1       0.530   9.689  20.223  0.00  0.00    +0.000 A 
ATOM      6  C   UNL     1       1.125   9.586  18.968  0.00  0.00    +0.000 A 
ATOM      7  C   UNL     1       1.915   8.477  18.651  0.00  0.00    +0.000 A 
ENDBRANCH   1   2
BRANCH   1   8
ATOM      8  C   UNL     1       2.231   4.918  19.843  0.00  0.00    +0.000 A 
ATOM      9  C   UNL     1       1.285   4.132  19.146  0.00  0.00    +0.000 A 
ATOM     10  C   UNL     1       0.768   2.969  19.722  0.00  0.00    +0.000 A 
ATOM     11  C   UNL     1       1.167   2.577  20.998  0.00  0.00    +0.000 A 
ATOM     12  C   UNL     1       2.090   3.347  21.707  0.00  0.00    +0.000 A 
ATOM     13  C   UNL     1       2.619   4.505  21.135  0.00  0.00    +0.000 A 
ENDBRANCH   1   8
BRANCH   1  14
ATOM     14  O   UNL     1       4.197   6.143  19.836  0.00  0.00    +0.000 OA
ATOM     15  H   UNL     1       4.861   6.600  19.267  0.00  0.00    +0.000 HD
ENDBRANCH   1  14
BRANCH   1  16
ATOM     16  C   UNL     1       3.069   6.047  17.666  0.00  0.00    +0.000 C 
BRANCH  16  17
ATOM     17  C   UNL     1       4.295   5.201  17.310  0.00  0.00    +0.000 C 
BRANCH  17  18
ATOM     18  C   UNL     1       5.144   5.563  16.107  0.00  0.00    +0.000 C 
BRANCH  18  20
ATOM     19  C   UNL     1       7.106   4.670  15.123  0.00  0.00    +0.000 C 
ATOM     20  N   UNL     1       6.636   5.419  16.325  0.00  0.00    +0.000 N 
ATOM     21  C   UNL     1       7.006   4.579  17.522  0.00  0.00    +0.000 C 
ATOM     22  C   UNL     1       7.099   5.325  18.884  0.00  0.00    +0.000 C 
ATOM     23  C   UNL     1       8.018   6.532  18.769  0.00  0.00    +0.000 C 
ATOM     24  C   UNL     1       7.481   7.464  17.694  0.00  0.00    +0.000 C 
ATOM     25  C   UNL     1       7.391   6.722  16.332  0.00  0.00    +0.000 C 
ENDBRANCH  18  20
ENDBRANCH  17  18
ENDBRANCH  16  17
ENDBRANCH   1  16
TORSDOF 7
ENDMDL
