MODEL 1
REMARK VINA RESULT:      -6.6      0.000      0.000
REMARK  Name = 
REMARK  5 active torsions:
REMARK  status: ('A' for Active; 'I' for Inactive)
REMARK    1  A    between atoms: C_1  and  C_2
REMARK    2  A    between atoms: C_9  and  N_10
REMARK    3  A    between atoms: N_10  and  C_11
REMARK    4  A    between atoms: C_11  and  C_12
REMARK    5  A    between atoms: N_16  and  C_17
REMARK                            x       y       z     vdW  Elec       q    Type
REMARK                         _______ _______ _______ _____ _____    ______ ____
ROOT
ATOM      1  C   UNL     1       4.487   3.477  16.173  0.00  0.00    +0.000 C 
ATOM      2  C   UNL     1       3.800   3.243  17.492  0.00  0.00    +0.000 A 
ATOM      3  C   UNL     1       2.458   2.815  17.471  0.00  0.00    +0.000 A 
ATOM      4  C   UNL     1       1.757   2.618  18.653  0.00  0.00    +0.000 A 
ATOM      5  F   UNL     1       0.486   2.200  18.588  0.00  0.00    +0.000 F 
ATOM      6  C   UNL     1       2.369   2.864  19.871  0.00  0.00    +0.000 A 
ATOM      7 BR   UNL     1       1.421   2.631  21.493  0.00  0.00    +0.000 Br
ATOM      8  C   UNL     1       3.698   3.290  19.908  0.00  0.00    +0.000 A 
ATOM      9  C   UNL     1       4.453   3.445  18.730  0.00  0.00    +0.000 A 
ENDROOT
BRANCH   9  10
ATOM     10  N   UNL     1       5.781   3.897  18.784  0.00  0.00    +0.000 N 
ATOM     11  H   UNL     1       6.456   3.209  19.112  0.00  0.00    +0.000 HD
BRANCH  10  12
ATOM     12  C   UNL     1       6.043   5.204  19.397  0.00  0.00    +0.000 C 
BRANCH  12  13
ATOM     13  C   UNL     1       6.655   6.221  18.485  0.00  0.00    +0.000 A 
ATOM     14  N   UNL     1       7.912   6.625  18.440  0.00  0.00    +0.000 NA
ATOM     15  C   UNL     1       7.903   7.574  17.459  0.00  0.00    +0.000 A 
ATOM     16  N   UNL     1       6.712   7.798  16.895  0.00  0.00    +0.000 NA
ATOM     17  N   UNL     1       5.933   6.929  17.560  0.00  0.00    +0.000 N 
ATOM     18  C   UNL     1       4.521   6.853  17.278  0.00  0.00    +0.000 C 
ENDBRANCH  12  13
ENDBRANCH  10  12
ENDBRANCH   9  10
TORSDOF 3
ENDMDL
MODEL 2
REMARK VINA RESULT:      -6.5      2.577      3.304
REMARK  Name = 
REMARK  5 active torsions:
REMARK  status: ('A' for Active; 'I' for Inactive)
REMARK    1  A    between atoms: C_1  and  C_2
REMARK    2  A    between atoms: C_9  and  N_10
REMARK    3  A    between atoms: N_10  and  C_11
REMARK    4  A    between atoms: C_11  and  C_12
REMARK    5  A    between atoms: N_16  and  C_17
REMARK                            x       y       z     vdW  Elec       q    Type
REMARK                         _______ _______ _______ _____ _____    ______ ____
ROOT
ATOM      1  C   UNL     1       3.794   6.944  17.215  0.00  0.00    +0.000 C 
ATOM      2  C   UNL     1       3.189   5.926  18.145  0.00  0.00    +0.000 A 
ATOM      3  C   UNL     1       2.626   6.386  19.352  0.00  0.00    +0.000 A 
ATOM      4  C   UNL     1       2.085   5.494  20.268  0.00  0.00    +0.000 A 
ATOM      5  F   UNL     1       1.550   5.975  21.399  0.00  0.00    +0.000 F 
ATOM      6  C   UNL     1       2.115   4.133  20.013  0.00  0.00    +0.000 A 
ATOM      7 BR   UNL     1       1.411   2.900  21.263  0.00  0.00    +0.000 Br
ATOM      8  C   UNL     1       2.670   3.662  18.821  0.00  0.00    +0.000 A 
ATOM      9  C   UNL     1       3.175   4.543  17.846  0.00  0.00    +0.000 A 
ENDROOT
BRANCH   9  10
ATOM     10  N   UNL     1       3.753   4.051  16.666  0.00  0.00    +0.000 N 
ATOM     11  H   UNL     1       3.183   3.376  16.158  0.00  0.00    +0.000 HD
BRANCH  10  12
ATOM     12  C   UNL     1       5.152   3.611  16.709  0.00  0.00    +0.000 C 
BRANCH  12  13
ATOM     13  C   UNL     1       6.038   4.210  15.663  0.00  0.00    +0.000 A 
ATOM     14  N   UNL     1       6.120   3.892  14.383  0.00  0.00    +0.000 NA
ATOM     15  C   UNL     1       7.099   4.721  13.915  0.00  0.00    +0.000 A 
ATOM     16  N   UNL     1       7.644   5.531  14.827  0.00  0.00    +0.000 NA
ATOM     17  N   UNL     1       6.957   5.192  15.931  0.00  0.00    +0.000 N 
ATOM     18  C   UNL     1       7.250   5.822  17.194  0.00  0.00    +0.000 C 
ENDBRANCH  12  13
ENDBRANCH  10  12
ENDBRANCH   9  10
TORSDOF 3
ENDMDL
MODEL 3
REMARK VINA RESULT:      -6.4      4.234      6.297
REMARK  Name = 
REMARK  5 active torsions:
REMARK  status: ('A' for Active; 'I' for Inactive)
REMARK    1  A    between atoms: C_1  and  C_2
REMARK    2  A    between atoms: C_9  and  N_10
REMARK    3  A    between atoms: N_10  and  C_11
REMARK    4  A    between atoms: C_11  and  C_12
REMARK    5  A    between atoms: N_16  and  C_17
REMARK                            x       y       z     vdW  Elec       q    Type
REMARK                         _______ _______ _______ _____ _____    ______ ____
ROOT
ATOM      1  C   UNL     1       7.031   5.591  17.946  0.00  0.00    +0.000 C 
ATOM      2  C   UNL     1       6.681   4.991  16.610  0.00  0.00    +0.000 A 
ATOM      3  C   UNL     1       7.441   5.382  15.491  0.00  0.00    +0.000 A 
ATOM      4  C   UNL     1       7.145   4.894  14.225  0.00  0.00    +0.000 A 
ATOM      5  F   UNL     1       7.900   5.284  13.189  0.00  0.00    +0.000 F 
ATOM      6  C   UNL     1       6.077   4.030  14.048  0.00  0.00    +0.000 A 
ATOM      7 BR   UNL     1       5.638   3.378  12.326  0.00  0.00    +0.000 Br
ATOM      8  C   UNL     1       5.314   3.634  15.147  0.00  0.00    +0.000 A 
ATOM      9  C   UNL     1       5.623   4.066  16.451  0.00  0.00    +0.000 A 
ENDROOT
BRANCH   9  10
ATOM     10  N   UNL     1       4.829   3.678  17.542  0.00  0.00    +0.000 N 
ATOM     11  H   UNL     1       4.635   2.679  17.598  0.00  0.00    +0.000 HD
BRANCH  10  12
ATOM     12  C   UNL     1       3.616   4.452  17.827  0.00  0.00    +0.000 C 
BRANCH  12  13
ATOM     13  C   UNL     1       2.477   3.663  18.390  0.00  0.00    +0.000 A 
ATOM     14  N   UNL     1       1.785   2.700  17.807  0.00  0.00    +0.000 NA
ATOM     15  C   UNL     1       0.858   2.362  18.751  0.00  0.00    +0.000 A 
ATOM     16  N   UNL     1       0.920   3.065  19.886  0.00  0.00    +0.000 NA
ATOM     17  N   UNL     1       1.955   3.886  19.637  0.00  0.00    +0.000 N 
ATOM     18  C   UNL     1       2.362   4.862  20.617  0.00  0.00    +0.000 C 
ENDBRANCH  12  13
ENDBRANCH  10  12
ENDBRANCH   9  10
TORSDOF 3
ENDMDL
MODEL 4
REMARK VINA RESULT:      -6.3      3.398      4.341
REMARK  Name = 
REMARK  5 active torsions:
REMARK  status: ('A' for Active; 'I' for Inactive)
REMARK    1  A    between atoms: C_1  and  C_2
REMARK    2  A    between atoms: C_9  and  N_10
REMARK    3  A    between atoms: N_10  and  C_11
REMARK    4  A    between atoms: C_11  and  C_12
REMARK    5  A    between atoms: N_16  and  C_17
REMARK                            x       y       z     vdW  Elec       q    Type
REMARK                         _______ _______ _______ _____ _____    ______ ____
ROOT
ATOM      1  C   UNL     1       7.462   5.349  18.411  0.00  0.00    +0.000 C 
ATOM      2  C   UNL     1       6.013   4.943  18.371  0.00  0.00    +0.000 A 
ATOM      3  C   UNL     1       5.191   5.319  19.453  0.00  0.00    +0.000 A 
ATOM      4  C   UNL     1       3.855   4.943  19.493  0.00  0.00    +0.000 A 
ATOM      5  F   UNL     1       3.107   5.330  20.535  0.00  0.00    +0.000 F 
ATOM      6  C   UNL     1       3.320   4.172  18.475  0.00  0.00    +0.000 A 
ATOM      7 BR   UNL     1       1.510   3.623  18.527  0.00  0.00    +0.000 Br
ATOM      8  C   UNL     1       4.122   3.791  17.397  0.00  0.00    +0.000 A 
ATOM      9  C   UNL     1       5.465   4.202  17.298  0.00  0.00    +0.000 A 
ENDROOT
BRANCH   9  10
ATOM     10  N   UNL     1       6.263   3.790  16.220  0.00  0.00    +0.000 N 
ATOM     11  H   UNL     1       7.218   4.146  16.231  0.00  0.00    +0.000 HD
BRANCH  10  12
ATOM     12  C   UNL     1       5.700   3.874  14.868  0.00  0.00    +0.000 C 
BRANCH  12  13
ATOM     13  C   UNL     1       6.635   4.396  13.823  0.00  0.00    +0.000 A 
ATOM     14  N   UNL     1       7.539   5.353  13.940  0.00  0.00    +0.000 NA
ATOM     15  C   UNL     1       8.073   5.437  12.686  0.00  0.00    +0.000 A 
ATOM     16  N   UNL     1       7.549   4.599  11.787  0.00  0.00    +0.000 NA
ATOM     17  N   UNL     1       6.637   3.946  12.528  0.00  0.00    +0.000 N 
ATOM     18  C   UNL     1       5.799   2.938  11.929  0.00  0.00    +0.000 C 
ENDBRANCH  12  13
ENDBRANCH  10  12
ENDBRANCH   9  10
TORSDOF 3
ENDMDL
MODEL 5
REMARK VINA RESULT:      -6.3      2.479      3.482
REMARK  Name = 
REMARK  5 active torsions:
REMARK  status: ('A' for Active; 'I' for Inactive)
REMARK    1  A    between atoms: C_1  and  C_2
REMARK    2  A    between atoms: C_9  and  N_10
REMARK    3  A    between atoms: N_10  and  C_11
REMARK    4  A    between atoms: C_11  and  C_12
REMARK    5  A    between atoms: N_16  and  C_17
REMARK                            x       y       z     vdW  Elec       q    Type
REMARK                         _______ _______ _______ _____ _____    ______ ____
ROOT
ATOM      1  C   UNL     1       2.077   8.187  19.106  0.00  0.00    +0.000 C 
ATOM      2  C   UNL     1       2.516   6.757  19.279  0.00  0.00    +0.000 A 
ATOM      3  C   UNL     1       2.041   6.050  20.401  0.00  0.00    +0.000 A 
ATOM      4  C   UNL     1       2.438   4.741  20.637  0.00  0.00    +0.000 A 
ATOM      5  F   UNL     1       1.954   4.103  21.711  0.00  0.00    +0.000 F 
ATOM      6  C   UNL     1       3.330   4.122  19.777  0.00  0.00    +0.000 A 
ATOM      7 BR   UNL     1       3.908   2.349  20.099  0.00  0.00    +0.000 Br
ATOM      8  C   UNL     1       3.811   4.809  18.661  0.00  0.00    +0.000 A 
ATOM      9  C   UNL     1       3.384   6.117  18.363  0.00  0.00    +0.000 A 
ENDROOT
BRANCH   9  10
ATOM     10  N   UNL     1       3.896   6.802  17.251  0.00  0.00    +0.000 N 
ATOM     11  H   UNL     1       3.585   6.448  16.347  0.00  0.00    +0.000 HD
BRANCH  10  12
ATOM     12  C   UNL     1       5.333   7.096  17.219  0.00  0.00    +0.000 C 
BRANCH  12  13
ATOM     13  C   UNL     1       6.167   6.109  16.464  0.00  0.00    +0.000 A 
ATOM     14  N   UNL     1       6.079   5.773  15.189  0.00  0.00    +0.000 NA
ATOM     15  C   UNL     1       7.046   4.819  15.048  0.00  0.00    +0.000 A 
ATOM     16  N   UNL     1       7.725   4.528  16.161  0.00  0.00    +0.000 NA
ATOM     17  N   UNL     1       7.152   5.357  17.050  0.00  0.00    +0.000 N 
ATOM     18  C   UNL     1       7.577   5.355  18.428  0.00  0.00    +0.000 C 
ENDBRANCH  12  13
ENDBRANCH  10  12
ENDBRANCH   9  10
TORSDOF 3
ENDMDL
MODEL 6
REMARK VINA RESULT:      -6.3      4.146      6.058
REMARK  Name = 
REMARK  5 active torsions:
REMARK  status: ('A' for Active; 'I' for Inactive)
REMARK    1  A    between atoms: C_1  and  C_2
REMARK    2  A    between atoms: C_9  and  N_10
REMARK    3  A    between atoms: N_10  and  C_11
REMARK    4  A    between atoms: C_11  and  C_12
REMARK    5  A    between atoms: N_16  and  C_17
REMARK                            x       y       z     vdW  Elec       q    Type
REMARK                         _______ _______ _______ _____ _____    ______ ____
ROOT
ATOM      1  C   UNL     1       7.084   5.466  18.015  0.00  0.00    +0.000 C 
ATOM      2  C   UNL     1       6.711   4.906  16.668  0.00  0.00    +0.000 A 
ATOM      3  C   UNL     1       7.469   5.311  15.551  0.00  0.00    +0.000 A 
ATOM      4  C   UNL     1       7.153   4.859  14.277  0.00  0.00    +0.000 A 
ATOM      5  F   UNL     1       7.907   5.260  13.244  0.00  0.00    +0.000 F 
ATOM      6  C   UNL     1       6.068   4.019  14.088  0.00  0.00    +0.000 A 
ATOM      7 BR   UNL     1       5.602   3.418  12.355  0.00  0.00    +0.000 Br
ATOM      8  C   UNL     1       5.306   3.611  15.184  0.00  0.00    +0.000 A 
ATOM      9  C   UNL     1       5.634   4.004  16.495  0.00  0.00    +0.000 A 
ENDROOT
BRANCH   9  10
ATOM     10  N   UNL     1       4.843   3.605  17.583  0.00  0.00    +0.000 N 
ATOM     11  H   UNL     1       4.966   2.634  17.870  0.00  0.00    +0.000 HD
BRANCH  10  12
ATOM     12  C   UNL     1       3.420   3.960  17.573  0.00  0.00    +0.000 C 
BRANCH  12  13
ATOM     13  C   UNL     1       2.814   4.191  18.922  0.00  0.00    +0.000 A 
ATOM     14  N   UNL     1       3.207   5.034  19.860  0.00  0.00    +0.000 NA
ATOM     15  C   UNL     1       2.326   4.805  20.878  0.00  0.00    +0.000 A 
ATOM     16  N   UNL     1       1.413   3.860  20.639  0.00  0.00    +0.000 NA
ATOM     17  N   UNL     1       1.739   3.481  19.391  0.00  0.00    +0.000 N 
ATOM     18  C   UNL     1       1.004   2.431  18.732  0.00  0.00    +0.000 C 
ENDBRANCH  12  13
ENDBRANCH  10  12
ENDBRANCH   9  10
TORSDOF 3
ENDMDL
MODEL 7
REMARK VINA RESULT:      -6.3      3.495      4.436
REMARK  Name = 
REMARK  5 active torsions:
REMARK  status: ('A' for Active; 'I' for Inactive)
REMARK    1  A    between atoms: C_1  and  C_2
REMARK    2  A    between atoms: C_9  and  N_10
REMARK    3  A    between atoms: N_10  and  C_11
REMARK    4  A    between atoms: C_11  and  C_12
REMARK    5  A    between atoms: N_16  and  C_17
REMARK                            x       y       z     vdW  Elec       q    Type
REMARK                         _______ _______ _______ _____ _____    ______ ____
ROOT
ATOM      1  C   UNL     1       2.235   4.109  21.008  0.00  0.00    +0.000 C 
ATOM      2  C   UNL     1       2.264   5.399  20.233  0.00  0.00    +0.000 A 
ATOM      3  C   UNL     1       1.693   6.542  20.828  0.00  0.00    +0.000 A 
ATOM      4  C   UNL     1       1.655   7.753  20.150  0.00  0.00    +0.000 A 
ATOM      5  F   UNL     1       1.113   8.817  20.758  0.00  0.00    +0.000 F 
ATOM      6  C   UNL     1       2.160   7.843  18.864  0.00  0.00    +0.000 A 
ATOM      7 BR   UNL     1       2.090   9.476  17.911  0.00  0.00    +0.000 Br
ATOM      8  C   UNL     1       2.728   6.720  18.260  0.00  0.00    +0.000 A 
ATOM      9  C   UNL     1       2.833   5.492  18.941  0.00  0.00    +0.000 A 
ENDROOT
BRANCH   9  10
ATOM     10  N   UNL     1       3.384   4.367  18.310  0.00  0.00    +0.000 N 
ATOM     11  H   UNL     1       2.835   3.513  18.398  0.00  0.00    +0.000 HD
BRANCH  10  12
ATOM     12  C   UNL     1       4.809   4.084  18.517  0.00  0.00    +0.000 C 
BRANCH  12  13
ATOM     13  C   UNL     1       5.674   4.269  17.311  0.00  0.00    +0.000 A 
ATOM     14  N   UNL     1       5.451   3.858  16.075  0.00  0.00    +0.000 NA
ATOM     15  C   UNL     1       6.567   4.265  15.401  0.00  0.00    +0.000 A 
ATOM     16  N   UNL     1       7.482   4.895  16.144  0.00  0.00    +0.000 NA
ATOM     17  N   UNL     1       6.897   4.888  17.354  0.00  0.00    +0.000 N 
ATOM     18  C   UNL     1       7.571   5.460  18.492  0.00  0.00    +0.000 C 
ENDBRANCH  12  13
ENDBRANCH  10  12
ENDBRANCH   9  10
TORSDOF 3
ENDMDL
MODEL 8
REMARK VINA RESULT:      -6.3      3.905      5.831
REMARK  Name = 
REMARK  5 active torsions:
REMARK  status: ('A' for Active; 'I' for Inactive)
REMARK    1  A    between atoms: C_1  and  C_2
REMARK    2  A    between atoms: C_9  and  N_10
REMARK    3  A    between atoms: N_10  and  C_11
REMARK    4  A    between atoms: C_11  and  C_12
REMARK    5  A    between atoms: N_16  and  C_17
REMARK                            x       y       z     vdW  Elec       q    Type
REMARK                         _______ _______ _______ _____ _____    ______ ____
ROOT
ATOM      1  C   UNL     1       3.819   6.610  17.447  0.00  0.00    +0.000 C 
ATOM      2  C   UNL     1       2.863   7.366  18.330  0.00  0.00    +0.000 A 
ATOM      3  C   UNL     1       2.280   8.542  17.818  0.00  0.00    +0.000 A 
ATOM      4  C   UNL     1       1.418   9.304  18.595  0.00  0.00    +0.000 A 
ATOM      5  F   UNL     1       0.878  10.410  18.066  0.00  0.00    +0.000 F 
ATOM      6  C   UNL     1       1.141   8.925  19.898  0.00  0.00    +0.000 A 
ATOM      7 BR   UNL     1      -0.006   9.968  20.984  0.00  0.00    +0.000 Br
ATOM      8  C   UNL     1       1.711   7.763  20.420  0.00  0.00    +0.000 A 
ATOM      9  C   UNL     1       2.543   6.938  19.640  0.00  0.00    +0.000 A 
ENDROOT
BRANCH   9  10
ATOM     10  N   UNL     1       3.128   5.786  20.188  0.00  0.00    +0.000 N 
ATOM     11  H   UNL     1       4.045   5.549  19.812  0.00  0.00    +0.000 HD
BRANCH  10  12
ATOM     12  C   UNL     1       2.300   4.582  20.318  0.00  0.00    +0.000 C 
BRANCH  12  13
ATOM     13  C   UNL     1       2.501   3.555  19.249  0.00  0.00    +0.000 A 
ATOM     14  N   UNL     1       1.826   3.408  18.122  0.00  0.00    +0.000 NA
ATOM     15  C   UNL     1       2.403   2.310  17.551  0.00  0.00    +0.000 A 
ATOM     16  N   UNL     1       3.390   1.753  18.259  0.00  0.00    +0.000 NA
ATOM     17  N   UNL     1       3.437   2.558  19.334  0.00  0.00    +0.000 N 
ATOM     18  C   UNL     1       4.373   2.298  20.399  0.00  0.00    +0.000 C 
ENDBRANCH  12  13
ENDBRANCH  10  12
ENDBRANCH   9  10
TORSDOF 3
ENDMDL
MODEL 9
REMARK VINA RESULT:      -6.2      3.943      6.093
REMARK  Name = 
REMARK  5 active torsions:
REMARK  status: ('A' for Active; 'I' for Inactive)
REMARK    1  A    between atoms: C_1  and  C_2
REMARK    2  A    between atoms: C_9  and  N_10
REMARK    3  A    between atoms: N_10  and  C_11
REMARK    4  A    between atoms: C_11  and  C_12
REMARK    5  A    between atoms: N_16  and  C_17
REMARK                            x       y       z     vdW  Elec       q    Type
REMARK                         _______ _______ _______ _____ _____    ______ ____
ROOT
ATOM      1  C   UNL     1       5.343   5.414  19.358  0.00  0.00    +0.000 C 
ATOM      2  C   UNL     1       5.430   4.960  17.925  0.00  0.00    +0.000 A 
ATOM      3  C   UNL     1       6.686   5.016  17.289  0.00  0.00    +0.000 A 
ATOM      4  C   UNL     1       6.826   4.647  15.958  0.00  0.00    +0.000 A 
ATOM      5  F   UNL     1       8.040   4.706  15.395  0.00  0.00    +0.000 F 
ATOM      6  C   UNL     1       5.719   4.240  15.232  0.00  0.00    +0.000 A 
ATOM      7 BR   UNL     1       5.882   3.764  13.408  0.00  0.00    +0.000 Br
ATOM      8  C   UNL     1       4.467   4.180  15.848  0.00  0.00    +0.000 A 
ATOM      9  C   UNL     1       4.302   4.493  17.210  0.00  0.00    +0.000 A 
ENDROOT
BRANCH   9  10
ATOM     10  N   UNL     1       3.033   4.451  17.807  0.00  0.00    +0.000 N 
ATOM     11  H   UNL     1       2.882   5.138  18.544  0.00  0.00    +0.000 HD
BRANCH  10  12
ATOM     12  C   UNL     1       2.497   3.145  18.206  0.00  0.00    +0.000 C 
BRANCH  12  13
ATOM     13  C   UNL     1       2.240   2.986  19.671  0.00  0.00    +0.000 A 
ATOM     14  N   UNL     1       1.146   3.293  20.346  0.00  0.00    +0.000 NA
ATOM     15  C   UNL     1       1.471   2.974  21.633  0.00  0.00    +0.000 A 
ATOM     16  N   UNL     1       2.706   2.497  21.807  0.00  0.00    +0.000 NA
ATOM     17  N   UNL     1       3.179   2.511  20.549  0.00  0.00    +0.000 N 
ATOM     18  C   UNL     1       4.529   2.088  20.273  0.00  0.00    +0.000 C 
ENDBRANCH  12  13
ENDBRANCH  10  12
ENDBRANCH   9  10
TORSDOF 3
ENDMDL
