MODEL 1
REMARK VINA RESULT:      -6.8      0.000      0.000
REMARK  Name = 
REMARK  6 active torsions:
REMARK  status: ('A' for Active; 'I' for Inactive)
REMARK    1  A    between atoms: C_1  and  C_2
REMARK    2  A    between atoms: C_2  and  O_3
REMARK    3  A    between atoms: O_3  and  C_4
REMARK    4  A    between atoms: C_5  and  S_6
REMARK    5  A    between atoms: S_6  and  C_7
REMARK    6  A    between atoms: N_11  and  C_12
REMARK                            x       y       z     vdW  Elec       q    Type
REMARK                         _______ _______ _______ _____ _____    ______ ____
ROOT
ATOM      1  C   UNL     1       2.556   5.597  19.898  0.00  0.00    +0.000 C 
ATOM      2  C   UNL     1       3.223   5.635  18.725  0.00  0.00    +0.000 C 
ATOM      3  C   UNL     1       3.327   6.888  17.906  0.00  0.00    +0.000 C 
ATOM      4  O   UNL     1       4.062   6.995  16.928  0.00  0.00    +0.000 OA
ATOM      5  C   UNL     1       2.523   8.052  18.326  0.00  0.00    +0.000 A 
ATOM      6  C   UNL     1       2.493   9.220  17.548  0.00  0.00    +0.000 A 
ATOM      7  C   UNL     1       1.734  10.324  17.954  0.00  0.00    +0.000 A 
ATOM      8  C   UNL     1       1.001  10.272  19.137  0.00  0.00    +0.000 A 
ATOM      9  C   UNL     1       1.043   9.122  19.919  0.00  0.00    +0.000 A 
ATOM     10  C   UNL     1       1.809   8.015  19.514  0.00  0.00    +0.000 A 
ATOM     11  C   UNL     1       1.891   6.850  20.395  0.00  0.00    +0.000 C 
ATOM     12  O   UNL     1       1.425   6.966  21.525  0.00  0.00    +0.000 OA
ENDROOT
BRANCH   1  13
ATOM     13  O   UNL     1       2.529   4.405  20.634  0.00  0.00    +0.000 OA
BRANCH  13  15
ATOM     14  C   UNL     1       1.413   2.541  21.678  0.00  0.00    +0.000 C 
ATOM     15  C   UNL     1       1.285   3.708  20.720  0.00  0.00    +0.000 C 
ENDBRANCH  13  15
ENDBRANCH   1  13
BRANCH   2  16
ATOM     16  S   UNL     1       4.130   4.262  18.122  0.00  0.00    +0.000 S 
BRANCH  16  17
ATOM     17  C   UNL     1       5.734   4.804  18.507  0.00  0.00    +0.000 A 
ATOM     18  N   UNL     1       6.141   5.249  19.676  0.00  0.00    +0.000 NA
ATOM     19  C   UNL     1       7.469   5.550  19.510  0.00  0.00    +0.000 A 
ATOM     20  C   UNL     1       7.873   5.285  18.224  0.00  0.00    +0.000 A 
ATOM     21  N   UNL     1       6.759   4.804  17.589  0.00  0.00    +0.000 N 
ATOM     22  C   UNL     1       6.718   4.397  16.205  0.00  0.00    +0.000 C 
ENDBRANCH  16  17
ENDBRANCH   2  16
TORSDOF 4
ENDMDL
MODEL 2
REMARK VINA RESULT:      -6.6      1.223      1.565
REMARK  Name = 
REMARK  6 active torsions:
REMARK  status: ('A' for Active; 'I' for Inactive)
REMARK    1  A    between atoms: C_1  and  C_2
REMARK    2  A    between atoms: C_2  and  O_3
REMARK    3  A    between atoms: O_3  and  C_4
REMARK    4  A    between atoms: C_5  and  S_6
REMARK    5  A    between atoms: S_6  and  C_7
REMARK    6  A    between atoms: N_11  and  C_12
REMARK                            x       y       z     vdW  Elec       q    Type
REMARK                         _______ _______ _______ _____ _____    ______ ____
ROOT
ATOM      1  C   UNL     1       2.837   4.319  19.394  0.00  0.00    +0.000 C 
ATOM      2  C   UNL     1       3.260   4.774  18.196  0.00  0.00    +0.000 C 
ATOM      3  C   UNL     1       3.188   6.225  17.821  0.00  0.00    +0.000 C 
ATOM      4  O   UNL     1       3.716   6.688  16.814  0.00  0.00    +0.000 OA
ATOM      5  C   UNL     1       2.472   7.136  18.735  0.00  0.00    +0.000 A 
ATOM      6  C   UNL     1       2.278   8.484  18.396  0.00  0.00    +0.000 A 
ATOM      7  C   UNL     1       1.603   9.345  19.268  0.00  0.00    +0.000 A 
ATOM      8  C   UNL     1       1.118   8.870  20.484  0.00  0.00    +0.000 A 
ATOM      9  C   UNL     1       1.324   7.538  20.831  0.00  0.00    +0.000 A 
ATOM     10  C   UNL     1       2.006   6.675  19.956  0.00  0.00    +0.000 A 
ATOM     11  C   UNL     1       2.270   5.300  20.383  0.00  0.00    +0.000 C 
ATOM     12  O   UNL     1       2.035   5.020  21.555  0.00  0.00    +0.000 OA
ENDROOT
BRANCH   1  13
ATOM     13  O   UNL     1       2.967   2.958  19.698  0.00  0.00    +0.000 OA
BRANCH  13  15
ATOM     14  C   UNL     1       0.831   2.355  18.756  0.00  0.00    +0.000 C 
ATOM     15  C   UNL     1       1.770   2.215  19.937  0.00  0.00    +0.000 C 
ENDBRANCH  13  15
ENDBRANCH   1  13
BRANCH   2  16
ATOM     16  S   UNL     1       4.043   3.730  17.026  0.00  0.00    +0.000 S 
BRANCH  16  17
ATOM     17  C   UNL     1       5.690   4.213  17.289  0.00  0.00    +0.000 A 
ATOM     18  N   UNL     1       6.255   4.431  18.457  0.00  0.00    +0.000 NA
ATOM     19  C   UNL     1       7.553   4.779  18.175  0.00  0.00    +0.000 A 
ATOM     20  C   UNL     1       7.776   4.773  16.820  0.00  0.00    +0.000 A 
ATOM     21  N   UNL     1       6.582   4.405  16.260  0.00  0.00    +0.000 N 
ATOM     22  C   UNL     1       6.351   4.272  14.841  0.00  0.00    +0.000 C 
ENDBRANCH  16  17
ENDBRANCH   2  16
TORSDOF 4
ENDMDL
MODEL 3
REMARK VINA RESULT:      -6.5      1.912      4.478
REMARK  Name = 
REMARK  6 active torsions:
REMARK  status: ('A' for Active; 'I' for Inactive)
REMARK    1  A    between atoms: C_1  and  C_2
REMARK    2  A    between atoms: C_2  and  O_3
REMARK    3  A    between atoms: O_3  and  C_4
REMARK    4  A    between atoms: C_5  and  S_6
REMARK    5  A    between atoms: S_6  and  C_7
REMARK    6  A    between atoms: N_11  and  C_12
REMARK                            x       y       z     vdW  Elec       q    Type
REMARK                         _______ _______ _______ _____ _____    ______ ____
ROOT
ATOM      1  C   UNL     1       3.381   6.648  18.421  0.00  0.00    +0.000 C 
ATOM      2  C   UNL     1       4.089   5.707  17.759  0.00  0.00    +0.000 C 
ATOM      3  C   UNL     1       4.038   4.257  18.139  0.00  0.00    +0.000 C 
ATOM      4  O   UNL     1       4.535   3.364  17.457  0.00  0.00    +0.000 OA
ATOM      5  C   UNL     1       3.325   3.895  19.379  0.00  0.00    +0.000 A 
ATOM      6  C   UNL     1       3.326   2.572  19.847  0.00  0.00    +0.000 A 
ATOM      7  C   UNL     1       2.643   2.233  21.020  0.00  0.00    +0.000 A 
ATOM      8  C   UNL     1       1.954   3.209  21.735  0.00  0.00    +0.000 A 
ATOM      9  C   UNL     1       1.936   4.519  21.264  0.00  0.00    +0.000 A 
ATOM     10  C   UNL     1       2.618   4.857  20.084  0.00  0.00    +0.000 A 
ATOM     11  C   UNL     1       2.518   6.227  19.577  0.00  0.00    +0.000 C 
ATOM     12  O   UNL     1       1.701   6.968  20.116  0.00  0.00    +0.000 OA
ENDROOT
BRANCH   1  13
ATOM     13  O   UNL     1       3.442   7.981  17.992  0.00  0.00    +0.000 OA
BRANCH  13  15
ATOM     14  C   UNL     1       1.992   9.902  18.118  0.00  0.00    +0.000 C 
ATOM     15  C   UNL     1       2.249   8.561  17.461  0.00  0.00    +0.000 C 
ENDBRANCH  13  15
ENDBRANCH   1  13
BRANCH   2  16
ATOM     16  S   UNL     1       5.028   6.080  16.328  0.00  0.00    +0.000 S 
BRANCH  16  17
ATOM     17  C   UNL     1       6.362   6.897  17.082  0.00  0.00    +0.000 A 
ATOM     18  N   UNL     1       6.574   8.195  17.084  0.00  0.00    +0.000 NA
ATOM     19  C   UNL     1       7.731   8.375  17.800  0.00  0.00    +0.000 A 
ATOM     20  C   UNL     1       8.228   7.170  18.235  0.00  0.00    +0.000 A 
ATOM     21  N   UNL     1       7.345   6.230  17.775  0.00  0.00    +0.000 N 
ATOM     22  C   UNL     1       7.476   4.810  17.996  0.00  0.00    +0.000 C 
ENDBRANCH  16  17
ENDBRANCH   2  16
TORSDOF 4
ENDMDL
MODEL 4
REMARK VINA RESULT:      -6.2      2.730      4.976
REMARK  Name = 
REMARK  6 active torsions:
REMARK  status: ('A' for Active; 'I' for Inactive)
REMARK    1  A    between atoms: C_1  and  C_2
REMARK    2  A    between atoms: C_2  and  O_3
REMARK    3  A    between atoms: O_3  and  C_4
REMARK    4  A    between atoms: C_5  and  S_6
REMARK    5  A    between atoms: S_6  and  C_7
REMARK    6  A    between atoms: N_11  and  C_12
REMARK                            x       y       z     vdW  Elec       q    Type
REMARK                         _______ _______ _______ _____ _____    ______ ____
ROOT
ATOM      1  C   UNL     1       4.587   3.901  16.987  0.00  0.00    +0.000 C 
ATOM      2  C   UNL     1       4.448   5.175  17.410  0.00  0.00    +0.000 C 
ATOM      3  C   UNL     1       3.476   5.557  18.487  0.00  0.00    +0.000 C 
ATOM      4  O   UNL     1       3.447   6.669  19.006  0.00  0.00    +0.000 OA
ATOM      5  C   UNL     1       2.533   4.524  18.960  0.00  0.00    +0.000 A 
ATOM      6  C   UNL     1       1.531   4.841  19.890  0.00  0.00    +0.000 A 
ATOM      7  C   UNL     1       0.644   3.857  20.340  0.00  0.00    +0.000 A 
ATOM      8  C   UNL     1       0.749   2.551  19.868  0.00  0.00    +0.000 A 
ATOM      9  C   UNL     1       1.753   2.230  18.959  0.00  0.00    +0.000 A 
ATOM     10  C   UNL     1       2.646   3.218  18.510  0.00  0.00    +0.000 A 
ATOM     11  C   UNL     1       3.736   2.832  17.612  0.00  0.00    +0.000 C 
ATOM     12  O   UNL     1       3.917   1.631  17.432  0.00  0.00    +0.000 OA
ENDROOT
BRANCH   1  13
ATOM     13  O   UNL     1       5.540   3.604  16.004  0.00  0.00    +0.000 OA
BRANCH  13  15
ATOM     14  C   UNL     1       6.500   4.250  13.889  0.00  0.00    +0.000 C 
ATOM     15  C   UNL     1       5.227   3.945  14.652  0.00  0.00    +0.000 C 
ENDBRANCH  13  15
ENDBRANCH   1  13
BRANCH   2  16
ATOM     16  S   UNL     1       5.476   6.469  16.828  0.00  0.00    +0.000 S 
BRANCH  16  17
ATOM     17  C   UNL     1       6.759   6.343  17.992  0.00  0.00    +0.000 A 
ATOM     18  N   UNL     1       6.986   5.318  18.785  0.00  0.00    +0.000 NA
ATOM     19  C   UNL     1       8.096   5.661  19.515  0.00  0.00    +0.000 A 
ATOM     20  C   UNL     1       8.546   6.910  19.162  0.00  0.00    +0.000 A 
ATOM     21  N   UNL     1       7.689   7.338  18.184  0.00  0.00    +0.000 N 
ATOM     22  C   UNL     1       7.781   8.615  17.518  0.00  0.00    +0.000 C 
ENDBRANCH  16  17
ENDBRANCH   2  16
TORSDOF 4
ENDMDL
MODEL 5
REMARK VINA RESULT:      -6.2      2.015      4.418
REMARK  Name = 
REMARK  6 active torsions:
REMARK  status: ('A' for Active; 'I' for Inactive)
REMARK    1  A    between atoms: C_1  and  C_2
REMARK    2  A    between atoms: C_2  and  O_3
REMARK    3  A    between atoms: O_3  and  C_4
REMARK    4  A    between atoms: C_5  and  S_6
REMARK    5  A    between atoms: S_6  and  C_7
REMARK    6  A    between atoms: N_11  and  C_12
REMARK                            x       y       z     vdW  Elec       q    Type
REMARK                         _______ _______ _______ _____ _____    ______ ____
ROOT
ATOM      1  C   UNL     1       3.717   6.791  18.104  0.00  0.00    +0.000 C 
ATOM      2  C   UNL     1       3.581   6.056  19.228  0.00  0.00    +0.000 C 
ATOM      3  C   UNL     1       2.549   6.373  20.270  0.00  0.00    +0.000 C 
ATOM      4  O   UNL     1       2.293   5.629  21.213  0.00  0.00    +0.000 OA
ATOM      5  C   UNL     1       1.789   7.629  20.123  0.00  0.00    +0.000 A 
ATOM      6  C   UNL     1       0.883   8.038  21.115  0.00  0.00    +0.000 A 
ATOM      7  C   UNL     1       0.160   9.227  20.969  0.00  0.00    +0.000 A 
ATOM      8  C   UNL     1       0.334  10.017  19.836  0.00  0.00    +0.000 A 
ATOM      9  C   UNL     1       1.218   9.605  18.843  0.00  0.00    +0.000 A 
ATOM     10  C   UNL     1       1.941   8.409  18.988  0.00  0.00    +0.000 A 
ATOM     11  C   UNL     1       2.807   7.968  17.893  0.00  0.00    +0.000 C 
ATOM     12  O   UNL     1       2.725   8.579  16.831  0.00  0.00    +0.000 OA
ENDROOT
BRANCH   1  13
ATOM     13  O   UNL     1       4.675   6.419  17.151  0.00  0.00    +0.000 OA
BRANCH  13  15
ATOM     14  C   UNL     1       7.074   6.189  17.189  0.00  0.00    +0.000 C 
ATOM     15  C   UNL     1       5.903   7.149  17.128  0.00  0.00    +0.000 C 
ENDBRANCH  13  15
ENDBRANCH   1  13
BRANCH   2  16
ATOM     16  S   UNL     1       4.512   4.598  19.507  0.00  0.00    +0.000 S 
BRANCH  16  17
ATOM     17  C   UNL     1       3.371   3.429  18.920  0.00  0.00    +0.000 A 
ATOM     18  N   UNL     1       3.054   3.221  17.661  0.00  0.00    +0.000 NA
ATOM     19  C   UNL     1       2.128   2.208  17.679  0.00  0.00    +0.000 A 
ATOM     20  C   UNL     1       1.879   1.797  18.967  0.00  0.00    +0.000 A 
ATOM     21  N   UNL     1       2.681   2.579  19.755  0.00  0.00    +0.000 N 
ATOM     22  C   UNL     1       2.744   2.496  21.194  0.00  0.00    +0.000 C 
ENDBRANCH  16  17
ENDBRANCH   2  16
TORSDOF 4
ENDMDL
MODEL 6
REMARK VINA RESULT:      -6.1      1.394      1.701
REMARK  Name = 
REMARK  6 active torsions:
REMARK  status: ('A' for Active; 'I' for Inactive)
REMARK    1  A    between atoms: C_1  and  C_2
REMARK    2  A    between atoms: C_2  and  O_3
REMARK    3  A    between atoms: O_3  and  C_4
REMARK    4  A    between atoms: C_5  and  S_6
REMARK    5  A    between atoms: S_6  and  C_7
REMARK    6  A    between atoms: N_11  and  C_12
REMARK                            x       y       z     vdW  Elec       q    Type
REMARK                         _______ _______ _______ _____ _____    ______ ____
ROOT
ATOM      1  C   UNL     1       2.737   4.277  19.378  0.00  0.00    +0.000 C 
ATOM      2  C   UNL     1       3.211   4.725  18.196  0.00  0.00    +0.000 C 
ATOM      3  C   UNL     1       3.196   6.180  17.831  0.00  0.00    +0.000 C 
ATOM      4  O   UNL     1       3.769   6.633  16.844  0.00  0.00    +0.000 OA
ATOM      5  C   UNL     1       2.481   7.107  18.730  0.00  0.00    +0.000 A 
ATOM      6  C   UNL     1       2.339   8.463  18.395  0.00  0.00    +0.000 A 
ATOM      7  C   UNL     1       1.665   9.340  19.253  0.00  0.00    +0.000 A 
ATOM      8  C   UNL     1       1.128   8.872  20.449  0.00  0.00    +0.000 A 
ATOM      9  C   UNL     1       1.282   7.532  20.792  0.00  0.00    +0.000 A 
ATOM     10  C   UNL     1       1.963   6.653  19.932  0.00  0.00    +0.000 A 
ATOM     11  C   UNL     1       2.171   5.268  20.356  0.00  0.00    +0.000 C 
ATOM     12  O   UNL     1       1.891   4.987  21.518  0.00  0.00    +0.000 OA
ENDROOT
BRANCH   1  13
ATOM     13  O   UNL     1       2.815   2.909  19.675  0.00  0.00    +0.000 OA
BRANCH  13  15
ATOM     14  C   UNL     1       4.820   1.728  20.301  0.00  0.00    +0.000 C 
ATOM     15  C   UNL     1       3.622   2.518  20.787  0.00  0.00    +0.000 C 
ENDBRANCH  13  15
ENDBRANCH   1  13
BRANCH   2  16
ATOM     16  S   UNL     1       3.997   3.666  17.043  0.00  0.00    +0.000 S 
BRANCH  16  17
ATOM     17  C   UNL     1       5.641   4.171  17.285  0.00  0.00    +0.000 A 
ATOM     18  N   UNL     1       6.201   4.459  18.440  0.00  0.00    +0.000 NA
ATOM     19  C   UNL     1       7.497   4.797  18.143  0.00  0.00    +0.000 A 
ATOM     20  C   UNL     1       7.726   4.715  16.791  0.00  0.00    +0.000 A 
ATOM     21  N   UNL     1       6.535   4.310  16.248  0.00  0.00    +0.000 N 
ATOM     22  C   UNL     1       6.310   4.096  14.839  0.00  0.00    +0.000 C 
ENDBRANCH  16  17
ENDBRANCH   2  16
TORSDOF 4
ENDMDL
MODEL 7
REMARK VINA RESULT:      -6.0      7.791     10.623
REMARK  Name = 
REMARK  6 active torsions:
REMARK  status: ('A' for Active; 'I' for Inactive)
REMARK    1  A    between atoms: C_1  and  C_2
REMARK    2  A    between atoms: C_2  and  O_3
REMARK    3  A    between atoms: O_3  and  C_4
REMARK    4  A    between atoms: C_5  and  S_6
REMARK    5  A    between atoms: S_6  and  C_7
REMARK    6  A    between atoms: N_11  and  C_12
REMARK                            x       y       z     vdW  Elec       q    Type
REMARK                         _______ _______ _______ _____ _____    ______ ____
ROOT
ATOM      1  C   UNL     1      -3.275  10.923  17.822  0.00  0.00    +0.000 C 
ATOM      2  C   UNL     1      -4.036  11.754  18.566  0.00  0.00    +0.000 C 
ATOM      3  C   UNL     1      -3.505  12.443  19.788  0.00  0.00    +0.000 C 
ATOM      4  O   UNL     1      -4.117  13.326  20.382  0.00  0.00    +0.000 OA
ATOM      5  C   UNL     1      -2.166  12.053  20.270  0.00  0.00    +0.000 A 
ATOM      6  C   UNL     1      -1.653  12.582  21.465  0.00  0.00    +0.000 A 
ATOM      7  C   UNL     1      -0.380  12.213  21.915  0.00  0.00    +0.000 A 
ATOM      8  C   UNL     1       0.390  11.316  21.179  0.00  0.00    +0.000 A 
ATOM      9  C   UNL     1      -0.110  10.804  19.985  0.00  0.00    +0.000 A 
ATOM     10  C   UNL     1      -1.386  11.177  19.531  0.00  0.00    +0.000 A 
ATOM     11  C   UNL     1      -1.851  10.678  18.236  0.00  0.00    +0.000 C 
ATOM     12  O   UNL     1      -1.031  10.095  17.532  0.00  0.00    +0.000 OA
ENDROOT
BRANCH   1  13
ATOM     13  O   UNL     1      -3.818  10.340  16.670  0.00  0.00    +0.000 OA
BRANCH  13  15
ATOM     14  C   UNL     1      -2.906   9.977  14.468  0.00  0.00    +0.000 C 
ATOM     15  C   UNL     1      -3.545  10.970  15.417  0.00  0.00    +0.000 C 
ENDBRANCH  13  15
ENDBRANCH   1  13
BRANCH   2  16
ATOM     16  S   UNL     1      -5.666  12.195  18.098  0.00  0.00    +0.000 S 
BRANCH  16  17
ATOM     17  C   UNL     1      -6.549  11.145  19.163  0.00  0.00    +0.000 A 
ATOM     18  N   UNL     1      -6.563   9.830  19.117  0.00  0.00    +0.000 NA
ATOM     19  C   UNL     1      -7.382   9.438  20.146  0.00  0.00    +0.000 A 
ATOM     20  C   UNL     1      -7.872  10.528  20.823  0.00  0.00    +0.000 A 
ATOM     21  N   UNL     1      -7.331  11.616  20.192  0.00  0.00    +0.000 N 
ATOM     22  C   UNL     1      -7.580  12.987  20.569  0.00  0.00    +0.000 C 
ENDBRANCH  16  17
ENDBRANCH   2  16
TORSDOF 4
ENDMDL
MODEL 8
REMARK VINA RESULT:      -6.0      1.628      2.173
REMARK  Name = 
REMARK  6 active torsions:
REMARK  status: ('A' for Active; 'I' for Inactive)
REMARK    1  A    between atoms: C_1  and  C_2
REMARK    2  A    between atoms: C_2  and  O_3
REMARK    3  A    between atoms: O_3  and  C_4
REMARK    4  A    between atoms: C_5  and  S_6
REMARK    5  A    between atoms: S_6  and  C_7
REMARK    6  A    between atoms: N_11  and  C_12
REMARK                            x       y       z     vdW  Elec       q    Type
REMARK                         _______ _______ _______ _____ _____    ______ ____
ROOT
ATOM      1  C   UNL     1       3.275   5.044  19.189  0.00  0.00    +0.000 C 
ATOM      2  C   UNL     1       3.570   5.866  18.160  0.00  0.00    +0.000 C 
ATOM      3  C   UNL     1       3.106   7.292  18.119  0.00  0.00    +0.000 C 
ATOM      4  O   UNL     1       3.497   8.105  17.286  0.00  0.00    +0.000 OA
ATOM      5  C   UNL     1       2.157   7.736  19.159  0.00  0.00    +0.000 A 
ATOM      6  C   UNL     1       1.603   9.025  19.120  0.00  0.00    +0.000 A 
ATOM      7  C   UNL     1       0.708   9.443  20.112  0.00  0.00    +0.000 A 
ATOM      8  C   UNL     1       0.359   8.581  21.148  0.00  0.00    +0.000 A 
ATOM      9  C   UNL     1       0.920   7.308  21.198  0.00  0.00    +0.000 A 
ATOM     10  C   UNL     1       1.822   6.890  20.205  0.00  0.00    +0.000 A 
ATOM     11  C   UNL     1       2.450   5.574  20.328  0.00  0.00    +0.000 C 
ATOM     12  O   UNL     1       2.289   4.970  21.385  0.00  0.00    +0.000 OA
ENDROOT
BRANCH   1  13
ATOM     13  O   UNL     1       3.771   3.733  19.185  0.00  0.00    +0.000 OA
BRANCH  13  15
ATOM     14  C   UNL     1       2.457   2.360  17.703  0.00  0.00    +0.000 C 
ATOM     15  C   UNL     1       2.823   2.666  19.141  0.00  0.00    +0.000 C 
ENDBRANCH  13  15
ENDBRANCH   1  13
BRANCH   2  16
ATOM     16  S   UNL     1       4.622   5.378  16.847  0.00  0.00    +0.000 S 
BRANCH  16  17
ATOM     17  C   UNL     1       6.046   6.265  17.294  0.00  0.00    +0.000 A 
ATOM     18  N   UNL     1       6.464   7.386  16.747  0.00  0.00    +0.000 NA
ATOM     19  C   UNL     1       7.612   7.717  17.422  0.00  0.00    +0.000 A 
ATOM     20  C   UNL     1       7.896   6.783  18.389  0.00  0.00    +0.000 A 
ATOM     21  N   UNL     1       6.888   5.860  18.304  0.00  0.00    +0.000 N 
ATOM     22  C   UNL     1       6.781   4.687  19.138  0.00  0.00    +0.000 C 
ENDBRANCH  16  17
ENDBRANCH   2  16
TORSDOF 4
ENDMDL
MODEL 9
REMARK VINA RESULT:      -5.9      3.981      6.848
REMARK  Name = 
REMARK  6 active torsions:
REMARK  status: ('A' for Active; 'I' for Inactive)
REMARK    1  A    between atoms: C_1  and  C_2
REMARK    2  A    between atoms: C_2  and  O_3
REMARK    3  A    between atoms: O_3  and  C_4
REMARK    4  A    between atoms: C_5  and  S_6
REMARK    5  A    between atoms: S_6  and  C_7
REMARK    6  A    between atoms: N_11  and  C_12
REMARK                            x       y       z     vdW  Elec       q    Type
REMARK                         _______ _______ _______ _____ _____    ______ ____
ROOT
ATOM      1  C   UNL     1       0.877   8.600  20.306  0.00  0.00    +0.000 C 
ATOM      2  C   UNL     1       1.213   9.470  19.330  0.00  0.00    +0.000 C 
ATOM      3  C   UNL     1       2.140   9.096  18.212  0.00  0.00    +0.000 C 
ATOM      4  O   UNL     1       2.330   9.804  17.227  0.00  0.00    +0.000 OA
ATOM      5  C   UNL     1       2.829   7.793  18.298  0.00  0.00    +0.000 A 
ATOM      6  C   UNL     1       3.788   7.425  17.340  0.00  0.00    +0.000 A 
ATOM      7  C   UNL     1       4.434   6.187  17.422  0.00  0.00    +0.000 A 
ATOM      8  C   UNL     1       4.130   5.306  18.457  0.00  0.00    +0.000 A 
ATOM      9  C   UNL     1       3.167   5.661  19.398  0.00  0.00    +0.000 A 
ATOM     10  C   UNL     1       2.516   6.903  19.312  0.00  0.00    +0.000 A 
ATOM     11  C   UNL     1       1.456   7.214  20.274  0.00  0.00    +0.000 C 
ATOM     12  O   UNL     1       1.072   6.302  21.001  0.00  0.00    +0.000 OA
ENDROOT
BRANCH   1  13
ATOM     13  O   UNL     1      -0.025   8.999  21.301  0.00  0.00    +0.000 OA
BRANCH  13  15
ATOM     14  C   UNL     1      -0.536  10.169  23.346  0.00  0.00    +0.000 C 
ATOM     15  C   UNL     1       0.515   9.415  22.557  0.00  0.00    +0.000 C 
ENDBRANCH  13  15
ENDBRANCH   1  13
BRANCH   2  16
ATOM     16  S   UNL     1       0.498  11.065  19.215  0.00  0.00    +0.000 S 
BRANCH  16  17
ATOM     17  C   UNL     1      -0.975  10.646  18.397  0.00  0.00    +0.000 A 
ATOM     18  N   UNL     1      -1.096   9.777  17.416  0.00  0.00    +0.000 NA
ATOM     19  C   UNL     1      -2.430   9.771  17.096  0.00  0.00    +0.000 A 
ATOM     20  C   UNL     1      -3.127  10.649  17.890  0.00  0.00    +0.000 A 
ATOM     21  N   UNL     1      -2.191  11.202  18.723  0.00  0.00    +0.000 N 
ATOM     22  C   UNL     1      -2.478  12.192  19.733  0.00  0.00    +0.000 C 
ENDBRANCH  16  17
ENDBRANCH   2  16
TORSDOF 4
ENDMDL
