MODEL 1
REMARK VINA RESULT:      -9.2      0.000      0.000
REMARK  Name = 
REMARK  5 active torsions:
REMARK  status: ('A' for Active; 'I' for Inactive)
REMARK    1  A    between atoms: C_1  and  N_2
REMARK    2  A    between atoms: N_2  and  C_3
REMARK    3  A    between atoms: N_2  and  C_10
REMARK    4  A    between atoms: C_3  and  C_4
REMARK    5  A    between atoms: C_20  and  O_21
REMARK                            x       y       z     vdW  Elec       q    Type
REMARK                         _______ _______ _______ _____ _____    ______ ____
ROOT
ATOM      1  C   UNL     1       4.679   4.926  17.898  0.00  0.00    +0.000 A 
ATOM      2  N   UNL     1       5.044   3.681  18.354  0.00  0.00    +0.000 NA
ATOM      3  C   UNL     1       4.465   3.122  19.421  0.00  0.00    +0.000 A 
ATOM      4  N   UNL     1       4.917   1.879  19.823  0.00  0.00    +0.000 N 
ATOM      5  N   UNL     1       3.552   3.692  20.193  0.00  0.00    +0.000 NA
ATOM      6  C   UNL     1       3.215   4.913  19.768  0.00  0.00    +0.000 A 
ATOM      7  N   UNL     1       2.371   5.704  20.478  0.00  0.00    +0.000 N 
ATOM      8  C   UNL     1       2.230   6.919  19.866  0.00  0.00    +0.000 A 
ATOM      9  C   UNL     1       1.534   8.047  20.314  0.00  0.00    +0.000 A 
ATOM     10  C   UNL     1       1.438   9.136  19.454  0.00  0.00    +0.000 A 
ATOM     11  C   UNL     1       2.007   9.067  18.192  0.00  0.00    +0.000 A 
ATOM     12  C   UNL     1       2.770   7.964  17.786  0.00  0.00    +0.000 A 
ATOM     13  C   UNL     1       2.925   6.852  18.648  0.00  0.00    +0.000 A 
ATOM     14  C   UNL     1       3.664   5.597  18.644  0.00  0.00    +0.000 A 
ATOM     15  H   UNL     1       5.889   1.785  19.559  0.00  0.00    +0.000 HD
ATOM     16  H   UNL     1       4.700   1.759  20.801  0.00  0.00    +0.000 HD
ATOM     17  H   UNL     1       1.943   5.425  21.344  0.00  0.00    +0.000 HD
ENDROOT
BRANCH   1  19
ATOM     18  C   UNL     1       5.801   6.886  17.084  0.00  0.00    +0.000 C 
ATOM     19  N   UNL     1       5.448   5.477  16.851  0.00  0.00    +0.000 N 
BRANCH  19  20
ATOM     20  C   UNL     1       6.579   4.665  16.398  0.00  0.00    +0.000 C 
BRANCH  20  21
ATOM     21  C   UNL     1       6.637   4.545  14.881  0.00  0.00    +0.000 A 
ATOM     22  C   UNL     1       7.605   5.262  14.170  0.00  0.00    +0.000 A 
ATOM     23  C   UNL     1       7.737   5.115  12.788  0.00  0.00    +0.000 A 
ATOM     24  C   UNL     1       6.899   4.250  12.091  0.00  0.00    +0.000 A 
ATOM     25  C   UNL     1       5.925   3.528  12.777  0.00  0.00    +0.000 A 
ATOM     26  C   UNL     1       5.793   3.671  14.166  0.00  0.00    +0.000 A 
ENDBRANCH  20  21
ENDBRANCH  19  20
ENDBRANCH   1  19
BRANCH  11  27
ATOM     27  O   UNL     1       1.837  10.086  17.299  0.00  0.00    +0.000 OA
ATOM     28  H   UNL     1       2.257  10.885  17.657  0.00  0.00    +0.000 HD
ENDBRANCH  11  27
TORSDOF 4
ENDMDL
MODEL 2
REMARK VINA RESULT:      -8.9      2.685      6.879
REMARK  Name = 
REMARK  5 active torsions:
REMARK  status: ('A' for Active; 'I' for Inactive)
REMARK    1  A    between atoms: C_1  and  N_2
REMARK    2  A    between atoms: N_2  and  C_3
REMARK    3  A    between atoms: N_2  and  C_10
REMARK    4  A    between atoms: C_3  and  C_4
REMARK    5  A    between atoms: C_20  and  O_21
REMARK                            x       y       z     vdW  Elec       q    Type
REMARK                         _______ _______ _______ _____ _____    ______ ____
ROOT
ATOM      1  C   UNL     1       5.150   3.966  17.184  0.00  0.00    +0.000 A 
ATOM      2  N   UNL     1       5.695   4.412  18.365  0.00  0.00    +0.000 NA
ATOM      3  C   UNL     1       6.809   5.150  18.394  0.00  0.00    +0.000 A 
ATOM      4  N   UNL     1       7.299   5.529  19.630  0.00  0.00    +0.000 N 
ATOM      5  N   UNL     1       7.545   5.480  17.344  0.00  0.00    +0.000 NA
ATOM      6  C   UNL     1       7.032   5.025  16.198  0.00  0.00    +0.000 A 
ATOM      7  N   UNL     1       7.689   5.170  15.018  0.00  0.00    +0.000 N 
ATOM      8  C   UNL     1       6.987   4.574  14.008  0.00  0.00    +0.000 A 
ATOM      9  C   UNL     1       7.356   4.411  12.667  0.00  0.00    +0.000 A 
ATOM     10  C   UNL     1       6.416   3.871  11.796  0.00  0.00    +0.000 A 
ATOM     11  C   UNL     1       5.157   3.533  12.266  0.00  0.00    +0.000 A 
ATOM     12  C   UNL     1       4.827   3.627  13.625  0.00  0.00    +0.000 A 
ATOM     13  C   UNL     1       5.771   4.134  14.551  0.00  0.00    +0.000 A 
ATOM     14  C   UNL     1       5.853   4.317  15.994  0.00  0.00    +0.000 A 
ATOM     15  H   UNL     1       7.032   4.833  20.313  0.00  0.00    +0.000 HD
ATOM     16  H   UNL     1       8.286   5.719  19.539  0.00  0.00    +0.000 HD
ATOM     17  H   UNL     1       8.579   5.630  14.930  0.00  0.00    +0.000 HD
ENDROOT
BRANCH   1  19
ATOM     18  C   UNL     1       4.135   2.195  18.449  0.00  0.00    +0.000 C 
ATOM     19  N   UNL     1       4.055   3.080  17.277  0.00  0.00    +0.000 N 
BRANCH  19  20
ATOM     20  C   UNL     1       2.732   3.682  17.097  0.00  0.00    +0.000 C 
BRANCH  20  21
ATOM     21  C   UNL     1       2.269   4.446  18.330  0.00  0.00    +0.000 A 
ATOM     22  C   UNL     1       1.519   3.783  19.308  0.00  0.00    +0.000 A 
ATOM     23  C   UNL     1       1.144   4.430  20.487  0.00  0.00    +0.000 A 
ATOM     24  C   UNL     1       1.512   5.755  20.708  0.00  0.00    +0.000 A 
ATOM     25  C   UNL     1       2.256   6.435  19.747  0.00  0.00    +0.000 A 
ATOM     26  C   UNL     1       2.636   5.786  18.563  0.00  0.00    +0.000 A 
ENDBRANCH  20  21
ENDBRANCH  19  20
ENDBRANCH   1  19
BRANCH  11  27
ATOM     27  O   UNL     1       4.190   3.096  11.406  0.00  0.00    +0.000 OA
ATOM     28  H   UNL     1       3.946   3.829  10.817  0.00  0.00    +0.000 HD
ENDBRANCH  11  27
TORSDOF 4
ENDMDL
MODEL 3
REMARK VINA RESULT:      -8.7      2.604      6.772
REMARK  Name = 
REMARK  5 active torsions:
REMARK  status: ('A' for Active; 'I' for Inactive)
REMARK    1  A    between atoms: C_1  and  N_2
REMARK    2  A    between atoms: N_2  and  C_3
REMARK    3  A    between atoms: N_2  and  C_10
REMARK    4  A    between atoms: C_3  and  C_4
REMARK    5  A    between atoms: C_20  and  O_21
REMARK                            x       y       z     vdW  Elec       q    Type
REMARK                         _______ _______ _______ _____ _____    ______ ____
ROOT
ATOM      1  C   UNL     1       5.104   4.010  17.206  0.00  0.00    +0.000 A 
ATOM      2  N   UNL     1       5.655   4.447  18.387  0.00  0.00    +0.000 NA
ATOM      3  C   UNL     1       6.788   5.155  18.419  0.00  0.00    +0.000 A 
ATOM      4  N   UNL     1       7.282   5.527  19.655  0.00  0.00    +0.000 N 
ATOM      5  N   UNL     1       7.539   5.461  17.372  0.00  0.00    +0.000 NA
ATOM      6  C   UNL     1       7.019   5.014  16.224  0.00  0.00    +0.000 A 
ATOM      7  N   UNL     1       7.686   5.135  15.048  0.00  0.00    +0.000 N 
ATOM      8  C   UNL     1       6.974   4.553  14.036  0.00  0.00    +0.000 A 
ATOM      9  C   UNL     1       7.345   4.373  12.699  0.00  0.00    +0.000 A 
ATOM     10  C   UNL     1       6.396   3.855  11.825  0.00  0.00    +0.000 A 
ATOM     11  C   UNL     1       5.126   3.553  12.290  0.00  0.00    +0.000 A 
ATOM     12  C   UNL     1       4.791   3.663  13.647  0.00  0.00    +0.000 A 
ATOM     13  C   UNL     1       5.743   4.149  14.575  0.00  0.00    +0.000 A 
ATOM     14  C   UNL     1       5.823   4.336  16.017  0.00  0.00    +0.000 A 
ATOM     15  H   UNL     1       6.992   4.841  20.341  0.00  0.00    +0.000 HD
ATOM     16  H   UNL     1       8.274   5.690  19.569  0.00  0.00    +0.000 HD
ATOM     17  H   UNL     1       8.589   5.570  14.962  0.00  0.00    +0.000 HD
ENDROOT
BRANCH   1  19
ATOM     18  C   UNL     1       4.082   2.207  18.418  0.00  0.00    +0.000 C 
ATOM     19  N   UNL     1       3.985   3.154  17.297  0.00  0.00    +0.000 N 
BRANCH  19  20
ATOM     20  C   UNL     1       2.677   3.805  17.201  0.00  0.00    +0.000 C 
BRANCH  20  21
ATOM     21  C   UNL     1       2.389   4.709  18.391  0.00  0.00    +0.000 A 
ATOM     22  C   UNL     1       2.622   6.084  18.283  0.00  0.00    +0.000 A 
ATOM     23  C   UNL     1       2.296   6.953  19.326  0.00  0.00    +0.000 A 
ATOM     24  C   UNL     1       1.733   6.460  20.500  0.00  0.00    +0.000 A 
ATOM     25  C   UNL     1       1.495   5.094  20.631  0.00  0.00    +0.000 A 
ATOM     26  C   UNL     1       1.819   4.220  19.583  0.00  0.00    +0.000 A 
ENDBRANCH  20  21
ENDBRANCH  19  20
ENDBRANCH   1  19
BRANCH  11  27
ATOM     27  O   UNL     1       4.152   3.139  11.426  0.00  0.00    +0.000 OA
ATOM     28  H   UNL     1       4.512   2.425  10.875  0.00  0.00    +0.000 HD
ENDBRANCH  11  27
TORSDOF 4
ENDMDL
MODEL 4
REMARK VINA RESULT:      -8.4      0.550      1.233
REMARK  Name = 
REMARK  5 active torsions:
REMARK  status: ('A' for Active; 'I' for Inactive)
REMARK    1  A    between atoms: C_1  and  N_2
REMARK    2  A    between atoms: N_2  and  C_3
REMARK    3  A    between atoms: N_2  and  C_10
REMARK    4  A    between atoms: C_3  and  C_4
REMARK    5  A    between atoms: C_20  and  O_21
REMARK                            x       y       z     vdW  Elec       q    Type
REMARK                         _______ _______ _______ _____ _____    ______ ____
ROOT
ATOM      1  C   UNL     1       4.911   4.779  18.163  0.00  0.00    +0.000 A 
ATOM      2  N   UNL     1       5.249   3.540  18.652  0.00  0.00    +0.000 NA
ATOM      3  C   UNL     1       4.583   2.974  19.663  0.00  0.00    +0.000 A 
ATOM      4  N   UNL     1       5.012   1.737  20.107  0.00  0.00    +0.000 N 
ATOM      5  N   UNL     1       3.595   3.532  20.347  0.00  0.00    +0.000 NA
ATOM      6  C   UNL     1       3.282   4.748  19.891  0.00  0.00    +0.000 A 
ATOM      7  N   UNL     1       2.365   5.528  20.519  0.00  0.00    +0.000 N 
ATOM      8  C   UNL     1       2.266   6.740  19.895  0.00  0.00    +0.000 A 
ATOM      9  C   UNL     1       1.516   7.859  20.275  0.00  0.00    +0.000 A 
ATOM     10  C   UNL     1       1.484   8.946  19.407  0.00  0.00    +0.000 A 
ATOM     11  C   UNL     1       2.168   8.884  18.204  0.00  0.00    +0.000 A 
ATOM     12  C   UNL     1       2.979   7.791  17.871  0.00  0.00    +0.000 A 
ATOM     13  C   UNL     1       3.070   6.682  18.746  0.00  0.00    +0.000 A 
ATOM     14  C   UNL     1       3.823   5.437  18.811  0.00  0.00    +0.000 A 
ATOM     15  H   UNL     1       6.005   1.656  19.934  0.00  0.00    +0.000 HD
ATOM     16  H   UNL     1       4.708   1.615  21.061  0.00  0.00    +0.000 HD
ATOM     17  H   UNL     1       1.864   5.244  21.343  0.00  0.00    +0.000 HD
ENDROOT
BRANCH   1  19
ATOM     18  C   UNL     1       7.027   4.599  17.044  0.00  0.00    +0.000 C 
ATOM     19  N   UNL     1       5.765   5.340  17.190  0.00  0.00    +0.000 N 
BRANCH  19  20
ATOM     20  C   UNL     1       5.139   5.674  15.909  0.00  0.00    +0.000 C 
BRANCH  20  21
ATOM     21  C   UNL     1       5.874   5.060  14.726  0.00  0.00    +0.000 A 
ATOM     22  C   UNL     1       5.266   4.033  13.997  0.00  0.00    +0.000 A 
ATOM     23  C   UNL     1       5.877   3.500  12.859  0.00  0.00    +0.000 A 
ATOM     24  C   UNL     1       7.110   3.985  12.433  0.00  0.00    +0.000 A 
ATOM     25  C   UNL     1       7.735   5.006  13.144  0.00  0.00    +0.000 A 
ATOM     26  C   UNL     1       7.122   5.544  14.285  0.00  0.00    +0.000 A 
ENDBRANCH  20  21
ENDBRANCH  19  20
ENDBRANCH   1  19
BRANCH  11  27
ATOM     27  O   UNL     1       2.066   9.900  17.296  0.00  0.00    +0.000 OA
ATOM     28  H   UNL     1       2.961  10.180  17.043  0.00  0.00    +0.000 HD
ENDBRANCH  11  27
TORSDOF 4
ENDMDL
MODEL 5
REMARK VINA RESULT:      -8.4      3.117      7.140
REMARK  Name = 
REMARK  5 active torsions:
REMARK  status: ('A' for Active; 'I' for Inactive)
REMARK    1  A    between atoms: C_1  and  N_2
REMARK    2  A    between atoms: N_2  and  C_3
REMARK    3  A    between atoms: N_2  and  C_10
REMARK    4  A    between atoms: C_3  and  C_4
REMARK    5  A    between atoms: C_20  and  O_21
REMARK                            x       y       z     vdW  Elec       q    Type
REMARK                         _______ _______ _______ _____ _____    ______ ____
ROOT
ATOM      1  C   UNL     1       5.002   4.485  16.926  0.00  0.00    +0.000 A 
ATOM      2  N   UNL     1       5.573   4.990  18.070  0.00  0.00    +0.000 NA
ATOM      3  C   UNL     1       6.774   5.576  18.062  0.00  0.00    +0.000 A 
ATOM      4  N   UNL     1       7.280   6.029  19.266  0.00  0.00    +0.000 N 
ATOM      5  N   UNL     1       7.574   5.684  17.012  0.00  0.00    +0.000 NA
ATOM      6  C   UNL     1       7.033   5.170  15.903  0.00  0.00    +0.000 A 
ATOM      7  N   UNL     1       7.733   5.090  14.743  0.00  0.00    +0.000 N 
ATOM      8  C   UNL     1       6.983   4.477  13.777  0.00  0.00    +0.000 A 
ATOM      9  C   UNL     1       7.360   4.113  12.479  0.00  0.00    +0.000 A 
ATOM     10  C   UNL     1       6.378   3.603  11.637  0.00  0.00    +0.000 A 
ATOM     11  C   UNL     1       5.074   3.488  12.091  0.00  0.00    +0.000 A 
ATOM     12  C   UNL     1       4.726   3.781  13.417  0.00  0.00    +0.000 A 
ATOM     13  C   UNL     1       5.705   4.265  14.318  0.00  0.00    +0.000 A 
ATOM     14  C   UNL     1       5.776   4.602  15.733  0.00  0.00    +0.000 A 
ATOM     15  H   UNL     1       6.905   5.457  20.011  0.00  0.00    +0.000 HD
ATOM     16  H   UNL     1       8.285   6.077  19.194  0.00  0.00    +0.000 HD
ATOM     17  H   UNL     1       8.678   5.417  14.639  0.00  0.00    +0.000 HD
ENDROOT
BRANCH   1  19
ATOM     18  C   UNL     1       3.975   2.495  17.791  0.00  0.00    +0.000 C 
ATOM     19  N   UNL     1       3.797   3.766  17.073  0.00  0.00    +0.000 N 
BRANCH  19  20
ATOM     20  C   UNL     1       2.647   4.541  17.545  0.00  0.00    +0.000 C 
BRANCH  20  21
ATOM     21  C   UNL     1       2.159   4.081  18.912  0.00  0.00    +0.000 A 
ATOM     22  C   UNL     1       1.197   3.069  18.994  0.00  0.00    +0.000 A 
ATOM     23  C   UNL     1       0.783   2.568  20.231  0.00  0.00    +0.000 A 
ATOM     24  C   UNL     1       1.326   3.074  21.409  0.00  0.00    +0.000 A 
ATOM     25  C   UNL     1       2.283   4.083  21.352  0.00  0.00    +0.000 A 
ATOM     26  C   UNL     1       2.702   4.586  20.111  0.00  0.00    +0.000 A 
ENDBRANCH  20  21
ENDBRANCH  19  20
ENDBRANCH   1  19
BRANCH  11  27
ATOM     27  O   UNL     1       4.079   3.084  11.247  0.00  0.00    +0.000 OA
ATOM     28  H   UNL     1       3.713   3.867  10.803  0.00  0.00    +0.000 HD
ENDBRANCH  11  27
TORSDOF 4
ENDMDL
MODEL 6
REMARK VINA RESULT:      -8.1      3.094      6.833
REMARK  Name = 
REMARK  5 active torsions:
REMARK  status: ('A' for Active; 'I' for Inactive)
REMARK    1  A    between atoms: C_1  and  N_2
REMARK    2  A    between atoms: N_2  and  C_3
REMARK    3  A    between atoms: N_2  and  C_10
REMARK    4  A    between atoms: C_3  and  C_4
REMARK    5  A    between atoms: C_20  and  O_21
REMARK                            x       y       z     vdW  Elec       q    Type
REMARK                         _______ _______ _______ _____ _____    ______ ____
ROOT
ATOM      1  C   UNL     1       3.714   6.793  17.763  0.00  0.00    +0.000 A 
ATOM      2  N   UNL     1       4.849   7.512  17.469  0.00  0.00    +0.000 NA
ATOM      3  C   UNL     1       6.009   6.914  17.180  0.00  0.00    +0.000 A 
ATOM      4  N   UNL     1       7.103   7.719  16.924  0.00  0.00    +0.000 N 
ATOM      5  N   UNL     1       6.234   5.609  17.205  0.00  0.00    +0.000 NA
ATOM      6  C   UNL     1       5.139   4.909  17.517  0.00  0.00    +0.000 A 
ATOM      7  N   UNL     1       5.183   3.564  17.694  0.00  0.00    +0.000 N 
ATOM      8  C   UNL     1       3.954   3.092  18.062  0.00  0.00    +0.000 A 
ATOM      9  C   UNL     1       3.592   1.792  18.432  0.00  0.00    +0.000 A 
ATOM     10  C   UNL     1       2.244   1.530  18.653  0.00  0.00    +0.000 A 
ATOM     11  C   UNL     1       1.311   2.541  18.484  0.00  0.00    +0.000 A 
ATOM     12  C   UNL     1       1.694   3.857  18.191  0.00  0.00    +0.000 A 
ATOM     13  C   UNL     1       3.060   4.173  17.999  0.00  0.00    +0.000 A 
ATOM     14  C   UNL     1       3.852   5.372  17.766  0.00  0.00    +0.000 A 
ATOM     15  H   UNL     1       6.994   8.587  17.433  0.00  0.00    +0.000 HD
ATOM     16  H   UNL     1       7.941   7.189  17.108  0.00  0.00    +0.000 HD
ATOM     17  H   UNL     1       6.021   3.016  17.592  0.00  0.00    +0.000 HD
ENDROOT
BRANCH   1  19
ATOM     18  C   UNL     1       2.279   7.324  19.613  0.00  0.00    +0.000 C 
ATOM     19  N   UNL     1       2.584   7.523  18.188  0.00  0.00    +0.000 N 
BRANCH  19  20
ATOM     20  C   UNL     1       2.544   8.928  17.779  0.00  0.00    +0.000 C 
BRANCH  20  21
ATOM     21  C   UNL     1       1.239   9.609  18.168  0.00  0.00    +0.000 A 
ATOM     22  C   UNL     1       1.255  10.632  19.122  0.00  0.00    +0.000 A 
ATOM     23  C   UNL     1       0.090  11.332  19.446  0.00  0.00    +0.000 A 
ATOM     24  C   UNL     1      -1.113  11.016  18.821  0.00  0.00    +0.000 A 
ATOM     25  C   UNL     1      -1.154   9.999  17.871  0.00  0.00    +0.000 A 
ATOM     26  C   UNL     1       0.015   9.298  17.542  0.00  0.00    +0.000 A 
ENDBRANCH  20  21
ENDBRANCH  19  20
ENDBRANCH   1  19
BRANCH  11  27
ATOM     27  O   UNL     1      -0.024   2.277  18.598  0.00  0.00    +0.000 OA
ATOM     28  H   UNL     1      -0.411   2.906  19.228  0.00  0.00    +0.000 HD
ENDBRANCH  11  27
TORSDOF 4
ENDMDL
MODEL 7
REMARK VINA RESULT:      -8.0      2.478      6.255
REMARK  Name = 
REMARK  5 active torsions:
REMARK  status: ('A' for Active; 'I' for Inactive)
REMARK    1  A    between atoms: C_1  and  N_2
REMARK    2  A    between atoms: N_2  and  C_3
REMARK    3  A    between atoms: N_2  and  C_10
REMARK    4  A    between atoms: C_3  and  C_4
REMARK    5  A    between atoms: C_20  and  O_21
REMARK                            x       y       z     vdW  Elec       q    Type
REMARK                         _______ _______ _______ _____ _____    ______ ____
ROOT
ATOM      1  C   UNL     1       4.759   5.982  16.872  0.00  0.00    +0.000 A 
ATOM      2  N   UNL     1       5.810   6.092  15.992  0.00  0.00    +0.000 NA
ATOM      3  C   UNL     1       6.352   5.022  15.403  0.00  0.00    +0.000 A 
ATOM      4  N   UNL     1       7.424   5.226  14.554  0.00  0.00    +0.000 N 
ATOM      5  N   UNL     1       6.015   3.761  15.628  0.00  0.00    +0.000 NA
ATOM      6  C   UNL     1       5.012   3.650  16.504  0.00  0.00    +0.000 A 
ATOM      7  N   UNL     1       4.585   2.439  16.946  0.00  0.00    +0.000 N 
ATOM      8  C   UNL     1       3.593   2.594  17.873  0.00  0.00    +0.000 A 
ATOM      9  C   UNL     1       2.953   1.614  18.640  0.00  0.00    +0.000 A 
ATOM     10  C   UNL     1       1.884   2.007  19.438  0.00  0.00    +0.000 A 
ATOM     11  C   UNL     1       1.477   3.332  19.436  0.00  0.00    +0.000 A 
ATOM     12  C   UNL     1       2.175   4.318  18.726  0.00  0.00    +0.000 A 
ATOM     13  C   UNL     1       3.294   3.964  17.934  0.00  0.00    +0.000 A 
ATOM     14  C   UNL     1       4.296   4.659  17.138  0.00  0.00    +0.000 A 
ATOM     15  H   UNL     1       7.922   6.054  14.853  0.00  0.00    +0.000 HD
ATOM     16  H   UNL     1       7.957   4.372  14.499  0.00  0.00    +0.000 HD
ATOM     17  H   UNL     1       4.979   1.565  16.641  0.00  0.00    +0.000 HD
ENDROOT
BRANCH   1  19
ATOM     18  C   UNL     1       5.405   8.189  17.564  0.00  0.00    +0.000 C 
ATOM     19  N   UNL     1       4.356   7.158  17.540  0.00  0.00    +0.000 N 
BRANCH  19  20
ATOM     20  C   UNL     1       3.040   7.681  17.169  0.00  0.00    +0.000 C 
BRANCH  20  21
ATOM     21  C   UNL     1       2.280   8.243  18.364  0.00  0.00    +0.000 A 
ATOM     22  C   UNL     1       1.526   9.411  18.212  0.00  0.00    +0.000 A 
ATOM     23  C   UNL     1       0.755   9.911  19.263  0.00  0.00    +0.000 A 
ATOM     24  C   UNL     1       0.727   9.250  20.488  0.00  0.00    +0.000 A 
ATOM     25  C   UNL     1       1.472   8.087  20.663  0.00  0.00    +0.000 A 
ATOM     26  C   UNL     1       2.245   7.581  19.607  0.00  0.00    +0.000 A 
ENDBRANCH  20  21
ENDBRANCH  19  20
ENDBRANCH   1  19
BRANCH  11  27
ATOM     27  O   UNL     1       0.368   3.716  20.135  0.00  0.00    +0.000 OA
ATOM     28  H   UNL     1       0.213   3.074  20.847  0.00  0.00    +0.000 HD
ENDBRANCH  11  27
TORSDOF 4
ENDMDL
MODEL 8
REMARK VINA RESULT:      -8.0      2.562      4.296
REMARK  Name = 
REMARK  5 active torsions:
REMARK  status: ('A' for Active; 'I' for Inactive)
REMARK    1  A    between atoms: C_1  and  N_2
REMARK    2  A    between atoms: N_2  and  C_3
REMARK    3  A    between atoms: N_2  and  C_10
REMARK    4  A    between atoms: C_3  and  C_4
REMARK    5  A    between atoms: C_20  and  O_21
REMARK                            x       y       z     vdW  Elec       q    Type
REMARK                         _______ _______ _______ _____ _____    ______ ____
ROOT
ATOM      1  C   UNL     1       4.260   6.528  17.574  0.00  0.00    +0.000 A 
ATOM      2  N   UNL     1       3.727   7.753  17.252  0.00  0.00    +0.000 NA
ATOM      3  C   UNL     1       2.705   8.280  17.933  0.00  0.00    +0.000 A 
ATOM      4  N   UNL     1       2.217   9.506  17.520  0.00  0.00    +0.000 N 
ATOM      5  N   UNL     1       2.051   7.692  18.923  0.00  0.00    +0.000 NA
ATOM      6  C   UNL     1       2.550   6.489  19.220  0.00  0.00    +0.000 A 
ATOM      7  N   UNL     1       1.958   5.681  20.137  0.00  0.00    +0.000 N 
ATOM      8  C   UNL     1       2.622   4.489  20.219  0.00  0.00    +0.000 A 
ATOM      9  C   UNL     1       2.287   3.351  20.963  0.00  0.00    +0.000 A 
ATOM     10  C   UNL     1       3.189   2.294  20.976  0.00  0.00    +0.000 A 
ATOM     11  C   UNL     1       4.383   2.400  20.280  0.00  0.00    +0.000 A 
ATOM     12  C   UNL     1       4.671   3.511  19.475  0.00  0.00    +0.000 A 
ATOM     13  C   UNL     1       3.759   4.592  19.403  0.00  0.00    +0.000 A 
ATOM     14  C   UNL     1       3.646   5.840  18.663  0.00  0.00    +0.000 A 
ATOM     15  H   UNL     1       2.377   9.600  16.525  0.00  0.00    +0.000 HD
ATOM     16  H   UNL     1       1.263   9.594  17.835  0.00  0.00    +0.000 HD
ATOM     17  H   UNL     1       1.130   5.934  20.649  0.00  0.00    +0.000 HD
ENDROOT
BRANCH   1  19
ATOM     18  C   UNL     1       6.589   6.013  17.294  0.00  0.00    +0.000 C 
ATOM     19  N   UNL     1       5.241   6.006  16.704  0.00  0.00    +0.000 N 
BRANCH  19  20
ATOM     20  C   UNL     1       4.904   4.740  16.050  0.00  0.00    +0.000 C 
BRANCH  20  21
ATOM     21  C   UNL     1       5.698   4.518  14.770  0.00  0.00    +0.000 A 
ATOM     22  C   UNL     1       5.162   3.713  13.759  0.00  0.00    +0.000 A 
ATOM     23  C   UNL     1       5.826   3.549  12.542  0.00  0.00    +0.000 A 
ATOM     24  C   UNL     1       7.041   4.189  12.315  0.00  0.00    +0.000 A 
ATOM     25  C   UNL     1       7.595   4.993  13.307  0.00  0.00    +0.000 A 
ATOM     26  C   UNL     1       6.929   5.160  14.530  0.00  0.00    +0.000 A 
ENDBRANCH  20  21
ENDBRANCH  19  20
ENDBRANCH   1  19
BRANCH  11  27
ATOM     27  O   UNL     1       5.324   1.414  20.363  0.00  0.00    +0.000 OA
ATOM     28  H   UNL     1       4.913   0.627  20.758  0.00  0.00    +0.000 HD
ENDBRANCH  11  27
TORSDOF 4
ENDMDL
MODEL 9
REMARK VINA RESULT:      -8.0      2.582      4.215
REMARK  Name = 
REMARK  5 active torsions:
REMARK  status: ('A' for Active; 'I' for Inactive)
REMARK    1  A    between atoms: C_1  and  N_2
REMARK    2  A    between atoms: N_2  and  C_3
REMARK    3  A    between atoms: N_2  and  C_10
REMARK    4  A    between atoms: C_3  and  C_4
REMARK    5  A    between atoms: C_20  and  O_21
REMARK                            x       y       z     vdW  Elec       q    Type
REMARK                         _______ _______ _______ _____ _____    ______ ____
ROOT
ATOM      1  C   UNL     1       4.346   6.337  17.615  0.00  0.00    +0.000 A 
ATOM      2  N   UNL     1       3.823   7.564  17.282  0.00  0.00    +0.000 NA
ATOM      3  C   UNL     1       2.806   8.106  17.960  0.00  0.00    +0.000 A 
ATOM      4  N   UNL     1       2.328   9.332  17.535  0.00  0.00    +0.000 N 
ATOM      5  N   UNL     1       2.147   7.532  18.955  0.00  0.00    +0.000 NA
ATOM      6  C   UNL     1       2.637   6.327  19.263  0.00  0.00    +0.000 A 
ATOM      7  N   UNL     1       2.038   5.532  20.186  0.00  0.00    +0.000 N 
ATOM      8  C   UNL     1       2.693   4.336  20.279  0.00  0.00    +0.000 A 
ATOM      9  C   UNL     1       2.348   3.208  21.033  0.00  0.00    +0.000 A 
ATOM     10  C   UNL     1       3.242   2.143  21.055  0.00  0.00    +0.000 A 
ATOM     11  C   UNL     1       4.436   2.234  20.358  0.00  0.00    +0.000 A 
ATOM     12  C   UNL     1       4.733   3.334  19.543  0.00  0.00    +0.000 A 
ATOM     13  C   UNL     1       3.830   4.422  19.462  0.00  0.00    +0.000 A 
ATOM     14  C   UNL     1       3.727   5.665  18.710  0.00  0.00    +0.000 A 
ATOM     15  H   UNL     1       2.488   9.416  16.540  0.00  0.00    +0.000 HD
ATOM     16  H   UNL     1       1.374   9.430  17.850  0.00  0.00    +0.000 HD
ATOM     17  H   UNL     1       1.213   5.797  20.697  0.00  0.00    +0.000 HD
ENDROOT
BRANCH   1  19
ATOM     18  C   UNL     1       6.653   5.717  17.371  0.00  0.00    +0.000 C 
ATOM     19  N   UNL     1       5.322   5.800  16.749  0.00  0.00    +0.000 N 
BRANCH  19  20
ATOM     20  C   UNL     1       4.940   4.578  16.039  0.00  0.00    +0.000 C 
BRANCH  20  21
ATOM     21  C   UNL     1       5.622   4.455  14.684  0.00  0.00    +0.000 A 
ATOM     22  C   UNL     1       6.877   5.043  14.490  0.00  0.00    +0.000 A 
ATOM     23  C   UNL     1       7.566   4.886  13.286  0.00  0.00    +0.000 A 
ATOM     24  C   UNL     1       7.011   4.137  12.252  0.00  0.00    +0.000 A 
ATOM     25  C   UNL     1       5.762   3.545  12.421  0.00  0.00    +0.000 A 
ATOM     26  C   UNL     1       5.069   3.700  13.631  0.00  0.00    +0.000 A 
ENDBRANCH  20  21
ENDBRANCH  19  20
ENDBRANCH   1  19
BRANCH  11  27
ATOM     27  O   UNL     1       5.369   1.240  20.449  0.00  0.00    +0.000 OA
ATOM     28  H   UNL     1       6.251   1.635  20.360  0.00  0.00    +0.000 HD
ENDBRANCH  11  27
TORSDOF 4
ENDMDL
