MODEL 1
REMARK VINA RESULT:      -9.0      0.000      0.000
REMARK  Name = 
REMARK  7 active torsions:
REMARK  status: ('A' for Active; 'I' for Inactive)
REMARK    1  A    between atoms: C_1  and  C_2
REMARK    2  A    between atoms: C_3  and  O_4
REMARK    3  A    between atoms: O_4  and  C_5
REMARK    4  A    between atoms: C_5  and  C_6
REMARK    5  A    between atoms: N_8  and  C_9
REMARK    6  A    between atoms: N_12  and  C_13
REMARK    7  A    between atoms: C_13  and  C_14
REMARK                            x       y       z     vdW  Elec       q    Type
REMARK                         _______ _______ _______ _____ _____    ______ ____
ROOT
ATOM      1  C   UNL     1       7.137   8.542  17.556  0.00  0.00    +0.000 C 
ENDROOT
BRANCH   1   2
ATOM      2  C   UNL     1       8.250   8.063  18.493  0.00  0.00    +0.000 C 
ATOM      3  O   UNL     1       8.544   6.875  18.626  0.00  0.00    +0.000 OA
ATOM      4  N   UNL     1       8.958   9.012  19.207  0.00  0.00    +0.000 N 
ATOM      5  H   UNL     1       9.691   8.612  19.780  0.00  0.00    +0.000 HD
BRANCH   4   6
ATOM      6  C   UNL     1       8.921  10.460  18.988  0.00  0.00    +0.000 C 
ATOM      7  C   UNL     1       9.883  10.871  17.866  0.00  0.00    +0.000 C 
ATOM      8  C   UNL     1      11.182  11.497  18.348  0.00  0.00    +0.000 C 
ATOM      9  N   UNL     1      10.897  12.556  19.330  0.00  0.00    +0.000 NA
ATOM     10  C   UNL     1      10.385  11.926  20.552  0.00  0.00    +0.000 C 
ATOM     11  C   UNL     1       9.036  11.260  20.291  0.00  0.00    +0.000 C 
BRANCH   9  12
ATOM     12  C   UNL     1      12.129  13.326  19.582  0.00  0.00    +0.000 C 
BRANCH  12  13
ATOM     13  C   UNL     1      12.111  14.743  19.046  0.00  0.00    +0.000 A 
ATOM     14  C   UNL     1      12.011  15.827  19.931  0.00  0.00    +0.000 A 
ATOM     15  C   UNL     1      12.088  17.138  19.460  0.00  0.00    +0.000 A 
ATOM     16  C   UNL     1      12.260  17.380  18.099  0.00  0.00    +0.000 A 
ATOM     17  C   UNL     1      12.332  16.313  17.206  0.00  0.00    +0.000 A 
ATOM     18  C   UNL     1      12.254  14.999  17.675  0.00  0.00    +0.000 A 
ENDBRANCH  12  13
ENDBRANCH   9  12
ENDBRANCH   4   6
ENDBRANCH   1   2
BRANCH   1  19
ATOM     19  O   UNL     1       6.649   7.414  16.832  0.00  0.00    +0.000 OA
BRANCH  19  22
ATOM     20  C   UNL     1       6.845   4.635  17.159  0.00  0.00    +0.000 C 
ATOM     21  C   UNL     1       5.572   5.402  17.374  0.00  0.00    +0.000 A 
ATOM     22  C   UNL     1       5.495   6.796  17.232  0.00  0.00    +0.000 A 
ATOM     23  C   UNL     1       4.296   7.466  17.513  0.00  0.00    +0.000 A 
ATOM     24  C   UNL     1       3.194   6.765  18.021  0.00  0.00    +0.000 A 
ATOM     25  C   UNL     1       3.267   5.386  18.190  0.00  0.00    +0.000 A 
ATOM     26  C   UNL     1       2.209   4.583  18.757  0.00  0.00    +0.000 A 
ATOM     27  C   UNL     1       2.126   3.270  18.505  0.00  0.00    +0.000 A 
ATOM     28  C   UNL     1       3.301   2.529  18.026  0.00  0.00    +0.000 A 
ATOM     29  O   UNL     1       3.317   1.304  17.995  0.00  0.00    +0.000 OA
ATOM     30  O   UNL     1       4.443   3.296  17.791  0.00  0.00    +0.000 OA
ATOM     31  C   UNL     1       4.422   4.717  17.792  0.00  0.00    +0.000 A 
ATOM     32  C   UNL     1       1.002   2.651  19.261  0.00  0.00    +0.000 C 
ATOM     33  C   UNL     1       1.084   3.527  20.507  0.00  0.00    +0.000 C 
ATOM     34  C   UNL     1       1.373   4.935  19.943  0.00  0.00    +0.000 C 
ENDBRANCH  19  22
ENDBRANCH   1  19
TORSDOF 6
ENDMDL
MODEL 2
REMARK VINA RESULT:      -8.7      6.654     10.707
REMARK  Name = 
REMARK  7 active torsions:
REMARK  status: ('A' for Active; 'I' for Inactive)
REMARK    1  A    between atoms: C_1  and  C_2
REMARK    2  A    between atoms: C_3  and  O_4
REMARK    3  A    between atoms: O_4  and  C_5
REMARK    4  A    between atoms: C_5  and  C_6
REMARK    5  A    between atoms: N_8  and  C_9
REMARK    6  A    between atoms: N_12  and  C_13
REMARK    7  A    between atoms: C_13  and  C_14
REMARK                            x       y       z     vdW  Elec       q    Type
REMARK                         _______ _______ _______ _____ _____    ______ ____
ROOT
ATOM      1  C   UNL     1      -0.257   8.863  21.362  0.00  0.00    +0.000 C 
ENDROOT
BRANCH   1   2
ATOM      2  C   UNL     1       1.216   8.833  21.781  0.00  0.00    +0.000 C 
ATOM      3  O   UNL     1       1.653   9.488  22.727  0.00  0.00    +0.000 OA
ATOM      4  N   UNL     1       2.083   8.026  21.067  0.00  0.00    +0.000 N 
ATOM      5  H   UNL     1       3.029   8.045  21.427  0.00  0.00    +0.000 HD
BRANCH   4   6
ATOM      6  C   UNL     1       1.701   7.001  20.093  0.00  0.00    +0.000 C 
ATOM      7  C   UNL     1       1.699   5.606  20.732  0.00  0.00    +0.000 C 
ATOM      8  C   UNL     1       2.908   4.753  20.384  0.00  0.00    +0.000 C 
ATOM      9  N   UNL     1       3.127   4.760  18.928  0.00  0.00    +0.000 NA
ATOM     10  C   UNL     1       3.571   6.101  18.535  0.00  0.00    +0.000 C 
ATOM     11  C   UNL     1       2.465   7.127  18.770  0.00  0.00    +0.000 C 
BRANCH   9  12
ATOM     12  C   UNL     1       4.120   3.726  18.583  0.00  0.00    +0.000 C 
BRANCH  12  13
ATOM     13  C   UNL     1       5.116   4.134  17.517  0.00  0.00    +0.000 A 
ATOM     14  C   UNL     1       6.422   4.499  17.879  0.00  0.00    +0.000 A 
ATOM     15  C   UNL     1       7.375   4.786  16.902  0.00  0.00    +0.000 A 
ATOM     16  C   UNL     1       7.034   4.717  15.554  0.00  0.00    +0.000 A 
ATOM     17  C   UNL     1       5.733   4.383  15.181  0.00  0.00    +0.000 A 
ATOM     18  C   UNL     1       4.776   4.097  16.158  0.00  0.00    +0.000 A 
ENDBRANCH  12  13
ENDBRANCH   9  12
ENDBRANCH   4   6
ENDBRANCH   1   2
BRANCH   1  19
ATOM     19  O   UNL     1      -0.351   9.548  20.114  0.00  0.00    +0.000 OA
BRANCH  19  22
ATOM     20  C   UNL     1       1.586  10.445  18.293  0.00  0.00    +0.000 C 
ATOM     21  C   UNL     1       0.800  11.366  19.182  0.00  0.00    +0.000 A 
ATOM     22  C   UNL     1      -0.184  10.905  20.069  0.00  0.00    +0.000 A 
ATOM     23  C   UNL     1      -0.933  11.819  20.825  0.00  0.00    +0.000 A 
ATOM     24  C   UNL     1      -0.768  13.198  20.636  0.00  0.00    +0.000 A 
ATOM     25  C   UNL     1       0.186  13.667  19.739  0.00  0.00    +0.000 A 
ATOM     26  C   UNL     1       0.393  15.064  19.434  0.00  0.00    +0.000 A 
ATOM     27  C   UNL     1       1.559  15.497  18.939  0.00  0.00    +0.000 A 
ATOM     28  C   UNL     1       2.488  14.561  18.292  0.00  0.00    +0.000 A 
ATOM     29  O   UNL     1       3.450  14.956  17.644  0.00  0.00    +0.000 OA
ATOM     30  O   UNL     1       2.100  13.219  18.310  0.00  0.00    +0.000 OA
ATOM     31  C   UNL     1       1.007  12.750  19.087  0.00  0.00    +0.000 A 
ATOM     32  C   UNL     1       1.500  16.954  18.635  0.00  0.00    +0.000 C 
ATOM     33  C   UNL     1       0.037  17.020  18.214  0.00  0.00    +0.000 C 
ATOM     34  C   UNL     1      -0.673  16.087  19.220  0.00  0.00    +0.000 C 
ENDBRANCH  19  22
ENDBRANCH   1  19
TORSDOF 6
ENDMDL
MODEL 3
REMARK VINA RESULT:      -8.6      6.528     10.904
REMARK  Name = 
REMARK  7 active torsions:
REMARK  status: ('A' for Active; 'I' for Inactive)
REMARK    1  A    between atoms: C_1  and  C_2
REMARK    2  A    between atoms: C_3  and  O_4
REMARK    3  A    between atoms: O_4  and  C_5
REMARK    4  A    between atoms: C_5  and  C_6
REMARK    5  A    between atoms: N_8  and  C_9
REMARK    6  A    between atoms: N_12  and  C_13
REMARK    7  A    between atoms: C_13  and  C_14
REMARK                            x       y       z     vdW  Elec       q    Type
REMARK                         _______ _______ _______ _____ _____    ______ ____
ROOT
ATOM      1  C   UNL     1      -0.053   9.310  20.652  0.00  0.00    +0.000 C 
ENDROOT
BRANCH   1   2
ATOM      2  C   UNL     1       1.085   8.930  21.604  0.00  0.00    +0.000 C 
ATOM      3  O   UNL     1       1.291   9.520  22.665  0.00  0.00    +0.000 OA
ATOM      4  N   UNL     1       1.905   7.872  21.255  0.00  0.00    +0.000 N 
ATOM      5  H   UNL     1       2.612   7.672  21.953  0.00  0.00    +0.000 HD
BRANCH   4   6
ATOM      6  C   UNL     1       1.659   6.910  20.179  0.00  0.00    +0.000 C 
ATOM      7  C   UNL     1       1.601   5.477  20.724  0.00  0.00    +0.000 C 
ATOM      8  C   UNL     1       2.856   4.656  20.471  0.00  0.00    +0.000 C 
ATOM      9  N   UNL     1       3.249   4.759  19.056  0.00  0.00    +0.000 NA
ATOM     10  C   UNL     1       3.717   6.126  18.806  0.00  0.00    +0.000 C 
ATOM     11  C   UNL     1       2.576   7.126  18.969  0.00  0.00    +0.000 C 
BRANCH   9  12
ATOM     12  C   UNL     1       4.292   3.757  18.770  0.00  0.00    +0.000 C 
BRANCH  12  13
ATOM     13  C   UNL     1       5.198   4.100  17.606  0.00  0.00    +0.000 A 
ATOM     14  C   UNL     1       4.708   4.038  16.292  0.00  0.00    +0.000 A 
ATOM     15  C   UNL     1       5.502   4.441  15.218  0.00  0.00    +0.000 A 
ATOM     16  C   UNL     1       6.795   4.906  15.444  0.00  0.00    +0.000 A 
ATOM     17  C   UNL     1       7.304   4.947  16.740  0.00  0.00    +0.000 A 
ATOM     18  C   UNL     1       6.512   4.542  17.818  0.00  0.00    +0.000 A 
ENDBRANCH  12  13
ENDBRANCH   9  12
ENDBRANCH   4   6
ENDBRANCH   1   2
BRANCH   1  19
ATOM     19  O   UNL     1       0.509  10.023  19.551  0.00  0.00    +0.000 OA
BRANCH  19  22
ATOM     20  C   UNL     1       2.445  11.233  17.921  0.00  0.00    +0.000 C 
ATOM     21  C   UNL     1       1.467  12.010  18.755  0.00  0.00    +0.000 A 
ATOM     22  C   UNL     1       0.487  11.391  19.545  0.00  0.00    +0.000 A 
ATOM     23  C   UNL     1      -0.443  12.170  20.250  0.00  0.00    +0.000 A 
ATOM     24  C   UNL     1      -0.458  13.563  20.101  0.00  0.00    +0.000 A 
ATOM     25  C   UNL     1       0.493  14.186  19.299  0.00  0.00    +0.000 A 
ATOM     26  C   UNL     1       0.526  15.607  19.039  0.00  0.00    +0.000 A 
ATOM     27  C   UNL     1       1.658  16.211  18.654  0.00  0.00    +0.000 A 
ATOM     28  C   UNL     1       2.760  15.432  18.074  0.00  0.00    +0.000 A 
ATOM     29  O   UNL     1       3.708  15.975  17.519  0.00  0.00    +0.000 OA
ATOM     30  O   UNL     1       2.563  14.050  18.033  0.00  0.00    +0.000 OA
ATOM     31  C   UNL     1       1.485  13.412  18.704  0.00  0.00    +0.000 A 
ATOM     32  C   UNL     1       1.422  17.655  18.373  0.00  0.00    +0.000 C 
ATOM     33  C   UNL     1       0.003  17.531  17.829  0.00  0.00    +0.000 C 
ATOM     34  C   UNL     1      -0.650  16.479  18.752  0.00  0.00    +0.000 C 
ENDBRANCH  19  22
ENDBRANCH   1  19
TORSDOF 6
ENDMDL
MODEL 4
REMARK VINA RESULT:      -8.5      7.136     10.688
REMARK  Name = 
REMARK  7 active torsions:
REMARK  status: ('A' for Active; 'I' for Inactive)
REMARK    1  A    between atoms: C_1  and  C_2
REMARK    2  A    between atoms: C_3  and  O_4
REMARK    3  A    between atoms: O_4  and  C_5
REMARK    4  A    between atoms: C_5  and  C_6
REMARK    5  A    between atoms: N_8  and  C_9
REMARK    6  A    between atoms: N_12  and  C_13
REMARK    7  A    between atoms: C_13  and  C_14
REMARK                            x       y       z     vdW  Elec       q    Type
REMARK                         _______ _______ _______ _____ _____    ______ ____
ROOT
ATOM      1  C   UNL     1       1.541   9.362  18.751  0.00  0.00    +0.000 C 
ENDROOT
BRANCH   1   2
ATOM      2  C   UNL     1       1.774   8.262  19.791  0.00  0.00    +0.000 C 
ATOM      3  O   UNL     1       1.446   8.380  20.971  0.00  0.00    +0.000 OA
ATOM      4  N   UNL     1       2.370   7.085  19.375  0.00  0.00    +0.000 N 
ATOM      5  H   UNL     1       2.462   6.403  20.119  0.00  0.00    +0.000 HD
BRANCH   4   6
ATOM      6  C   UNL     1       2.590   6.674  17.987  0.00  0.00    +0.000 C 
ATOM      7  C   UNL     1       2.443   5.154  17.833  0.00  0.00    +0.000 C 
ATOM      8  C   UNL     1       3.761   4.403  17.722  0.00  0.00    +0.000 C 
ATOM      9  N   UNL     1       4.621   5.042  16.712  0.00  0.00    +0.000 NA
ATOM     10  C   UNL     1       5.051   6.345  17.231  0.00  0.00    +0.000 C 
ATOM     11  C   UNL     1       3.858   7.286  17.381  0.00  0.00    +0.000 C 
BRANCH   9  12
ATOM     12  C   UNL     1       5.766   4.158  16.424  0.00  0.00    +0.000 C 
BRANCH  12  13
ATOM     13  C   UNL     1       6.242   4.187  14.986  0.00  0.00    +0.000 A 
ATOM     14  C   UNL     1       5.537   3.483  13.998  0.00  0.00    +0.000 A 
ATOM     15  C   UNL     1       5.909   3.577  12.657  0.00  0.00    +0.000 A 
ATOM     16  C   UNL     1       6.993   4.370  12.288  0.00  0.00    +0.000 A 
ATOM     17  C   UNL     1       7.720   5.052  13.263  0.00  0.00    +0.000 A 
ATOM     18  C   UNL     1       7.350   4.958  14.607  0.00  0.00    +0.000 A 
ENDBRANCH  12  13
ENDBRANCH   9  12
ENDBRANCH   4   6
ENDBRANCH   1   2
BRANCH   1  19
ATOM     19  O   UNL     1       0.813  10.418  19.377  0.00  0.00    +0.000 OA
BRANCH  19  22
ATOM     20  C   UNL     1      -0.449  12.480  20.801  0.00  0.00    +0.000 C 
ATOM     21  C   UNL     1      -1.161  11.610  19.806  0.00  0.00    +0.000 A 
ATOM     22  C   UNL     1      -0.511  10.600  19.081  0.00  0.00    +0.000 A 
ATOM     23  C   UNL     1      -1.213   9.864  18.114  0.00  0.00    +0.000 A 
ATOM     24  C   UNL     1      -2.539  10.191  17.801  0.00  0.00    +0.000 A 
ATOM     25  C   UNL     1      -3.186  11.208  18.495  0.00  0.00    +0.000 A 
ATOM     26  C   UNL     1      -4.530  11.654  18.209  0.00  0.00    +0.000 A 
ATOM     27  C   UNL     1      -5.258  12.290  19.136  0.00  0.00    +0.000 A 
ATOM     28  C   UNL     1      -4.606  12.931  20.286  0.00  0.00    +0.000 A 
ATOM     29  O   UNL     1      -5.215  13.696  21.025  0.00  0.00    +0.000 OA
ATOM     30  O   UNL     1      -3.222  12.758  20.367  0.00  0.00    +0.000 OA
ATOM     31  C   UNL     1      -2.517  11.846  19.536  0.00  0.00    +0.000 A 
ATOM     32  C   UNL     1      -6.573  12.717  18.581  0.00  0.00    +0.000 C 
ATOM     33  C   UNL     1      -6.112  13.008  17.157  0.00  0.00    +0.000 C 
ATOM     34  C   UNL     1      -5.121  11.862  16.854  0.00  0.00    +0.000 C 
ENDBRANCH  19  22
ENDBRANCH   1  19
TORSDOF 6
ENDMDL
MODEL 5
REMARK VINA RESULT:      -8.5      7.782     11.524
REMARK  Name = 
REMARK  7 active torsions:
REMARK  status: ('A' for Active; 'I' for Inactive)
REMARK    1  A    between atoms: C_1  and  C_2
REMARK    2  A    between atoms: C_3  and  O_4
REMARK    3  A    between atoms: O_4  and  C_5
REMARK    4  A    between atoms: C_5  and  C_6
REMARK    5  A    between atoms: N_8  and  C_9
REMARK    6  A    between atoms: N_12  and  C_13
REMARK    7  A    between atoms: C_13  and  C_14
REMARK                            x       y       z     vdW  Elec       q    Type
REMARK                         _______ _______ _______ _____ _____    ______ ____
ROOT
ATOM      1  C   UNL     1      -0.003   9.387  20.813  0.00  0.00    +0.000 C 
ENDROOT
BRANCH   1   2
ATOM      2  C   UNL     1       1.187   8.964  21.679  0.00  0.00    +0.000 C 
ATOM      3  O   UNL     1       1.477   9.526  22.734  0.00  0.00    +0.000 OA
ATOM      4  N   UNL     1       1.958   7.897  21.254  0.00  0.00    +0.000 N 
ATOM      5  H   UNL     1       2.706   7.668  21.898  0.00  0.00    +0.000 HD
BRANCH   4   6
ATOM      6  C   UNL     1       1.620   6.963  20.178  0.00  0.00    +0.000 C 
ATOM      7  C   UNL     1       1.515   5.526  20.708  0.00  0.00    +0.000 C 
ATOM      8  C   UNL     1       2.717   4.650  20.392  0.00  0.00    +0.000 C 
ATOM      9  N   UNL     1       3.053   4.753  18.962  0.00  0.00    +0.000 NA
ATOM     10  C   UNL     1       3.577   6.099  18.708  0.00  0.00    +0.000 C 
ATOM     11  C   UNL     1       2.493   7.151  18.932  0.00  0.00    +0.000 C 
BRANCH   9  12
ATOM     12  C   UNL     1       4.033   3.706  18.619  0.00  0.00    +0.000 C 
BRANCH  12  13
ATOM     13  C   UNL     1       5.076   4.122  17.602  0.00  0.00    +0.000 A 
ATOM     14  C   UNL     1       4.752   4.156  16.238  0.00  0.00    +0.000 A 
ATOM     15  C   UNL     1       5.672   4.627  15.301  0.00  0.00    +0.000 A 
ATOM     16  C   UNL     1       6.927   5.064  15.716  0.00  0.00    +0.000 A 
ATOM     17  C   UNL     1       7.272   5.010  17.065  0.00  0.00    +0.000 A 
ATOM     18  C   UNL     1       6.353   4.537  18.006  0.00  0.00    +0.000 A 
ENDBRANCH  12  13
ENDBRANCH   9  12
ENDBRANCH   4   6
ENDBRANCH   1   2
BRANCH   1  19
ATOM     19  O   UNL     1      -0.072  10.812  20.816  0.00  0.00    +0.000 OA
BRANCH  19  22
ATOM     20  C   UNL     1      -1.863  12.244  19.200  0.00  0.00    +0.000 C 
ATOM     21  C   UNL     1      -1.970  12.184  20.697  0.00  0.00    +0.000 A 
ATOM     22  C   UNL     1      -1.083  11.441  21.491  0.00  0.00    +0.000 A 
ATOM     23  C   UNL     1      -1.274  11.367  22.878  0.00  0.00    +0.000 A 
ATOM     24  C   UNL     1      -2.399  11.957  23.471  0.00  0.00    +0.000 A 
ATOM     25  C   UNL     1      -3.300  12.673  22.690  0.00  0.00    +0.000 A 
ATOM     26  C   UNL     1      -4.515  13.268  23.197  0.00  0.00    +0.000 A 
ATOM     27  C   UNL     1      -5.105  14.285  22.556  0.00  0.00    +0.000 A 
ATOM     28  C   UNL     1      -4.813  14.544  21.140  0.00  0.00    +0.000 A 
ATOM     29  O   UNL     1      -5.490  15.320  20.476  0.00  0.00    +0.000 OA
ATOM     30  O   UNL     1      -3.845  13.718  20.564  0.00  0.00    +0.000 OA
ATOM     31  C   UNL     1      -3.032  12.842  21.335  0.00  0.00    +0.000 A 
ATOM     32  C   UNL     1      -6.378  14.672  23.227  0.00  0.00    +0.000 C 
ATOM     33  C   UNL     1      -6.792  13.283  23.700  0.00  0.00    +0.000 C 
ATOM     34  C   UNL     1      -5.465  12.646  24.166  0.00  0.00    +0.000 C 
ENDBRANCH  19  22
ENDBRANCH   1  19
TORSDOF 6
ENDMDL
MODEL 6
REMARK VINA RESULT:      -8.4      6.312      9.916
REMARK  Name = 
REMARK  7 active torsions:
REMARK  status: ('A' for Active; 'I' for Inactive)
REMARK    1  A    between atoms: C_1  and  C_2
REMARK    2  A    between atoms: C_3  and  O_4
REMARK    3  A    between atoms: O_4  and  C_5
REMARK    4  A    between atoms: C_5  and  C_6
REMARK    5  A    between atoms: N_8  and  C_9
REMARK    6  A    between atoms: N_12  and  C_13
REMARK    7  A    between atoms: C_13  and  C_14
REMARK                            x       y       z     vdW  Elec       q    Type
REMARK                         _______ _______ _______ _____ _____    ______ ____
ROOT
ATOM      1  C   UNL     1       1.287   6.044  20.223  0.00  0.00    +0.000 C 
ENDROOT
BRANCH   1   2
ATOM      2  C   UNL     1       2.279   4.952  20.637  0.00  0.00    +0.000 C 
ATOM      3  O   UNL     1       2.209   4.362  21.714  0.00  0.00    +0.000 OA
ATOM      4  N   UNL     1       3.287   4.615  19.752  0.00  0.00    +0.000 N 
ATOM      5  H   UNL     1       3.880   3.868  20.093  0.00  0.00    +0.000 HD
BRANCH   4   6
ATOM      6  C   UNL     1       3.373   5.022  18.348  0.00  0.00    +0.000 C 
ATOM      7  C   UNL     1       3.769   3.839  17.455  0.00  0.00    +0.000 C 
ATOM      8  C   UNL     1       5.223   3.844  17.009  0.00  0.00    +0.000 C 
ATOM      9  N   UNL     1       5.579   5.167  16.469  0.00  0.00    +0.000 NA
ATOM     10  C   UNL     1       5.590   6.129  17.575  0.00  0.00    +0.000 C 
ATOM     11  C   UNL     1       4.188   6.306  18.151  0.00  0.00    +0.000 C 
BRANCH   9  12
ATOM     12  C   UNL     1       6.890   5.079  15.800  0.00  0.00    +0.000 C 
BRANCH  12  13
ATOM     13  C   UNL     1       6.829   4.727  14.328  0.00  0.00    +0.000 A 
ATOM     14  C   UNL     1       7.720   5.327  13.425  0.00  0.00    +0.000 A 
ATOM     15  C   UNL     1       7.738   4.943  12.084  0.00  0.00    +0.000 A 
ATOM     16  C   UNL     1       6.861   3.961  11.629  0.00  0.00    +0.000 A 
ATOM     17  C   UNL     1       5.952   3.378  12.509  0.00  0.00    +0.000 A 
ATOM     18  C   UNL     1       5.931   3.761  13.852  0.00  0.00    +0.000 A 
ENDBRANCH  12  13
ENDBRANCH   9  12
ENDBRANCH   4   6
ENDBRANCH   1   2
BRANCH   1  19
ATOM     19  O   UNL     1       1.583   7.220  20.974  0.00  0.00    +0.000 OA
BRANCH  19  22
ATOM     20  C   UNL     1       0.973   9.278  22.782  0.00  0.00    +0.000 C 
ATOM     21  C   UNL     1       1.065   9.485  21.297  0.00  0.00    +0.000 A 
ATOM     22  C   UNL     1       1.397   8.452  20.407  0.00  0.00    +0.000 A 
ATOM     23  C   UNL     1       1.534   8.721  19.037  0.00  0.00    +0.000 A 
ATOM     24  C   UNL     1       1.430  10.035  18.559  0.00  0.00    +0.000 A 
ATOM     25  C   UNL     1       1.128  11.071  19.437  0.00  0.00    +0.000 A 
ATOM     26  C   UNL     1       1.054  12.461  19.051  0.00  0.00    +0.000 A 
ATOM     27  C   UNL     1       0.352  13.342  19.776  0.00  0.00    +0.000 A 
ATOM     28  C   UNL     1       0.006  13.050  21.173  0.00  0.00    +0.000 A 
ATOM     29  O   UNL     1      -0.440  13.915  21.919  0.00  0.00    +0.000 OA
ATOM     30  O   UNL     1       0.388  11.789  21.638  0.00  0.00    +0.000 OA
ATOM     31  C   UNL     1       0.872  10.771  20.772  0.00  0.00    +0.000 A 
ATOM     32  C   UNL     1       0.492  14.719  19.224  0.00  0.00    +0.000 C 
ATOM     33  C   UNL     1       1.931  14.599  18.733  0.00  0.00    +0.000 C 
ATOM     34  C   UNL     1       1.995  13.175  18.139  0.00  0.00    +0.000 C 
ENDBRANCH  19  22
ENDBRANCH   1  19
TORSDOF 6
ENDMDL
MODEL 7
REMARK VINA RESULT:      -8.4      6.806      9.723
REMARK  Name = 
REMARK  7 active torsions:
REMARK  status: ('A' for Active; 'I' for Inactive)
REMARK    1  A    between atoms: C_1  and  C_2
REMARK    2  A    between atoms: C_3  and  O_4
REMARK    3  A    between atoms: O_4  and  C_5
REMARK    4  A    between atoms: C_5  and  C_6
REMARK    5  A    between atoms: N_8  and  C_9
REMARK    6  A    between atoms: N_12  and  C_13
REMARK    7  A    between atoms: C_13  and  C_14
REMARK                            x       y       z     vdW  Elec       q    Type
REMARK                         _______ _______ _______ _____ _____    ______ ____
ROOT
ATOM      1  C   UNL     1       1.358   5.903  20.269  0.00  0.00    +0.000 C 
ENDROOT
BRANCH   1   2
ATOM      2  C   UNL     1       2.319   4.778  20.665  0.00  0.00    +0.000 C 
ATOM      3  O   UNL     1       2.201   4.138  21.710  0.00  0.00    +0.000 OA
ATOM      4  N   UNL     1       3.354   4.467  19.802  0.00  0.00    +0.000 N 
ATOM      5  H   UNL     1       3.923   3.695  20.128  0.00  0.00    +0.000 HD
BRANCH   4   6
ATOM      6  C   UNL     1       3.497   4.938  18.423  0.00  0.00    +0.000 C 
ATOM      7  C   UNL     1       3.740   3.766  17.463  0.00  0.00    +0.000 C 
ATOM      8  C   UNL     1       5.185   3.610  17.014  0.00  0.00    +0.000 C 
ATOM      9  N   UNL     1       5.710   4.904  16.548  0.00  0.00    +0.000 NA
ATOM     10  C   UNL     1       5.841   5.793  17.707  0.00  0.00    +0.000 C 
ATOM     11  C   UNL     1       4.470   6.116  18.297  0.00  0.00    +0.000 C 
BRANCH   9  12
ATOM     12  C   UNL     1       7.002   4.686  15.871  0.00  0.00    +0.000 C 
BRANCH  12  13
ATOM     13  C   UNL     1       6.914   4.558  14.364  0.00  0.00    +0.000 A 
ATOM     14  C   UNL     1       7.733   5.348  13.543  0.00  0.00    +0.000 A 
ATOM     15  C   UNL     1       7.731   5.174  12.159  0.00  0.00    +0.000 A 
ATOM     16  C   UNL     1       6.907   4.212  11.579  0.00  0.00    +0.000 A 
ATOM     17  C   UNL     1       6.068   3.440  12.381  0.00  0.00    +0.000 A 
ATOM     18  C   UNL     1       6.067   3.614  13.767  0.00  0.00    +0.000 A 
ENDBRANCH  12  13
ENDBRANCH   9  12
ENDBRANCH   4   6
ENDBRANCH   1   2
BRANCH   1  19
ATOM     19  O   UNL     1       2.094   7.125  20.238  0.00  0.00    +0.000 OA
BRANCH  19  22
ATOM     20  C   UNL     1       1.625   8.868  18.090  0.00  0.00    +0.000 C 
ATOM     21  C   UNL     1       1.258   9.192  19.510  0.00  0.00    +0.000 A 
ATOM     22  C   UNL     1       1.475   8.300  20.571  0.00  0.00    +0.000 A 
ATOM     23  C   UNL     1       1.050   8.630  21.866  0.00  0.00    +0.000 A 
ATOM     24  C   UNL     1       0.328   9.809  22.095  0.00  0.00    +0.000 A 
ATOM     25  C   UNL     1       0.084  10.689  21.046  0.00  0.00    +0.000 A 
ATOM     26  C   UNL     1      -0.696  11.899  21.170  0.00  0.00    +0.000 A 
ATOM     27  C   UNL     1      -0.544  12.910  20.303  0.00  0.00    +0.000 A 
ATOM     28  C   UNL     1       0.068  12.678  18.988  0.00  0.00    +0.000 A 
ATOM     29  O   UNL     1       0.022  13.524  18.102  0.00  0.00    +0.000 OA
ATOM     30  O   UNL     1       0.531  11.381  18.759  0.00  0.00    +0.000 OA
ATOM     31  C   UNL     1       0.618  10.408  19.792  0.00  0.00    +0.000 A 
ATOM     32  C   UNL     1      -1.509  14.007  20.591  0.00  0.00    +0.000 C 
ATOM     33  C   UNL     1      -2.667  13.143  21.079  0.00  0.00    +0.000 C 
ATOM     34  C   UNL     1      -1.975  12.051  21.924  0.00  0.00    +0.000 C 
ENDBRANCH  19  22
ENDBRANCH   1  19
TORSDOF 6
ENDMDL
MODEL 8
REMARK VINA RESULT:      -8.3      7.493     10.431
REMARK  Name = 
REMARK  7 active torsions:
REMARK  status: ('A' for Active; 'I' for Inactive)
REMARK    1  A    between atoms: C_1  and  C_2
REMARK    2  A    between atoms: C_3  and  O_4
REMARK    3  A    between atoms: O_4  and  C_5
REMARK    4  A    between atoms: C_5  and  C_6
REMARK    5  A    between atoms: N_8  and  C_9
REMARK    6  A    between atoms: N_12  and  C_13
REMARK    7  A    between atoms: C_13  and  C_14
REMARK                            x       y       z     vdW  Elec       q    Type
REMARK                         _______ _______ _______ _____ _____    ______ ____
ROOT
ATOM      1  C   UNL     1       1.113  10.520  18.316  0.00  0.00    +0.000 C 
ENDROOT
BRANCH   1   2
ATOM      2  C   UNL     1      -0.415  10.489  18.417  0.00  0.00    +0.000 C 
ATOM      3  O   UNL     1      -1.123   9.865  17.627  0.00  0.00    +0.000 OA
ATOM      4  N   UNL     1      -1.017  11.186  19.449  0.00  0.00    +0.000 N 
ATOM      5  H   UNL     1      -2.026  11.089  19.457  0.00  0.00    +0.000 HD
BRANCH   4   6
ATOM      6  C   UNL     1      -0.337  11.763  20.610  0.00  0.00    +0.000 C 
ATOM      7  C   UNL     1      -0.798  11.089  21.910  0.00  0.00    +0.000 C 
ATOM      8  C   UNL     1      -1.784  11.908  22.728  0.00  0.00    +0.000 C 
ATOM      9  N   UNL     1      -1.282  13.282  22.894  0.00  0.00    +0.000 NA
ATOM     10  C   UNL     1      -1.331  13.951  21.591  0.00  0.00    +0.000 C 
ATOM     11  C   UNL     1      -0.361  13.296  20.610  0.00  0.00    +0.000 C 
BRANCH   9  12
ATOM     12  C   UNL     1      -2.103  13.977  23.903  0.00  0.00    +0.000 C 
BRANCH  12  13
ATOM     13  C   UNL     1      -3.586  13.679  23.829  0.00  0.00    +0.000 A 
ATOM     14  C   UNL     1      -4.127  12.617  24.569  0.00  0.00    +0.000 A 
ATOM     15  C   UNL     1      -5.504  12.390  24.584  0.00  0.00    +0.000 A 
ATOM     16  C   UNL     1      -6.354  13.217  23.855  0.00  0.00    +0.000 A 
ATOM     17  C   UNL     1      -5.828  14.258  23.092  0.00  0.00    +0.000 A 
ATOM     18  C   UNL     1      -4.449  14.487  23.075  0.00  0.00    +0.000 A 
ENDBRANCH  12  13
ENDBRANCH   9  12
ENDBRANCH   4   6
ENDBRANCH   1   2
BRANCH   1  19
ATOM     19  O   UNL     1       1.644   9.734  19.381  0.00  0.00    +0.000 OA
BRANCH  19  22
ATOM     20  C   UNL     1       0.991   7.906  21.407  0.00  0.00    +0.000 C 
ATOM     21  C   UNL     1       1.738   7.524  20.162  0.00  0.00    +0.000 A 
ATOM     22  C   UNL     1       2.035   8.443  19.144  0.00  0.00    +0.000 A 
ATOM     23  C   UNL     1       2.675   8.014  17.972  0.00  0.00    +0.000 A 
ATOM     24  C   UNL     1       2.941   6.653  17.769  0.00  0.00    +0.000 A 
ATOM     25  C   UNL     1       2.628   5.728  18.760  0.00  0.00    +0.000 A 
ATOM     26  C   UNL     1       2.813   4.302  18.623  0.00  0.00    +0.000 A 
ATOM     27  C   UNL     1       2.924   3.514  19.701  0.00  0.00    +0.000 A 
ATOM     28  C   UNL     1       2.442   3.971  21.011  0.00  0.00    +0.000 A 
ATOM     29  O   UNL     1       2.332   3.201  21.958  0.00  0.00    +0.000 OA
ATOM     30  O   UNL     1       1.949   5.277  21.050  0.00  0.00    +0.000 OA
ATOM     31  C   UNL     1       2.106   6.185  19.968  0.00  0.00    +0.000 A 
ATOM     32  C   UNL     1       3.027   2.082  19.305  0.00  0.00    +0.000 C 
ATOM     33  C   UNL     1       2.127   2.141  18.076  0.00  0.00    +0.000 C 
ATOM     34  C   UNL     1       2.504   3.484  17.414  0.00  0.00    +0.000 C 
ENDBRANCH  19  22
ENDBRANCH   1  19
TORSDOF 6
ENDMDL
MODEL 9
REMARK VINA RESULT:      -8.3      8.009     11.175
REMARK  Name = 
REMARK  7 active torsions:
REMARK  status: ('A' for Active; 'I' for Inactive)
REMARK    1  A    between atoms: C_1  and  C_2
REMARK    2  A    between atoms: C_3  and  O_4
REMARK    3  A    between atoms: O_4  and  C_5
REMARK    4  A    between atoms: C_5  and  C_6
REMARK    5  A    between atoms: N_8  and  C_9
REMARK    6  A    between atoms: N_12  and  C_13
REMARK    7  A    between atoms: C_13  and  C_14
REMARK                            x       y       z     vdW  Elec       q    Type
REMARK                         _______ _______ _______ _____ _____    ______ ____
ROOT
ATOM      1  C   UNL     1      -0.203   9.697  21.054  0.00  0.00    +0.000 C 
ENDROOT
BRANCH   1   2
ATOM      2  C   UNL     1       0.960   9.194  21.914  0.00  0.00    +0.000 C 
ATOM      3  O   UNL     1       1.217   9.656  23.025  0.00  0.00    +0.000 OA
ATOM      4  N   UNL     1       1.744   8.169  21.417  0.00  0.00    +0.000 N 
ATOM      5  H   UNL     1       2.472   7.879  22.059  0.00  0.00    +0.000 HD
BRANCH   4   6
ATOM      6  C   UNL     1       1.439   7.338  20.249  0.00  0.00    +0.000 C 
ATOM      7  C   UNL     1       1.899   5.890  20.468  0.00  0.00    +0.000 C 
ATOM      8  C   UNL     1       3.187   5.523  19.748  0.00  0.00    +0.000 C 
ATOM      9  N   UNL     1       3.111   5.936  18.337  0.00  0.00    +0.000 NA
ATOM     10  C   UNL     1       3.133   7.401  18.284  0.00  0.00    +0.000 C 
ATOM     11  C   UNL     1       1.880   7.985  18.931  0.00  0.00    +0.000 C 
BRANCH   9  12
ATOM     12  C   UNL     1       4.238   5.339  17.597  0.00  0.00    +0.000 C 
BRANCH  12  13
ATOM     13  C   UNL     1       5.598   5.906  17.950  0.00  0.00    +0.000 A 
ATOM     14  C   UNL     1       6.350   5.334  18.987  0.00  0.00    +0.000 A 
ATOM     15  C   UNL     1       7.642   5.784  19.259  0.00  0.00    +0.000 A 
ATOM     16  C   UNL     1       8.194   6.815  18.503  0.00  0.00    +0.000 A 
ATOM     17  C   UNL     1       7.448   7.410  17.488  0.00  0.00    +0.000 A 
ATOM     18  C   UNL     1       6.153   6.962  17.214  0.00  0.00    +0.000 A 
ENDBRANCH  12  13
ENDBRANCH   9  12
ENDBRANCH   4   6
ENDBRANCH   1   2
BRANCH   1  19
ATOM     19  O   UNL     1      -0.271  11.116  21.184  0.00  0.00    +0.000 OA
BRANCH  19  22
ATOM     20  C   UNL     1      -1.979  12.416  19.377  0.00  0.00    +0.000 C 
ATOM     21  C   UNL     1      -2.224  12.372  20.858  0.00  0.00    +0.000 A 
ATOM     22  C   UNL     1      -1.375  11.696  21.747  0.00  0.00    +0.000 A 
ATOM     23  C   UNL     1      -1.693  11.632  23.112  0.00  0.00    +0.000 A 
ATOM     24  C   UNL     1      -2.901  12.163  23.584  0.00  0.00    +0.000 A 
ATOM     25  C   UNL     1      -3.763  12.813  22.707  0.00  0.00    +0.000 A 
ATOM     26  C   UNL     1      -5.053  13.343  23.085  0.00  0.00    +0.000 A 
ATOM     27  C   UNL     1      -5.637  14.314  22.370  0.00  0.00    +0.000 A 
ATOM     28  C   UNL     1      -5.226  14.567  20.982  0.00  0.00    +0.000 A 
ATOM     29  O   UNL     1      -5.881  15.291  20.242  0.00  0.00    +0.000 OA
ATOM     30  O   UNL     1      -4.162  13.791  20.518  0.00  0.00    +0.000 OA
ATOM     31  C   UNL     1      -3.378  12.977  21.379  0.00  0.00    +0.000 A 
ATOM     32  C   UNL     1      -6.987  14.635  22.910  0.00  0.00    +0.000 C 
ATOM     33  C   UNL     1      -7.365  13.232  23.371  0.00  0.00    +0.000 C 
ATOM     34  C   UNL     1      -6.054  12.681  23.972  0.00  0.00    +0.000 C 
ENDBRANCH  19  22
ENDBRANCH   1  19
TORSDOF 6
ENDMDL
