MODEL 1
REMARK VINA RESULT:      -8.9      0.000      0.000
REMARK  Name = 
REMARK  6 active torsions:
REMARK  status: ('A' for Active; 'I' for Inactive)
REMARK    1  A    between atoms: C_2  and  C_3
REMARK    2  A    between atoms: C_2  and  C_25
REMARK    3  A    between atoms: C_3  and  C_4
REMARK    4  A    between atoms: C_9  and  N_10
REMARK    5  A    between atoms: N_15  and  C_16
REMARK    6  A    between atoms: C_16  and  C_17
REMARK                            x       y       z     vdW  Elec       q    Type
REMARK                         _______ _______ _______ _____ _____    ______ ____
ROOT
ATOM      1  C   UNL     1       2.701   5.062  19.105  0.00  0.00    +0.000 A 
ATOM      2  C   UNL     1       2.726   6.289  18.409  0.00  0.00    +0.000 A 
ATOM      3  C   UNL     1       2.149   7.396  19.008  0.00  0.00    +0.000 A 
ATOM      4  C   UNL     1       1.551   7.331  20.254  0.00  0.00    +0.000 A 
ATOM      5  C   UNL     1       1.483   6.154  20.973  0.00  0.00    +0.000 A 
ATOM      6  C   UNL     1       2.060   5.018  20.382  0.00  0.00    +0.000 A 
ATOM      7  C   UNL     1       0.999   8.652  20.547  0.00  0.00    +0.000 C 
ATOM      8  O   UNL     1       0.330   8.903  21.530  0.00  0.00    +0.000 OA
ATOM      9  N   UNL     1       1.328   9.455  19.488  0.00  0.00    +0.000 N 
ATOM     10  C   UNL     1       1.988   8.762  18.510  0.00  0.00    +0.000 C 
ATOM     11  O   UNL     1       2.338   9.126  17.404  0.00  0.00    +0.000 OA
ENDROOT
BRANCH   6  12
ATOM     12  N   UNL     1       1.916   3.759  21.107  0.00  0.00    +0.000 N 
ATOM     13  O   UNL     1       1.055   2.973  20.696  0.00  0.00    +0.000 OA
ATOM     14  O   UNL     1       2.631   3.592  22.102  0.00  0.00    +0.000 OA
ENDBRANCH   6  12
BRANCH   1  15
ATOM     15  C   UNL     1       3.357   3.854  18.448  0.00  0.00    +0.000 C 
BRANCH  15  17
ATOM     16  O   UNL     1       5.550   3.681  19.412  0.00  0.00    +0.000 OA
ATOM     17  C   UNL     1       4.882   3.900  18.397  0.00  0.00    +0.000 C 
BRANCH  17  18
ATOM     18  C   UNL     1       5.522   4.221  17.121  0.00  0.00    +0.000 A 
ATOM     19  C   UNL     1       4.923   4.227  15.873  0.00  0.00    +0.000 A 
ATOM     20  C   UNL     1       5.836   4.552  14.828  0.00  0.00    +0.000 A 
ATOM     21  C   UNL     1       7.104   4.785  15.307  0.00  0.00    +0.000 A 
ATOM     22  S   UNL     1       7.184   4.630  17.004  0.00  0.00    +0.000 S 
ENDBRANCH  17  18
ENDBRANCH  15  17
ENDBRANCH   1  15
BRANCH   9  23
ATOM     23  C   UNL     1       0.857  10.814  19.334  0.00  0.00    +0.000 C 
BRANCH  23  24
ATOM     24  C   UNL     1      -0.588  10.905  18.905  0.00  0.00    +0.000 A 
ATOM     25  C   UNL     1      -1.461  11.814  19.522  0.00  0.00    +0.000 A 
ATOM     26  C   UNL     1      -2.774  11.956  19.067  0.00  0.00    +0.000 A 
ATOM     27  C   UNL     1      -3.231  11.186  17.998  0.00  0.00    +0.000 A 
ATOM     28  C   UNL     1      -2.383  10.258  17.398  0.00  0.00    +0.000 A 
ATOM     29  C   UNL     1      -1.071  10.111  17.854  0.00  0.00    +0.000 A 
ENDBRANCH  23  24
ENDBRANCH   9  23
TORSDOF 6
ENDMDL
MODEL 2
REMARK VINA RESULT:      -8.9      0.958      1.515
REMARK  Name = 
REMARK  6 active torsions:
REMARK  status: ('A' for Active; 'I' for Inactive)
REMARK    1  A    between atoms: C_2  and  C_3
REMARK    2  A    between atoms: C_2  and  C_25
REMARK    3  A    between atoms: C_3  and  C_4
REMARK    4  A    between atoms: C_9  and  N_10
REMARK    5  A    between atoms: N_15  and  C_16
REMARK    6  A    between atoms: C_16  and  C_17
REMARK                            x       y       z     vdW  Elec       q    Type
REMARK                         _______ _______ _______ _____ _____    ______ ____
ROOT
ATOM      1  C   UNL     1       2.661   5.044  19.195  0.00  0.00    +0.000 A 
ATOM      2  C   UNL     1       2.709   6.243  18.451  0.00  0.00    +0.000 A 
ATOM      3  C   UNL     1       2.129   7.377  18.994  0.00  0.00    +0.000 A 
ATOM      4  C   UNL     1       1.506   7.365  20.228  0.00  0.00    +0.000 A 
ATOM      5  C   UNL     1       1.415   6.219  20.993  0.00  0.00    +0.000 A 
ATOM      6  C   UNL     1       1.995   5.056  20.460  0.00  0.00    +0.000 A 
ATOM      7  C   UNL     1       0.958   8.701  20.457  0.00  0.00    +0.000 C 
ATOM      8  O   UNL     1       0.271   8.995  21.416  0.00  0.00    +0.000 OA
ATOM      9  N   UNL     1       1.313   9.458  19.373  0.00  0.00    +0.000 N 
ATOM     10  C   UNL     1       1.987   8.722  18.438  0.00  0.00    +0.000 C 
ATOM     11  O   UNL     1       2.361   9.039  17.325  0.00  0.00    +0.000 OA
ENDROOT
BRANCH   6  12
ATOM     12  N   UNL     1       1.828   3.829  21.232  0.00  0.00    +0.000 N 
ATOM     13  O   UNL     1       0.908   3.076  20.892  0.00  0.00    +0.000 OA
ATOM     14  O   UNL     1       2.586   3.655  22.193  0.00  0.00    +0.000 OA
ENDBRANCH   6  12
BRANCH   1  15
ATOM     15  C   UNL     1       3.321   3.807  18.601  0.00  0.00    +0.000 C 
BRANCH  15  17
ATOM     16  O   UNL     1       5.069   2.667  19.789  0.00  0.00    +0.000 OA
ATOM     17  C   UNL     1       4.772   3.587  19.021  0.00  0.00    +0.000 C 
BRANCH  17  18
ATOM     18  C   UNL     1       5.790   4.501  18.501  0.00  0.00    +0.000 A 
ATOM     19  C   UNL     1       6.562   5.383  19.236  0.00  0.00    +0.000 A 
ATOM     20  C   UNL     1       7.438   6.157  18.420  0.00  0.00    +0.000 A 
ATOM     21  C   UNL     1       7.309   5.842  17.087  0.00  0.00    +0.000 A 
ATOM     22  S   UNL     1       6.155   4.613  16.830  0.00  0.00    +0.000 S 
ENDBRANCH  17  18
ENDBRANCH  15  17
ENDBRANCH   1  15
BRANCH   9  23
ATOM     23  C   UNL     1       0.856  10.813  19.156  0.00  0.00    +0.000 C 
BRANCH  23  24
ATOM     24  C   UNL     1      -0.583  10.896  18.702  0.00  0.00    +0.000 A 
ATOM     25  C   UNL     1      -1.065  10.042  17.699  0.00  0.00    +0.000 A 
ATOM     26  C   UNL     1      -2.415  10.063  17.340  0.00  0.00    +0.000 A 
ATOM     27  C   UNL     1      -3.293  10.943  17.971  0.00  0.00    +0.000 A 
ATOM     28  C   UNL     1      -2.818  11.818  18.946  0.00  0.00    +0.000 A 
ATOM     29  C   UNL     1      -1.468  11.802  19.304  0.00  0.00    +0.000 A 
ENDBRANCH  23  24
ENDBRANCH   9  23
TORSDOF 6
ENDMDL
MODEL 3
REMARK VINA RESULT:      -8.8      0.969      1.363
REMARK  Name = 
REMARK  6 active torsions:
REMARK  status: ('A' for Active; 'I' for Inactive)
REMARK    1  A    between atoms: C_2  and  C_3
REMARK    2  A    between atoms: C_2  and  C_25
REMARK    3  A    between atoms: C_3  and  C_4
REMARK    4  A    between atoms: C_9  and  N_10
REMARK    5  A    between atoms: N_15  and  C_16
REMARK    6  A    between atoms: C_16  and  C_17
REMARK                            x       y       z     vdW  Elec       q    Type
REMARK                         _______ _______ _______ _____ _____    ______ ____
ROOT
ATOM      1  C   UNL     1       2.651   5.041  19.210  0.00  0.00    +0.000 A 
ATOM      2  C   UNL     1       2.691   6.247  18.478  0.00  0.00    +0.000 A 
ATOM      3  C   UNL     1       2.106   7.372  19.033  0.00  0.00    +0.000 A 
ATOM      4  C   UNL     1       1.487   7.346  20.270  0.00  0.00    +0.000 A 
ATOM      5  C   UNL     1       1.404   6.192  21.023  0.00  0.00    +0.000 A 
ATOM      6  C   UNL     1       1.988   5.037  20.477  0.00  0.00    +0.000 A 
ATOM      7  C   UNL     1       0.934   8.676  20.513  0.00  0.00    +0.000 C 
ATOM      8  O   UNL     1       0.248   8.959  21.477  0.00  0.00    +0.000 OA
ATOM      9  N   UNL     1       1.282   9.447  19.435  0.00  0.00    +0.000 N 
ATOM     10  C   UNL     1       1.957   8.722  18.491  0.00  0.00    +0.000 C 
ATOM     11  O   UNL     1       2.327   9.052  17.381  0.00  0.00    +0.000 OA
ENDROOT
BRANCH   6  12
ATOM     12  N   UNL     1       1.829   3.802  21.238  0.00  0.00    +0.000 N 
ATOM     13  O   UNL     1       2.592   3.632  22.195  0.00  0.00    +0.000 OA
ATOM     14  O   UNL     1       0.976   2.997  20.843  0.00  0.00    +0.000 OA
ENDBRANCH   6  12
BRANCH   1  15
ATOM     15  C   UNL     1       3.314   3.812  18.602  0.00  0.00    +0.000 C 
BRANCH  15  17
ATOM     16  O   UNL     1       5.032   2.650  19.814  0.00  0.00    +0.000 OA
ATOM     17  C   UNL     1       4.757   3.576  19.044  0.00  0.00    +0.000 C 
BRANCH  17  18
ATOM     18  C   UNL     1       5.792   4.480  18.543  0.00  0.00    +0.000 A 
ATOM     19  C   UNL     1       6.577   5.337  19.294  0.00  0.00    +0.000 A 
ATOM     20  C   UNL     1       7.469   6.109  18.493  0.00  0.00    +0.000 A 
ATOM     21  C   UNL     1       7.340   5.817  17.156  0.00  0.00    +0.000 A 
ATOM     22  S   UNL     1       6.166   4.612  16.874  0.00  0.00    +0.000 S 
ENDBRANCH  17  18
ENDBRANCH  15  17
ENDBRANCH   1  15
BRANCH   9  23
ATOM     23  C   UNL     1       0.817  10.801  19.233  0.00  0.00    +0.000 C 
BRANCH  23  24
ATOM     24  C   UNL     1      -0.633  10.884  18.817  0.00  0.00    +0.000 A 
ATOM     25  C   UNL     1      -1.503  11.791  19.440  0.00  0.00    +0.000 A 
ATOM     26  C   UNL     1      -2.821  11.925  18.998  0.00  0.00    +0.000 A 
ATOM     27  C   UNL     1      -3.285  11.149  17.936  0.00  0.00    +0.000 A 
ATOM     28  C   UNL     1      -2.438  10.223  17.331  0.00  0.00    +0.000 A 
ATOM     29  C   UNL     1      -1.121  10.084  17.774  0.00  0.00    +0.000 A 
ENDBRANCH  23  24
ENDBRANCH   9  23
TORSDOF 6
ENDMDL
MODEL 4
REMARK VINA RESULT:      -8.4      0.910      1.097
REMARK  Name = 
REMARK  6 active torsions:
REMARK  status: ('A' for Active; 'I' for Inactive)
REMARK    1  A    between atoms: C_2  and  C_3
REMARK    2  A    between atoms: C_2  and  C_25
REMARK    3  A    between atoms: C_3  and  C_4
REMARK    4  A    between atoms: C_9  and  N_10
REMARK    5  A    between atoms: N_15  and  C_16
REMARK    6  A    between atoms: C_16  and  C_17
REMARK                            x       y       z     vdW  Elec       q    Type
REMARK                         _______ _______ _______ _____ _____    ______ ____
ROOT
ATOM      1  C   UNL     1       2.757   4.900  19.309  0.00  0.00    +0.000 A 
ATOM      2  C   UNL     1       2.833   6.100  18.569  0.00  0.00    +0.000 A 
ATOM      3  C   UNL     1       2.218   7.229  19.082  0.00  0.00    +0.000 A 
ATOM      4  C   UNL     1       1.535   7.212  20.284  0.00  0.00    +0.000 A 
ATOM      5  C   UNL     1       1.413   6.065  21.043  0.00  0.00    +0.000 A 
ATOM      6  C   UNL     1       2.028   4.907  20.538  0.00  0.00    +0.000 A 
ATOM      7  C   UNL     1       0.967   8.544  20.485  0.00  0.00    +0.000 C 
ATOM      8  O   UNL     1       0.231   8.834  21.409  0.00  0.00    +0.000 OA
ATOM      9  N   UNL     1       1.371   9.305  19.421  0.00  0.00    +0.000 N 
ATOM     10  C   UNL     1       2.096   8.574  18.520  0.00  0.00    +0.000 C 
ATOM     11  O   UNL     1       2.523   8.894  17.428  0.00  0.00    +0.000 OA
ENDROOT
BRANCH   6  12
ATOM     12  N   UNL     1       1.830   3.678  21.301  0.00  0.00    +0.000 N 
ATOM     13  O   UNL     1       2.576   3.495  22.270  0.00  0.00    +0.000 OA
ATOM     14  O   UNL     1       0.966   2.891  20.897  0.00  0.00    +0.000 OA
ENDBRANCH   6  12
BRANCH   1  15
ATOM     15  C   UNL     1       3.453   3.668  18.748  0.00  0.00    +0.000 C 
BRANCH  15  17
ATOM     16  O   UNL     1       2.633   3.284  16.524  0.00  0.00    +0.000 OA
ATOM     17  C   UNL     1       3.583   3.639  17.226  0.00  0.00    +0.000 C 
BRANCH  17  18
ATOM     18  C   UNL     1       4.863   4.029  16.634  0.00  0.00    +0.000 A 
ATOM     19  C   UNL     1       5.188   4.022  15.288  0.00  0.00    +0.000 A 
ATOM     20  C   UNL     1       6.532   4.429  15.046  0.00  0.00    +0.000 A 
ATOM     21  C   UNL     1       7.193   4.738  16.213  0.00  0.00    +0.000 A 
ATOM     22  S   UNL     1       6.192   4.552  17.582  0.00  0.00    +0.000 S 
ENDBRANCH  17  18
ENDBRANCH  15  17
ENDBRANCH   1  15
BRANCH   9  23
ATOM     23  C   UNL     1       0.915  10.657  19.181  0.00  0.00    +0.000 C 
BRANCH  23  24
ATOM     24  C   UNL     1      -0.525  10.735  18.732  0.00  0.00    +0.000 A 
ATOM     25  C   UNL     1      -1.415  11.632  19.342  0.00  0.00    +0.000 A 
ATOM     26  C   UNL     1      -2.723  11.763  18.870  0.00  0.00    +0.000 A 
ATOM     27  C   UNL     1      -3.157  10.995  17.790  0.00  0.00    +0.000 A 
ATOM     28  C   UNL     1      -2.291  10.079  17.197  0.00  0.00    +0.000 A 
ATOM     29  C   UNL     1      -0.985   9.943  17.671  0.00  0.00    +0.000 A 
ENDBRANCH  23  24
ENDBRANCH   9  23
TORSDOF 6
ENDMDL
MODEL 5
REMARK VINA RESULT:      -8.3      1.425      1.711
REMARK  Name = 
REMARK  6 active torsions:
REMARK  status: ('A' for Active; 'I' for Inactive)
REMARK    1  A    between atoms: C_2  and  C_3
REMARK    2  A    between atoms: C_2  and  C_25
REMARK    3  A    between atoms: C_3  and  C_4
REMARK    4  A    between atoms: C_9  and  N_10
REMARK    5  A    between atoms: N_15  and  C_16
REMARK    6  A    between atoms: C_16  and  C_17
REMARK                            x       y       z     vdW  Elec       q    Type
REMARK                         _______ _______ _______ _____ _____    ______ ____
ROOT
ATOM      1  C   UNL     1       2.946   5.132  18.354  0.00  0.00    +0.000 A 
ATOM      2  C   UNL     1       2.864   6.448  17.851  0.00  0.00    +0.000 A 
ATOM      3  C   UNL     1       2.301   7.425  18.654  0.00  0.00    +0.000 A 
ATOM      4  C   UNL     1       1.818   7.148  19.920  0.00  0.00    +0.000 A 
ATOM      5  C   UNL     1       1.858   5.877  20.458  0.00  0.00    +0.000 A 
ATOM      6  C   UNL     1       2.423   4.870  19.658  0.00  0.00    +0.000 A 
ATOM      7  C   UNL     1       1.246   8.382  20.453  0.00  0.00    +0.000 C 
ATOM      8  O   UNL     1       0.657   8.453  21.514  0.00  0.00    +0.000 OA
ATOM      9  N   UNL     1       1.448   9.348  19.503  0.00  0.00    +0.000 N 
ATOM     10  C   UNL     1       2.045   8.839  18.382  0.00  0.00    +0.000 C 
ATOM     11  O   UNL     1       2.281   9.378  17.318  0.00  0.00    +0.000 OA
ENDROOT
BRANCH   6  12
ATOM     12  N   UNL     1       2.391   3.513  20.195  0.00  0.00    +0.000 N 
ATOM     13  O   UNL     1       3.428   3.098  20.727  0.00  0.00    +0.000 OA
ATOM     14  O   UNL     1       1.350   2.864  20.039  0.00  0.00    +0.000 OA
ENDBRANCH   6  12
BRANCH   1  15
ATOM     15  C   UNL     1       3.586   4.068  17.472  0.00  0.00    +0.000 C 
BRANCH  15  17
ATOM     16  O   UNL     1       4.925   4.311  15.493  0.00  0.00    +0.000 OA
ATOM     17  C   UNL     1       4.823   4.528  16.704  0.00  0.00    +0.000 C 
BRANCH  17  18
ATOM     18  C   UNL     1       5.882   5.216  17.444  0.00  0.00    +0.000 A 
ATOM     19  C   UNL     1       6.617   6.306  17.014  0.00  0.00    +0.000 A 
ATOM     20  C   UNL     1       7.598   6.716  17.964  0.00  0.00    +0.000 A 
ATOM     21  C   UNL     1       7.581   5.928  19.092  0.00  0.00    +0.000 A 
ATOM     22  S   UNL     1       6.381   4.718  19.007  0.00  0.00    +0.000 S 
ENDBRANCH  17  18
ENDBRANCH  15  17
ENDBRANCH   1  15
BRANCH   9  23
ATOM     23  C   UNL     1       0.915  10.689  19.595  0.00  0.00    +0.000 C 
BRANCH  23  24
ATOM     24  C   UNL     1      -0.505  10.807  19.093  0.00  0.00    +0.000 A 
ATOM     25  C   UNL     1      -1.387  11.738  19.661  0.00  0.00    +0.000 A 
ATOM     26  C   UNL     1      -2.673  11.904  19.140  0.00  0.00    +0.000 A 
ATOM     27  C   UNL     1      -3.092  11.138  18.053  0.00  0.00    +0.000 A 
ATOM     28  C   UNL     1      -2.234  10.189  17.501  0.00  0.00    +0.000 A 
ATOM     29  C   UNL     1      -0.950  10.018  18.023  0.00  0.00    +0.000 A 
ENDBRANCH  23  24
ENDBRANCH   9  23
TORSDOF 6
ENDMDL
MODEL 6
REMARK VINA RESULT:      -8.3      1.013      1.568
REMARK  Name = 
REMARK  6 active torsions:
REMARK  status: ('A' for Active; 'I' for Inactive)
REMARK    1  A    between atoms: C_2  and  C_3
REMARK    2  A    between atoms: C_2  and  C_25
REMARK    3  A    between atoms: C_3  and  C_4
REMARK    4  A    between atoms: C_9  and  N_10
REMARK    5  A    between atoms: N_15  and  C_16
REMARK    6  A    between atoms: C_16  and  C_17
REMARK                            x       y       z     vdW  Elec       q    Type
REMARK                         _______ _______ _______ _____ _____    ______ ____
ROOT
ATOM      1  C   UNL     1       2.770   4.878  19.344  0.00  0.00    +0.000 A 
ATOM      2  C   UNL     1       2.866   6.065  18.587  0.00  0.00    +0.000 A 
ATOM      3  C   UNL     1       2.258   7.209  19.076  0.00  0.00    +0.000 A 
ATOM      4  C   UNL     1       1.564   7.218  20.272  0.00  0.00    +0.000 A 
ATOM      5  C   UNL     1       1.423   6.085  21.048  0.00  0.00    +0.000 A 
ATOM      6  C   UNL     1       2.030   4.912  20.567  0.00  0.00    +0.000 A 
ATOM      7  C   UNL     1       1.008   8.559  20.447  0.00  0.00    +0.000 C 
ATOM      8  O   UNL     1       0.267   8.871  21.359  0.00  0.00    +0.000 OA
ATOM      9  N   UNL     1       1.430   9.298  19.374  0.00  0.00    +0.000 N 
ATOM     10  C   UNL     1       2.155   8.545  18.492  0.00  0.00    +0.000 C 
ATOM     11  O   UNL     1       2.595   8.844  17.399  0.00  0.00    +0.000 OA
ENDROOT
BRANCH   6  12
ATOM     12  N   UNL     1       1.812   3.697  21.347  0.00  0.00    +0.000 N 
ATOM     13  O   UNL     1       2.565   3.510  22.311  0.00  0.00    +0.000 OA
ATOM     14  O   UNL     1       0.926   2.926  20.962  0.00  0.00    +0.000 OA
ENDBRANCH   6  12
BRANCH   1  15
ATOM     15  C   UNL     1       3.458   3.630  18.810  0.00  0.00    +0.000 C 
BRANCH  15  17
ATOM     16  O   UNL     1       2.885   3.314  16.499  0.00  0.00    +0.000 OA
ATOM     17  C   UNL     1       3.752   3.650  17.311  0.00  0.00    +0.000 C 
BRANCH  17  18
ATOM     18  C   UNL     1       5.086   4.062  16.873  0.00  0.00    +0.000 A 
ATOM     19  C   UNL     1       6.157   4.396  17.684  0.00  0.00    +0.000 A 
ATOM     20  C   UNL     1       7.308   4.788  16.940  0.00  0.00    +0.000 A 
ATOM     21  C   UNL     1       7.083   4.740  15.584  0.00  0.00    +0.000 A 
ATOM     22  S   UNL     1       5.502   4.212  15.216  0.00  0.00    +0.000 S 
ENDBRANCH  17  18
ENDBRANCH  15  17
ENDBRANCH   1  15
BRANCH   9  23
ATOM     23  C   UNL     1       0.991  10.651  19.110  0.00  0.00    +0.000 C 
BRANCH  23  24
ATOM     24  C   UNL     1      -0.443  10.737  18.640  0.00  0.00    +0.000 A 
ATOM     25  C   UNL     1      -0.908   9.906  17.610  0.00  0.00    +0.000 A 
ATOM     26  C   UNL     1      -2.253   9.928  17.235  0.00  0.00    +0.000 A 
ATOM     27  C   UNL     1      -3.145  10.786  17.879  0.00  0.00    +0.000 A 
ATOM     28  C   UNL     1      -2.687  11.637  18.882  0.00  0.00    +0.000 A 
ATOM     29  C   UNL     1      -1.342  11.620  19.256  0.00  0.00    +0.000 A 
ENDBRANCH  23  24
ENDBRANCH   9  23
TORSDOF 6
ENDMDL
MODEL 7
REMARK VINA RESULT:      -8.2      1.229      1.504
REMARK  Name = 
REMARK  6 active torsions:
REMARK  status: ('A' for Active; 'I' for Inactive)
REMARK    1  A    between atoms: C_2  and  C_3
REMARK    2  A    between atoms: C_2  and  C_25
REMARK    3  A    between atoms: C_3  and  C_4
REMARK    4  A    between atoms: C_9  and  N_10
REMARK    5  A    between atoms: N_15  and  C_16
REMARK    6  A    between atoms: C_16  and  C_17
REMARK                            x       y       z     vdW  Elec       q    Type
REMARK                         _______ _______ _______ _____ _____    ______ ____
ROOT
ATOM      1  C   UNL     1       2.829   5.105  19.229  0.00  0.00    +0.000 A 
ATOM      2  C   UNL     1       2.855   6.326  18.522  0.00  0.00    +0.000 A 
ATOM      3  C   UNL     1       2.188   7.413  19.062  0.00  0.00    +0.000 A 
ATOM      4  C   UNL     1       1.501   7.334  20.259  0.00  0.00    +0.000 A 
ATOM      5  C   UNL     1       1.429   6.163  20.987  0.00  0.00    +0.000 A 
ATOM      6  C   UNL     1       2.096   5.047  20.455  0.00  0.00    +0.000 A 
ATOM      7  C   UNL     1       0.873   8.633  20.493  0.00  0.00    +0.000 C 
ATOM      8  O   UNL     1       0.121   8.864  21.420  0.00  0.00    +0.000 OA
ATOM      9  N   UNL     1       1.246   9.439  19.451  0.00  0.00    +0.000 N 
ATOM     10  C   UNL     1       2.007   8.765  18.535  0.00  0.00    +0.000 C 
ATOM     11  O   UNL     1       2.424   9.133  17.454  0.00  0.00    +0.000 OA
ENDROOT
BRANCH   6  12
ATOM     12  N   UNL     1       1.951   3.790  21.184  0.00  0.00    +0.000 N 
ATOM     13  O   UNL     1       1.090   3.003  20.775  0.00  0.00    +0.000 OA
ATOM     14  O   UNL     1       2.666   3.625  22.180  0.00  0.00    +0.000 OA
ENDBRANCH   6  12
BRANCH   1  15
ATOM     15  C   UNL     1       3.583   3.921  18.640  0.00  0.00    +0.000 C 
BRANCH  15  17
ATOM     16  O   UNL     1       4.414   3.912  16.386  0.00  0.00    +0.000 OA
ATOM     17  C   UNL     1       4.593   4.279  17.552  0.00  0.00    +0.000 C 
BRANCH  17  18
ATOM     18  C   UNL     1       5.776   5.050  17.932  0.00  0.00    +0.000 A 
ATOM     19  C   UNL     1       6.517   4.910  19.093  0.00  0.00    +0.000 A 
ATOM     20  C   UNL     1       7.593   5.842  19.174  0.00  0.00    +0.000 A 
ATOM     21  C   UNL     1       7.643   6.664  18.072  0.00  0.00    +0.000 A 
ATOM     22  S   UNL     1       6.412   6.301  16.947  0.00  0.00    +0.000 S 
ENDBRANCH  17  18
ENDBRANCH  15  17
ENDBRANCH   1  15
BRANCH   9  23
ATOM     23  C   UNL     1       0.732  10.775  19.246  0.00  0.00    +0.000 C 
BRANCH  23  24
ATOM     24  C   UNL     1      -0.693  10.800  18.745  0.00  0.00    +0.000 A 
ATOM     25  C   UNL     1      -1.638  11.661  19.323  0.00  0.00    +0.000 A 
ATOM     26  C   UNL     1      -2.932  11.743  18.804  0.00  0.00    +0.000 A 
ATOM     27  C   UNL     1      -3.298  10.961  17.709  0.00  0.00    +0.000 A 
ATOM     28  C   UNL     1      -2.377  10.080  17.147  0.00  0.00    +0.000 A 
ATOM     29  C   UNL     1      -1.084   9.992  17.667  0.00  0.00    +0.000 A 
ENDBRANCH  23  24
ENDBRANCH   9  23
TORSDOF 6
ENDMDL
MODEL 8
REMARK VINA RESULT:      -8.2      3.173      7.989
REMARK  Name = 
REMARK  6 active torsions:
REMARK  status: ('A' for Active; 'I' for Inactive)
REMARK    1  A    between atoms: C_2  and  C_3
REMARK    2  A    between atoms: C_2  and  C_25
REMARK    3  A    between atoms: C_3  and  C_4
REMARK    4  A    between atoms: C_9  and  N_10
REMARK    5  A    between atoms: N_15  and  C_16
REMARK    6  A    between atoms: C_16  and  C_17
REMARK                            x       y       z     vdW  Elec       q    Type
REMARK                         _______ _______ _______ _____ _____    ______ ____
ROOT
ATOM      1  C   UNL     1       0.658  10.149  20.366  0.00  0.00    +0.000 A 
ATOM      2  C   UNL     1       1.297   9.746  19.174  0.00  0.00    +0.000 A 
ATOM      3  C   UNL     1       1.825   8.467  19.111  0.00  0.00    +0.000 A 
ATOM      4  C   UNL     1       1.746   7.586  20.174  0.00  0.00    +0.000 A 
ATOM      5  C   UNL     1       1.147   7.930  21.369  0.00  0.00    +0.000 A 
ATOM      6  C   UNL     1       0.608   9.225  21.455  0.00  0.00    +0.000 A 
ATOM      7  C   UNL     1       2.451   6.366  19.786  0.00  0.00    +0.000 C 
ATOM      8  O   UNL     1       2.641   5.427  20.535  0.00  0.00    +0.000 OA
ATOM      9  N   UNL     1       2.880   6.556  18.499  0.00  0.00    +0.000 N 
ATOM     10  C   UNL     1       2.571   7.807  18.040  0.00  0.00    +0.000 C 
ATOM     11  O   UNL     1       2.879   8.347  16.996  0.00  0.00    +0.000 OA
ENDROOT
BRANCH   6  12
ATOM     12  N   UNL     1       0.047   9.614  22.745  0.00  0.00    +0.000 N 
ATOM     13  O   UNL     1       0.826   9.653  23.705  0.00  0.00    +0.000 OA
ATOM     14  O   UNL     1      -1.170   9.831  22.794  0.00  0.00    +0.000 OA
ENDBRANCH   6  12
BRANCH   1  15
ATOM     15  C   UNL     1       0.063  11.550  20.421  0.00  0.00    +0.000 C 
BRANCH  15  17
ATOM     16  O   UNL     1       0.103  12.963  18.479  0.00  0.00    +0.000 OA
ATOM     17  C   UNL     1      -0.486  12.067  19.092  0.00  0.00    +0.000 C 
BRANCH  17  18
ATOM     18  C   UNL     1      -1.726  11.484  18.581  0.00  0.00    +0.000 A 
ATOM     19  C   UNL     1      -1.839  10.459  17.658  0.00  0.00    +0.000 A 
ATOM     20  C   UNL     1      -3.195  10.147  17.347  0.00  0.00    +0.000 A 
ATOM     21  C   UNL     1      -4.076  10.941  18.042  0.00  0.00    +0.000 A 
ATOM     22  S   UNL     1      -3.272  12.039  19.072  0.00  0.00    +0.000 S 
ENDBRANCH  17  18
ENDBRANCH  15  17
ENDBRANCH   1  15
BRANCH   9  23
ATOM     23  C   UNL     1       3.729   5.624  17.791  0.00  0.00    +0.000 C 
BRANCH  23  24
ATOM     24  C   UNL     1       5.203   5.857  18.024  0.00  0.00    +0.000 A 
ATOM     25  C   UNL     1       5.947   6.658  17.144  0.00  0.00    +0.000 A 
ATOM     26  C   UNL     1       7.290   6.941  17.408  0.00  0.00    +0.000 A 
ATOM     27  C   UNL     1       7.904   6.419  18.546  0.00  0.00    +0.000 A 
ATOM     28  C   UNL     1       7.184   5.597  19.409  0.00  0.00    +0.000 A 
ATOM     29  C   UNL     1       5.842   5.309  19.145  0.00  0.00    +0.000 A 
ENDBRANCH  23  24
ENDBRANCH   9  23
TORSDOF 6
ENDMDL
MODEL 9
REMARK VINA RESULT:      -8.2      1.972      3.022
REMARK  Name = 
REMARK  6 active torsions:
REMARK  status: ('A' for Active; 'I' for Inactive)
REMARK    1  A    between atoms: C_2  and  C_3
REMARK    2  A    between atoms: C_2  and  C_25
REMARK    3  A    between atoms: C_3  and  C_4
REMARK    4  A    between atoms: C_9  and  N_10
REMARK    5  A    between atoms: N_15  and  C_16
REMARK    6  A    between atoms: C_16  and  C_17
REMARK                            x       y       z     vdW  Elec       q    Type
REMARK                         _______ _______ _______ _____ _____    ______ ____
ROOT
ATOM      1  C   UNL     1       2.652   5.658  18.953  0.00  0.00    +0.000 A 
ATOM      2  C   UNL     1       2.670   6.876  18.241  0.00  0.00    +0.000 A 
ATOM      3  C   UNL     1       2.060   7.980  18.812  0.00  0.00    +0.000 A 
ATOM      4  C   UNL     1       1.438   7.921  20.045  0.00  0.00    +0.000 A 
ATOM      5  C   UNL     1       1.376   6.753  20.780  0.00  0.00    +0.000 A 
ATOM      6  C   UNL     1       1.986   5.620  20.217  0.00  0.00    +0.000 A 
ATOM      7  C   UNL     1       0.857   9.236  20.308  0.00  0.00    +0.000 C 
ATOM      8  O   UNL     1       0.162   9.488  21.274  0.00  0.00    +0.000 OA
ATOM      9  N   UNL     1       1.192  10.030  19.245  0.00  0.00    +0.000 N 
ATOM     10  C   UNL     1       1.885   9.336  18.291  0.00  0.00    +0.000 C 
ATOM     11  O   UNL     1       2.251   9.691  17.188  0.00  0.00    +0.000 OA
ENDROOT
BRANCH   6  12
ATOM     12  N   UNL     1       1.849   4.369  20.957  0.00  0.00    +0.000 N 
ATOM     13  O   UNL     1       0.920   3.623  20.627  0.00  0.00    +0.000 OA
ATOM     14  O   UNL     1       2.642   4.169  21.885  0.00  0.00    +0.000 OA
ENDBRANCH   6  12
BRANCH   1  15
ATOM     15  C   UNL     1       3.343   4.453  18.327  0.00  0.00    +0.000 C 
BRANCH  15  17
ATOM     16  O   UNL     1       4.955   3.220  19.611  0.00  0.00    +0.000 OA
ATOM     17  C   UNL     1       4.749   4.173  18.854  0.00  0.00    +0.000 C 
BRANCH  17  18
ATOM     18  C   UNL     1       5.832   5.069  18.448  0.00  0.00    +0.000 A 
ATOM     19  C   UNL     1       6.861   5.536  19.246  0.00  0.00    +0.000 A 
ATOM     20  C   UNL     1       7.735   6.423  18.550  0.00  0.00    +0.000 A 
ATOM     21  C   UNL     1       7.348   6.604  17.243  0.00  0.00    +0.000 A 
ATOM     22  S   UNL     1       5.954   5.699  16.858  0.00  0.00    +0.000 S 
ENDBRANCH  17  18
ENDBRANCH  15  17
ENDBRANCH   1  15
BRANCH   9  23
ATOM     23  C   UNL     1       0.701  11.378  19.063  0.00  0.00    +0.000 C 
BRANCH  23  24
ATOM     24  C   UNL     1       1.748  12.438  19.307  0.00  0.00    +0.000 A 
ATOM     25  C   UNL     1       2.460  12.999  18.236  0.00  0.00    +0.000 A 
ATOM     26  C   UNL     1       3.367  14.039  18.456  0.00  0.00    +0.000 A 
ATOM     27  C   UNL     1       3.578  14.522  19.747  0.00  0.00    +0.000 A 
ATOM     28  C   UNL     1       2.900  13.951  20.822  0.00  0.00    +0.000 A 
ATOM     29  C   UNL     1       1.996  12.909  20.605  0.00  0.00    +0.000 A 
ENDBRANCH  23  24
ENDBRANCH   9  23
TORSDOF 6
ENDMDL
