MODEL 1
REMARK VINA RESULT:      -7.7      0.000      0.000
REMARK  Name = 
REMARK  3 active torsions:
REMARK  status: ('A' for Active; 'I' for Inactive)
REMARK    1  A    between atoms: C_1  and  O_2
REMARK    2  A    between atoms: O_2  and  C_3
REMARK    3  A    between atoms: C_8  and  C_9
REMARK                            x       y       z     vdW  Elec       q    Type
REMARK                         _______ _______ _______ _____ _____    ______ ____
ROOT
ATOM      1  C   UNL     1       2.670   6.786  18.922  0.00  0.00    +0.000 A 
ATOM      2  C   UNL     1       2.529   7.650  17.909  0.00  0.00    +0.000 A 
ATOM      3  C   UNL     1       1.971   8.996  18.212  0.00  0.00    +0.000 A 
ATOM      4  O   UNL     1       2.027   9.898  17.389  0.00  0.00    +0.000 OA
ATOM      5  C   UNL     1       1.280   9.156  19.514  0.00  0.00    +0.000 A 
ATOM      6  C   UNL     1       0.401  10.219  19.730  0.00  0.00    +0.000 A 
ATOM      7  C   UNL     1      -0.329  10.270  20.918  0.00  0.00    +0.000 A 
ATOM      8  C   UNL     1      -0.146   9.291  21.898  0.00  0.00    +0.000 A 
ATOM      9  C   UNL     1       0.781   8.262  21.700  0.00  0.00    +0.000 A 
ATOM     10  C   UNL     1       1.475   8.173  20.496  0.00  0.00    +0.000 A 
ATOM     11  N   UNL     1       2.305   7.061  20.235  0.00  0.00    +0.000 N 
ATOM     12  H   UNL     1       3.107   7.019  20.866  0.00  0.00    +0.000 HD
ENDROOT
BRANCH   1  18
ATOM     13  C   UNL     1       4.135   4.693  19.021  0.00  0.00    +0.000 A 
ATOM     14  C   UNL     1       4.281   3.329  18.705  0.00  0.00    +0.000 A 
ATOM     15  C   UNL     1       3.310   2.656  17.962  0.00  0.00    +0.000 A 
ATOM     16  C   UNL     1       2.172   3.330  17.537  0.00  0.00    +0.000 A 
ATOM     17  C   UNL     1       1.997   4.668  17.881  0.00  0.00    +0.000 A 
ATOM     18  C   UNL     1       2.963   5.364  18.633  0.00  0.00    +0.000 A 
BRANCH  13  20
ATOM     19  C   UNL     1       6.392   5.378  19.154  0.00  0.00    +0.000 C 
ATOM     20  O   UNL     1       5.080   5.408  19.712  0.00  0.00    +0.000 OA
ENDBRANCH  13  20
ENDBRANCH   1  18
TORSDOF 2
ENDMDL
MODEL 2
REMARK VINA RESULT:      -7.7      3.128      4.575
REMARK  Name = 
REMARK  3 active torsions:
REMARK  status: ('A' for Active; 'I' for Inactive)
REMARK    1  A    between atoms: C_1  and  O_2
REMARK    2  A    between atoms: O_2  and  C_3
REMARK    3  A    between atoms: C_8  and  C_9
REMARK                            x       y       z     vdW  Elec       q    Type
REMARK                         _______ _______ _______ _____ _____    ______ ____
ROOT
ATOM      1  C   UNL     1       4.733   5.200  17.982  0.00  0.00    +0.000 A 
ATOM      2  C   UNL     1       3.902   6.245  18.082  0.00  0.00    +0.000 A 
ATOM      3  C   UNL     1       2.920   6.252  19.200  0.00  0.00    +0.000 A 
ATOM      4  O   UNL     1       2.296   7.266  19.481  0.00  0.00    +0.000 OA
ATOM      5  C   UNL     1       2.684   4.962  19.892  0.00  0.00    +0.000 A 
ATOM      6  C   UNL     1       1.537   4.764  20.662  0.00  0.00    +0.000 A 
ATOM      7  C   UNL     1       1.282   3.500  21.194  0.00  0.00    +0.000 A 
ATOM      8  C   UNL     1       2.190   2.457  20.994  0.00  0.00    +0.000 A 
ATOM      9  C   UNL     1       3.367   2.678  20.271  0.00  0.00    +0.000 A 
ATOM     10  C   UNL     1       3.605   3.922  19.692  0.00  0.00    +0.000 A 
ATOM     11  N   UNL     1       4.720   4.111  18.846  0.00  0.00    +0.000 N 
ATOM     12  H   UNL     1       5.605   4.014  19.344  0.00  0.00    +0.000 HD
ENDROOT
BRANCH   1  18
ATOM     13  C   UNL     1       6.863   5.443  16.590  0.00  0.00    +0.000 A 
ATOM     14  C   UNL     1       7.522   5.187  15.372  0.00  0.00    +0.000 A 
ATOM     15  C   UNL     1       6.855   4.576  14.309  0.00  0.00    +0.000 A 
ATOM     16  C   UNL     1       5.526   4.199  14.450  0.00  0.00    +0.000 A 
ATOM     17  C   UNL     1       4.877   4.408  15.664  0.00  0.00    +0.000 A 
ATOM     18  C   UNL     1       5.533   5.019  16.750  0.00  0.00    +0.000 A 
BRANCH  13  20
ATOM     19  C   UNL     1       7.571   7.493  17.526  0.00  0.00    +0.000 C 
ATOM     20  O   UNL     1       7.463   6.077  17.648  0.00  0.00    +0.000 OA
ENDBRANCH  13  20
ENDBRANCH   1  18
TORSDOF 2
ENDMDL
MODEL 3
REMARK VINA RESULT:      -7.6      2.671      5.164
REMARK  Name = 
REMARK  3 active torsions:
REMARK  status: ('A' for Active; 'I' for Inactive)
REMARK    1  A    between atoms: C_1  and  O_2
REMARK    2  A    between atoms: O_2  and  C_3
REMARK    3  A    between atoms: C_8  and  C_9
REMARK                            x       y       z     vdW  Elec       q    Type
REMARK                         _______ _______ _______ _____ _____    ______ ____
ROOT
ATOM      1  C   UNL     1       4.131   4.564  17.950  0.00  0.00    +0.000 A 
ATOM      2  C   UNL     1       4.010   5.304  16.841  0.00  0.00    +0.000 A 
ATOM      3  C   UNL     1       5.202   6.063  16.374  0.00  0.00    +0.000 A 
ATOM      4  O   UNL     1       5.228   6.568  15.261  0.00  0.00    +0.000 OA
ATOM      5  C   UNL     1       6.307   6.239  17.348  0.00  0.00    +0.000 A 
ATOM      6  C   UNL     1       7.268   7.235  17.165  0.00  0.00    +0.000 A 
ATOM      7  C   UNL     1       8.218   7.458  18.162  0.00  0.00    +0.000 A 
ATOM      8  C   UNL     1       8.232   6.660  19.309  0.00  0.00    +0.000 A 
ATOM      9  C   UNL     1       7.303   5.625  19.459  0.00  0.00    +0.000 A 
ATOM     10  C   UNL     1       6.319   5.429  18.493  0.00  0.00    +0.000 A 
ATOM     11  N   UNL     1       5.295   4.479  18.705  0.00  0.00    +0.000 N 
ATOM     12  H   UNL     1       5.654   3.524  18.739  0.00  0.00    +0.000 HD
ENDROOT
BRANCH   1  18
ATOM     13  C   UNL     1       2.304   4.554  19.739  0.00  0.00    +0.000 A 
ATOM     14  C   UNL     1       1.136   3.949  20.240  0.00  0.00    +0.000 A 
ATOM     15  C   UNL     1       0.619   2.791  19.657  0.00  0.00    +0.000 A 
ATOM     16  C   UNL     1       1.252   2.229  18.555  0.00  0.00    +0.000 A 
ATOM     17  C   UNL     1       2.383   2.843  18.024  0.00  0.00    +0.000 A 
ATOM     18  C   UNL     1       2.918   4.014  18.596  0.00  0.00    +0.000 A 
BRANCH  13  20
ATOM     19  C   UNL     1       2.237   6.902  19.983  0.00  0.00    +0.000 C 
ATOM     20  O   UNL     1       2.873   5.667  20.302  0.00  0.00    +0.000 OA
ENDBRANCH  13  20
ENDBRANCH   1  18
TORSDOF 2
ENDMDL
MODEL 4
REMARK VINA RESULT:      -7.5      3.458      5.223
REMARK  Name = 
REMARK  3 active torsions:
REMARK  status: ('A' for Active; 'I' for Inactive)
REMARK    1  A    between atoms: C_1  and  O_2
REMARK    2  A    between atoms: O_2  and  C_3
REMARK    3  A    between atoms: C_8  and  C_9
REMARK                            x       y       z     vdW  Elec       q    Type
REMARK                         _______ _______ _______ _____ _____    ______ ____
ROOT
ATOM      1  C   UNL     1       4.076   4.766  18.159  0.00  0.00    +0.000 A 
ATOM      2  C   UNL     1       3.856   5.594  17.130  0.00  0.00    +0.000 A 
ATOM      3  C   UNL     1       5.009   6.373  16.601  0.00  0.00    +0.000 A 
ATOM      4  O   UNL     1       4.929   6.966  15.535  0.00  0.00    +0.000 OA
ATOM      5  C   UNL     1       6.212   6.455  17.464  0.00  0.00    +0.000 A 
ATOM      6  C   UNL     1       7.170   7.451  17.260  0.00  0.00    +0.000 A 
ATOM      7  C   UNL     1       8.223   7.580  18.166  0.00  0.00    +0.000 A 
ATOM      8  C   UNL     1       8.340   6.692  19.238  0.00  0.00    +0.000 A 
ATOM      9  C   UNL     1       7.410   5.661  19.403  0.00  0.00    +0.000 A 
ATOM     10  C   UNL     1       6.326   5.556  18.535  0.00  0.00    +0.000 A 
ATOM     11  N   UNL     1       5.311   4.605  18.777  0.00  0.00    +0.000 N 
ATOM     12  H   UNL     1       5.650   3.646  18.698  0.00  0.00    +0.000 HD
ENDROOT
BRANCH   1  18
ATOM     13  C   UNL     1       2.466   2.863  18.726  0.00  0.00    +0.000 A 
ATOM     14  C   UNL     1       1.373   2.421  19.497  0.00  0.00    +0.000 A 
ATOM     15  C   UNL     1       0.708   3.289  20.364  0.00  0.00    +0.000 A 
ATOM     16  C   UNL     1       1.132   4.606  20.486  0.00  0.00    +0.000 A 
ATOM     17  C   UNL     1       2.239   5.043  19.761  0.00  0.00    +0.000 A 
ATOM     18  C   UNL     1       2.926   4.181  18.884  0.00  0.00    +0.000 A 
BRANCH  13  20
ATOM     19  C   UNL     1       3.964   1.065  18.410  0.00  0.00    +0.000 C 
ATOM     20  O   UNL     1       3.125   2.060  17.830  0.00  0.00    +0.000 OA
ENDBRANCH  13  20
ENDBRANCH   1  18
TORSDOF 2
ENDMDL
MODEL 5
REMARK VINA RESULT:      -7.5      1.380      1.411
REMARK  Name = 
REMARK  3 active torsions:
REMARK  status: ('A' for Active; 'I' for Inactive)
REMARK    1  A    between atoms: C_1  and  O_2
REMARK    2  A    between atoms: O_2  and  C_3
REMARK    3  A    between atoms: C_8  and  C_9
REMARK                            x       y       z     vdW  Elec       q    Type
REMARK                         _______ _______ _______ _____ _____    ______ ____
ROOT
ATOM      1  C   UNL     1       2.257   6.729  19.821  0.00  0.00    +0.000 A 
ATOM      2  C   UNL     1       2.294   7.254  18.590  0.00  0.00    +0.000 A 
ATOM      3  C   UNL     1       1.909   8.683  18.429  0.00  0.00    +0.000 A 
ATOM      4  O   UNL     1       2.136   9.280  17.386  0.00  0.00    +0.000 OA
ATOM      5  C   UNL     1       1.173   9.309  19.554  0.00  0.00    +0.000 A 
ATOM      6  C   UNL     1       0.437  10.480  19.362  0.00  0.00    +0.000 A 
ATOM      7  C   UNL     1      -0.346  10.972  20.407  0.00  0.00    +0.000 A 
ATOM      8  C   UNL     1      -0.355  10.323  21.644  0.00  0.00    +0.000 A 
ATOM      9  C   UNL     1       0.431   9.184  21.847  0.00  0.00    +0.000 A 
ATOM     10  C   UNL     1       1.175   8.655  20.795  0.00  0.00    +0.000 A 
ATOM     11  N   UNL     1       1.859   7.430  20.954  0.00  0.00    +0.000 N 
ATOM     12  H   UNL     1       2.609   7.491  21.643  0.00  0.00    +0.000 HD
ENDROOT
BRANCH   1  18
ATOM     13  C   UNL     1       3.549   4.523  19.805  0.00  0.00    +0.000 A 
ATOM     14  C   UNL     1       3.528   3.132  20.025  0.00  0.00    +0.000 A 
ATOM     15  C   UNL     1       2.344   2.477  20.365  0.00  0.00    +0.000 A 
ATOM     16  C   UNL     1       1.167   3.201  20.506  0.00  0.00    +0.000 A 
ATOM     17  C   UNL     1       1.184   4.583  20.332  0.00  0.00    +0.000 A 
ATOM     18  C   UNL     1       2.369   5.263  19.992  0.00  0.00    +0.000 A 
BRANCH  13  20
ATOM     19  C   UNL     1       5.429   4.604  18.377  0.00  0.00    +0.000 C 
ATOM     20  O   UNL     1       4.677   5.206  19.429  0.00  0.00    +0.000 OA
ENDBRANCH  13  20
ENDBRANCH   1  18
TORSDOF 2
ENDMDL
MODEL 6
REMARK VINA RESULT:      -7.4      3.670      5.180
REMARK  Name = 
REMARK  3 active torsions:
REMARK  status: ('A' for Active; 'I' for Inactive)
REMARK    1  A    between atoms: C_1  and  O_2
REMARK    2  A    between atoms: O_2  and  C_3
REMARK    3  A    between atoms: C_8  and  C_9
REMARK                            x       y       z     vdW  Elec       q    Type
REMARK                         _______ _______ _______ _____ _____    ______ ____
ROOT
ATOM      1  C   UNL     1       4.309   4.601  18.616  0.00  0.00    +0.000 A 
ATOM      2  C   UNL     1       3.884   5.324  17.572  0.00  0.00    +0.000 A 
ATOM      3  C   UNL     1       4.879   6.166  16.855  0.00  0.00    +0.000 A 
ATOM      4  O   UNL     1       4.613   6.667  15.771  0.00  0.00    +0.000 OA
ATOM      5  C   UNL     1       6.161   6.429  17.553  0.00  0.00    +0.000 A 
ATOM      6  C   UNL     1       6.979   7.493  17.168  0.00  0.00    +0.000 A 
ATOM      7  C   UNL     1       8.112   7.791  17.925  0.00  0.00    +0.000 A 
ATOM      8  C   UNL     1       8.447   7.002  19.029  0.00  0.00    +0.000 A 
ATOM      9  C   UNL     1       7.655   5.902  19.374  0.00  0.00    +0.000 A 
ATOM     10  C   UNL     1       6.493   5.629  18.656  0.00  0.00    +0.000 A 
ATOM     11  N   UNL     1       5.618   4.606  19.084  0.00  0.00    +0.000 N 
ATOM     12  H   UNL     1       6.044   3.681  19.024  0.00  0.00    +0.000 HD
ENDROOT
BRANCH   1  18
ATOM     13  C   UNL     1       3.544   2.790  20.251  0.00  0.00    +0.000 A 
ATOM     14  C   UNL     1       2.525   2.302  21.092  0.00  0.00    +0.000 A 
ATOM     15  C   UNL     1       1.282   2.934  21.156  0.00  0.00    +0.000 A 
ATOM     16  C   UNL     1       1.043   4.070  20.393  0.00  0.00    +0.000 A 
ATOM     17  C   UNL     1       2.057   4.586  19.590  0.00  0.00    +0.000 A 
ATOM     18  C   UNL     1       3.319   3.966  19.515  0.00  0.00    +0.000 A 
BRANCH  13  20
ATOM     19  C   UNL     1       5.064   1.202  21.114  0.00  0.00    +0.000 C 
ATOM     20  O   UNL     1       4.766   2.181  20.122  0.00  0.00    +0.000 OA
ENDBRANCH  13  20
ENDBRANCH   1  18
TORSDOF 2
ENDMDL
MODEL 7
REMARK VINA RESULT:      -7.4      1.330      1.879
REMARK  Name = 
REMARK  3 active torsions:
REMARK  status: ('A' for Active; 'I' for Inactive)
REMARK    1  A    between atoms: C_1  and  O_2
REMARK    2  A    between atoms: O_2  and  C_3
REMARK    3  A    between atoms: C_8  and  C_9
REMARK                            x       y       z     vdW  Elec       q    Type
REMARK                         _______ _______ _______ _____ _____    ______ ____
ROOT
ATOM      1  C   UNL     1       2.712   6.863  18.738  0.00  0.00    +0.000 A 
ATOM      2  C   UNL     1       2.512   7.786  17.789  0.00  0.00    +0.000 A 
ATOM      3  C   UNL     1       1.933   9.095  18.200  0.00  0.00    +0.000 A 
ATOM      4  O   UNL     1       1.936  10.049  17.435  0.00  0.00    +0.000 OA
ATOM      5  C   UNL     1       1.289   9.152  19.534  0.00  0.00    +0.000 A 
ATOM      6  C   UNL     1       0.393  10.175  19.851  0.00  0.00    +0.000 A 
ATOM      7  C   UNL     1      -0.291  10.130  21.066  0.00  0.00    +0.000 A 
ATOM      8  C   UNL     1      -0.047   9.096  21.972  0.00  0.00    +0.000 A 
ATOM      9  C   UNL     1       0.895   8.106  21.673  0.00  0.00    +0.000 A 
ATOM     10  C   UNL     1       1.545   8.113  20.442  0.00  0.00    +0.000 A 
ATOM     11  N   UNL     1       2.392   7.043  20.078  0.00  0.00    +0.000 N 
ATOM     12  H   UNL     1       3.217   6.982  20.675  0.00  0.00    +0.000 HD
ENDROOT
BRANCH   1  18
ATOM     13  C   UNL     1       2.317   4.337  18.772  0.00  0.00    +0.000 A 
ATOM     14  C   UNL     1       2.705   3.067  18.304  0.00  0.00    +0.000 A 
ATOM     15  C   UNL     1       3.819   2.917  17.476  0.00  0.00    +0.000 A 
ATOM     16  C   UNL     1       4.552   4.032  17.092  0.00  0.00    +0.000 A 
ATOM     17  C   UNL     1       4.152   5.298  17.513  0.00  0.00    +0.000 A 
ATOM     18  C   UNL     1       3.028   5.471  18.345  0.00  0.00    +0.000 A 
BRANCH  13  20
ATOM     19  C   UNL     1       1.151   3.593  20.687  0.00  0.00    +0.000 C 
ATOM     20  O   UNL     1       1.256   4.531  19.619  0.00  0.00    +0.000 OA
ENDBRANCH  13  20
ENDBRANCH   1  18
TORSDOF 2
ENDMDL
MODEL 8
REMARK VINA RESULT:      -7.3      2.941      6.275
REMARK  Name = 
REMARK  3 active torsions:
REMARK  status: ('A' for Active; 'I' for Inactive)
REMARK    1  A    between atoms: C_1  and  O_2
REMARK    2  A    between atoms: O_2  and  C_3
REMARK    3  A    between atoms: C_8  and  C_9
REMARK                            x       y       z     vdW  Elec       q    Type
REMARK                         _______ _______ _______ _____ _____    ______ ____
ROOT
ATOM      1  C   UNL     1       4.409   4.709  18.758  0.00  0.00    +0.000 A 
ATOM      2  C   UNL     1       5.658   4.666  19.239  0.00  0.00    +0.000 A 
ATOM      3  C   UNL     1       6.780   4.907  18.291  0.00  0.00    +0.000 A 
ATOM      4  O   UNL     1       7.915   5.105  18.699  0.00  0.00    +0.000 OA
ATOM      5  C   UNL     1       6.465   4.812  16.845  0.00  0.00    +0.000 A 
ATOM      6  C   UNL     1       7.481   4.629  15.904  0.00  0.00    +0.000 A 
ATOM      7  C   UNL     1       7.142   4.416  14.567  0.00  0.00    +0.000 A 
ATOM      8  C   UNL     1       5.802   4.432  14.171  0.00  0.00    +0.000 A 
ATOM      9  C   UNL     1       4.793   4.674  15.109  0.00  0.00    +0.000 A 
ATOM     10  C   UNL     1       5.118   4.836  16.454  0.00  0.00    +0.000 A 
ATOM     11  N   UNL     1       4.097   4.942  17.424  0.00  0.00    +0.000 N 
ATOM     12  H   UNL     1       3.540   5.789  17.309  0.00  0.00    +0.000 HD
ENDROOT
BRANCH   1  18
ATOM     13  C   UNL     1       2.075   4.898  19.785  0.00  0.00    +0.000 A 
ATOM     14  C   UNL     1       1.078   4.308  20.584  0.00  0.00    +0.000 A 
ATOM     15  C   UNL     1       1.302   3.094  21.234  0.00  0.00    +0.000 A 
ATOM     16  C   UNL     1       2.520   2.442  21.082  0.00  0.00    +0.000 A 
ATOM     17  C   UNL     1       3.498   2.995  20.259  0.00  0.00    +0.000 A 
ATOM     18  C   UNL     1       3.289   4.218  19.592  0.00  0.00    +0.000 A 
BRANCH  13  20
ATOM     19  C   UNL     1       2.112   7.251  19.992  0.00  0.00    +0.000 C 
ATOM     20  O   UNL     1       1.917   6.110  19.161  0.00  0.00    +0.000 OA
ENDBRANCH  13  20
ENDBRANCH   1  18
TORSDOF 2
ENDMDL
MODEL 9
REMARK VINA RESULT:      -7.3      3.539      6.129
REMARK  Name = 
REMARK  3 active torsions:
REMARK  status: ('A' for Active; 'I' for Inactive)
REMARK    1  A    between atoms: C_1  and  O_2
REMARK    2  A    between atoms: O_2  and  C_3
REMARK    3  A    between atoms: C_8  and  C_9
REMARK                            x       y       z     vdW  Elec       q    Type
REMARK                         _______ _______ _______ _____ _____    ______ ____
ROOT
ATOM      1  C   UNL     1       4.349   5.060  18.508  0.00  0.00    +0.000 A 
ATOM      2  C   UNL     1       5.538   5.457  18.980  0.00  0.00    +0.000 A 
ATOM      3  C   UNL     1       6.602   5.793  17.995  0.00  0.00    +0.000 A 
ATOM      4  O   UNL     1       7.621   6.371  18.346  0.00  0.00    +0.000 OA
ATOM      5  C   UNL     1       6.399   5.322  16.604  0.00  0.00    +0.000 A 
ATOM      6  C   UNL     1       7.474   5.233  15.716  0.00  0.00    +0.000 A 
ATOM      7  C   UNL     1       7.273   4.667  14.457  0.00  0.00    +0.000 A 
ATOM      8  C   UNL     1       6.000   4.237  14.075  0.00  0.00    +0.000 A 
ATOM      9  C   UNL     1       4.916   4.384  14.947  0.00  0.00    +0.000 A 
ATOM     10  C   UNL     1       5.117   4.899  16.225  0.00  0.00    +0.000 A 
ATOM     11  N   UNL     1       4.055   4.920  17.157  0.00  0.00    +0.000 N 
ATOM     12  H   UNL     1       3.299   5.542  16.869  0.00  0.00    +0.000 HD
ENDROOT
BRANCH   1  18
ATOM     13  C   UNL     1       3.281   3.099  19.753  0.00  0.00    +0.000 A 
ATOM     14  C   UNL     1       2.306   2.664  20.671  0.00  0.00    +0.000 A 
ATOM     15  C   UNL     1       1.383   3.557  21.217  0.00  0.00    +0.000 A 
ATOM     16  C   UNL     1       1.430   4.900  20.866  0.00  0.00    +0.000 A 
ATOM     17  C   UNL     1       2.417   5.350  19.992  0.00  0.00    +0.000 A 
ATOM     18  C   UNL     1       3.359   4.465  19.434  0.00  0.00    +0.000 A 
BRANCH  13  20
ATOM     19  C   UNL     1       3.640   1.392  18.161  0.00  0.00    +0.000 C 
ATOM     20  O   UNL     1       4.182   2.252  19.159  0.00  0.00    +0.000 OA
ENDBRANCH  13  20
ENDBRANCH   1  18
TORSDOF 2
ENDMDL
