MODEL 1
REMARK VINA RESULT:      -7.6      0.000      0.000
REMARK  Name = 
REMARK  6 active torsions:
REMARK  status: ('A' for Active; 'I' for Inactive)
REMARK    1  A    between atoms: C_1  and  O_2
REMARK    2  A    between atoms: O_2  and  C_3
REMARK    3  A    between atoms: C_9  and  N_10
REMARK    4  A    between atoms: N_10  and  S_11
REMARK    5  A    between atoms: S_11  and  C_14
REMARK    6  A    between atoms: C_20  and  C_21
REMARK                            x       y       z     vdW  Elec       q    Type
REMARK                         _______ _______ _______ _____ _____    ______ ____
ROOT
ATOM      1  N   UNL     1       5.572   3.987  17.865  0.00  0.00    +0.000 N 
ATOM      2  H   UNL     1       6.281   3.648  18.510  0.00  0.00    +0.000 HD
ENDROOT
BRANCH   1   9
ATOM      3  C   UNL     1       7.151   5.213  16.392  0.00  0.00    +0.000 A 
ATOM      4  N   UNL     1       7.653   5.496  15.162  0.00  0.00    +0.000 NA
ATOM      5  C   UNL     1       7.039   4.852  14.148  0.00  0.00    +0.000 A 
ATOM      6 CL   UNL     1       7.635   5.222  12.585  0.00  0.00    +0.000 Cl
ATOM      7  C   UNL     1       5.972   3.984  14.337  0.00  0.00    +0.000 A 
ATOM      8  N   UNL     1       5.462   3.706  15.568  0.00  0.00    +0.000 NA
ATOM      9  C   UNL     1       6.094   4.319  16.590  0.00  0.00    +0.000 A 
BRANCH   3  11
ATOM     10  C   UNL     1       7.530   7.306  17.317  0.00  0.00    +0.000 C 
ATOM     11  O   UNL     1       7.650   5.896  17.485  0.00  0.00    +0.000 OA
ENDBRANCH   3  11
ENDBRANCH   1   9
BRANCH   1  12
ATOM     12  S   UNL     1       4.665   5.200  18.606  0.00  0.00    +0.000 S 
ATOM     13  O   UNL     1       5.476   5.724  19.680  0.00  0.00    +0.000 OA
ATOM     14  O   UNL     1       4.121   6.084  17.596  0.00  0.00    +0.000 OA
BRANCH  12  15
ATOM     15  C   UNL     1       3.300   4.321  19.364  0.00  0.00    +0.000 A 
ATOM     16  C   UNL     1       3.158   4.468  20.755  0.00  0.00    +0.000 A 
ATOM     17  C   UNL     1       2.144   3.803  21.436  0.00  0.00    +0.000 A 
ATOM     18  C   UNL     1       1.264   2.995  20.727  0.00  0.00    +0.000 A 
ATOM     19  C   UNL     1       1.400   2.837  19.341  0.00  0.00    +0.000 A 
ATOM     20 CL   UNL     1       0.226   1.823  18.573  0.00  0.00    +0.000 Cl
ATOM     21  C   UNL     1       2.434   3.477  18.627  0.00  0.00    +0.000 A 
ATOM     22  C   UNL     1       2.584   3.291  17.139  0.00  0.00    +0.000 C 
ENDBRANCH  12  15
ENDBRANCH   1  12
TORSDOF 4
ENDMDL
MODEL 2
REMARK VINA RESULT:      -7.1      1.943      2.256
REMARK  Name = 
REMARK  6 active torsions:
REMARK  status: ('A' for Active; 'I' for Inactive)
REMARK    1  A    between atoms: C_1  and  O_2
REMARK    2  A    between atoms: O_2  and  C_3
REMARK    3  A    between atoms: C_9  and  N_10
REMARK    4  A    between atoms: N_10  and  S_11
REMARK    5  A    between atoms: S_11  and  C_14
REMARK    6  A    between atoms: C_20  and  C_21
REMARK                            x       y       z     vdW  Elec       q    Type
REMARK                         _______ _______ _______ _____ _____    ______ ____
ROOT
ATOM      1  N   UNL     1       5.504   3.748  17.769  0.00  0.00    +0.000 N 
ATOM      2  H   UNL     1       5.540   4.431  18.521  0.00  0.00    +0.000 HD
ENDROOT
BRANCH   1   9
ATOM      3  C   UNL     1       6.979   5.300  16.510  0.00  0.00    +0.000 A 
ATOM      4  N   UNL     1       7.569   5.703  15.355  0.00  0.00    +0.000 NA
ATOM      5  C   UNL     1       7.239   4.968  14.274  0.00  0.00    +0.000 A 
ATOM      6 CL   UNL     1       7.947   5.482  12.801  0.00  0.00    +0.000 Cl
ATOM      7  C   UNL     1       6.357   3.896  14.326  0.00  0.00    +0.000 A 
ATOM      8  N   UNL     1       5.758   3.495  15.481  0.00  0.00    +0.000 NA
ATOM      9  C   UNL     1       6.110   4.205  16.572  0.00  0.00    +0.000 A 
BRANCH   3  11
ATOM     10  C   UNL     1       7.334   7.432  17.351  0.00  0.00    +0.000 C 
ATOM     11  O   UNL     1       7.179   6.048  17.654  0.00  0.00    +0.000 OA
ENDBRANCH   3  11
ENDBRANCH   1   9
BRANCH   1  12
ATOM     12  S   UNL     1       3.928   3.173  17.601  0.00  0.00    +0.000 S 
ATOM     13  O   UNL     1       3.354   3.867  16.472  0.00  0.00    +0.000 OA
ATOM     14  O   UNL     1       3.933   1.725  17.650  0.00  0.00    +0.000 OA
BRANCH  12  15
ATOM     15  C   UNL     1       3.087   3.772  19.065  0.00  0.00    +0.000 A 
ATOM     16  C   UNL     1       2.778   2.812  20.045  0.00  0.00    +0.000 A 
ATOM     17  C   UNL     1       2.101   3.178  21.203  0.00  0.00    +0.000 A 
ATOM     18  C   UNL     1       1.740   4.506  21.391  0.00  0.00    +0.000 A 
ATOM     19  C   UNL     1       2.040   5.469  20.419  0.00  0.00    +0.000 A 
ATOM     20 CL   UNL     1       1.557   7.092  20.783  0.00  0.00    +0.000 Cl
ATOM     21  C   UNL     1       2.701   5.125  19.221  0.00  0.00    +0.000 A 
ATOM     22  C   UNL     1       3.005   6.164  18.174  0.00  0.00    +0.000 C 
ENDBRANCH  12  15
ENDBRANCH   1  12
TORSDOF 4
ENDMDL
MODEL 3
REMARK VINA RESULT:      -6.9      1.012      1.636
REMARK  Name = 
REMARK  6 active torsions:
REMARK  status: ('A' for Active; 'I' for Inactive)
REMARK    1  A    between atoms: C_1  and  O_2
REMARK    2  A    between atoms: O_2  and  C_3
REMARK    3  A    between atoms: C_9  and  N_10
REMARK    4  A    between atoms: N_10  and  S_11
REMARK    5  A    between atoms: S_11  and  C_14
REMARK    6  A    between atoms: C_20  and  C_21
REMARK                            x       y       z     vdW  Elec       q    Type
REMARK                         _______ _______ _______ _____ _____    ______ ____
ROOT
ATOM      1  N   UNL     1       6.221   4.086  17.728  0.00  0.00    +0.000 N 
ATOM      2  H   UNL     1       7.023   4.129  18.351  0.00  0.00    +0.000 HD
ENDROOT
BRANCH   1   9
ATOM      3  C   UNL     1       7.464   5.359  15.995  0.00  0.00    +0.000 A 
ATOM      4  N   UNL     1       7.782   5.599  14.697  0.00  0.00    +0.000 NA
ATOM      5  C   UNL     1       7.134   4.817  13.810  0.00  0.00    +0.000 A 
ATOM      6 CL   UNL     1       7.497   5.128  12.165  0.00  0.00    +0.000 Cl
ATOM      7  C   UNL     1       6.206   3.855  14.185  0.00  0.00    +0.000 A 
ATOM      8  N   UNL     1       5.878   3.618  15.485  0.00  0.00    +0.000 NA
ATOM      9  C   UNL     1       6.548   4.373  16.379  0.00  0.00    +0.000 A 
BRANCH   3  11
ATOM     10  C   UNL     1       7.387   7.459  16.977  0.00  0.00    +0.000 C 
ATOM     11  O   UNL     1       8.003   6.174  16.972  0.00  0.00    +0.000 OA
ENDBRANCH   3  11
ENDBRANCH   1   9
BRANCH   1  12
ATOM     12  S   UNL     1       4.955   4.997  18.369  0.00  0.00    +0.000 S 
ATOM     13  O   UNL     1       5.410   5.493  19.647  0.00  0.00    +0.000 OA
ATOM     14  O   UNL     1       4.457   5.910  17.360  0.00  0.00    +0.000 OA
BRANCH  12  15
ATOM     15  C   UNL     1       3.675   3.790  18.702  0.00  0.00    +0.000 A 
ATOM     16  C   UNL     1       3.834   2.528  18.103  0.00  0.00    +0.000 A 
ATOM     17  C   UNL     1       2.878   1.536  18.281  0.00  0.00    +0.000 A 
ATOM     18  C   UNL     1       1.762   1.797  19.067  0.00  0.00    +0.000 A 
ATOM     19  C   UNL     1       1.591   3.053  19.665  0.00  0.00    +0.000 A 
ATOM     20 CL   UNL     1       0.172   3.244  20.639  0.00  0.00    +0.000 Cl
ATOM     21  C   UNL     1       2.530   4.089  19.481  0.00  0.00    +0.000 A 
ATOM     22  C   UNL     1       2.331   5.442  20.114  0.00  0.00    +0.000 C 
ENDBRANCH  12  15
ENDBRANCH   1  12
TORSDOF 4
ENDMDL
MODEL 4
REMARK VINA RESULT:      -6.9      3.296      6.541
REMARK  Name = 
REMARK  6 active torsions:
REMARK  status: ('A' for Active; 'I' for Inactive)
REMARK    1  A    between atoms: C_1  and  O_2
REMARK    2  A    between atoms: O_2  and  C_3
REMARK    3  A    between atoms: C_9  and  N_10
REMARK    4  A    between atoms: N_10  and  S_11
REMARK    5  A    between atoms: S_11  and  C_14
REMARK    6  A    between atoms: C_20  and  C_21
REMARK                            x       y       z     vdW  Elec       q    Type
REMARK                         _______ _______ _______ _____ _____    ______ ____
ROOT
ATOM      1  N   UNL     1       2.443   3.807  17.964  0.00  0.00    +0.000 N 
ATOM      2  H   UNL     1       2.341   4.055  16.983  0.00  0.00    +0.000 HD
ENDROOT
BRANCH   1   9
ATOM      3  C   UNL     1       1.528   4.741  20.075  0.00  0.00    +0.000 A 
ATOM      4  N   UNL     1       1.301   5.786  20.912  0.00  0.00    +0.000 NA
ATOM      5  C   UNL     1       1.737   6.976  20.449  0.00  0.00    +0.000 A 
ATOM      6 CL   UNL     1       1.429   8.312  21.476  0.00  0.00    +0.000 Cl
ATOM      7  C   UNL     1       2.352   7.129  19.214  0.00  0.00    +0.000 A 
ATOM      8  N   UNL     1       2.572   6.084  18.369  0.00  0.00    +0.000 NA
ATOM      9  C   UNL     1       2.170   4.886  18.841  0.00  0.00    +0.000 A 
BRANCH   3  11
ATOM     10  C   UNL     1       1.597   3.030  21.640  0.00  0.00    +0.000 C 
ATOM     11  O   UNL     1       1.032   3.497  20.418  0.00  0.00    +0.000 OA
ENDBRANCH   3  11
ENDBRANCH   1   9
BRANCH   1  12
ATOM     12  S   UNL     1       3.927   3.044  18.204  0.00  0.00    +0.000 S 
ATOM     13  O   UNL     1       4.268   3.235  19.595  0.00  0.00    +0.000 OA
ATOM     14  O   UNL     1       3.886   1.713  17.633  0.00  0.00    +0.000 OA
BRANCH  12  15
ATOM     15  C   UNL     1       5.080   4.022  17.244  0.00  0.00    +0.000 A 
ATOM     16  C   UNL     1       5.177   3.709  15.876  0.00  0.00    +0.000 A 
ATOM     17  C   UNL     1       6.065   4.396  15.056  0.00  0.00    +0.000 A 
ATOM     18  C   UNL     1       6.853   5.403  15.598  0.00  0.00    +0.000 A 
ATOM     19  C   UNL     1       6.768   5.720  16.960  0.00  0.00    +0.000 A 
ATOM     20 CL   UNL     1       7.785   7.011  17.505  0.00  0.00    +0.000 Cl
ATOM     21  C   UNL     1       5.897   5.024  17.823  0.00  0.00    +0.000 A 
ATOM     22  C   UNL     1       5.822   5.359  19.290  0.00  0.00    +0.000 C 
ENDBRANCH  12  15
ENDBRANCH   1  12
TORSDOF 4
ENDMDL
MODEL 5
REMARK VINA RESULT:      -6.8      2.400      3.080
REMARK  Name = 
REMARK  6 active torsions:
REMARK  status: ('A' for Active; 'I' for Inactive)
REMARK    1  A    between atoms: C_1  and  O_2
REMARK    2  A    between atoms: O_2  and  C_3
REMARK    3  A    between atoms: C_9  and  N_10
REMARK    4  A    between atoms: N_10  and  S_11
REMARK    5  A    between atoms: S_11  and  C_14
REMARK    6  A    between atoms: C_20  and  C_21
REMARK                            x       y       z     vdW  Elec       q    Type
REMARK                         _______ _______ _______ _____ _____    ______ ____
ROOT
ATOM      1  N   UNL     1       5.575   4.067  18.311  0.00  0.00    +0.000 N 
ATOM      2  H   UNL     1       5.852   4.716  19.042  0.00  0.00    +0.000 HD
ENDROOT
BRANCH   1   9
ATOM      3  C   UNL     1       6.980   5.470  16.820  0.00  0.00    +0.000 A 
ATOM      4  N   UNL     1       7.503   5.750  15.599  0.00  0.00    +0.000 NA
ATOM      5  C   UNL     1       7.106   4.915  14.617  0.00  0.00    +0.000 A 
ATOM      6 CL   UNL     1       7.728   5.273  13.062  0.00  0.00    +0.000 Cl
ATOM      7  C   UNL     1       6.224   3.863  14.827  0.00  0.00    +0.000 A 
ATOM      8  N   UNL     1       5.691   3.586  16.049  0.00  0.00    +0.000 NA
ATOM      9  C   UNL     1       6.111   4.396  17.042  0.00  0.00    +0.000 A 
BRANCH   3  11
ATOM     10  C   UNL     1       7.419   7.667  17.419  0.00  0.00    +0.000 C 
ATOM     11  O   UNL     1       7.251   6.326  17.870  0.00  0.00    +0.000 OA
ENDBRANCH   3  11
ENDBRANCH   1   9
BRANCH   1  12
ATOM     12  S   UNL     1       3.903   3.851  18.349  0.00  0.00    +0.000 S 
ATOM     13  O   UNL     1       3.510   3.435  17.023  0.00  0.00    +0.000 OA
ATOM     14  O   UNL     1       3.543   3.057  19.506  0.00  0.00    +0.000 OA
BRANCH  12  15
ATOM     15  C   UNL     1       3.256   5.504  18.591  0.00  0.00    +0.000 A 
ATOM     16  C   UNL     1       3.541   6.440  17.581  0.00  0.00    +0.000 A 
ATOM     17  C   UNL     1       3.104   7.755  17.694  0.00  0.00    +0.000 A 
ATOM     18  C   UNL     1       2.374   8.137  18.812  0.00  0.00    +0.000 A 
ATOM     19  C   UNL     1       2.089   7.214  19.826  0.00  0.00    +0.000 A 
ATOM     20 CL   UNL     1       1.151   7.809  21.154  0.00  0.00    +0.000 Cl
ATOM     21  C   UNL     1       2.540   5.880  19.754  0.00  0.00    +0.000 A 
ATOM     22  C   UNL     1       2.244   4.896  20.856  0.00  0.00    +0.000 C 
ENDBRANCH  12  15
ENDBRANCH   1  12
TORSDOF 4
ENDMDL
MODEL 6
REMARK VINA RESULT:      -6.7      2.908      3.900
REMARK  Name = 
REMARK  6 active torsions:
REMARK  status: ('A' for Active; 'I' for Inactive)
REMARK    1  A    between atoms: C_1  and  O_2
REMARK    2  A    between atoms: O_2  and  C_3
REMARK    3  A    between atoms: C_9  and  N_10
REMARK    4  A    between atoms: N_10  and  S_11
REMARK    5  A    between atoms: S_11  and  C_14
REMARK    6  A    between atoms: C_20  and  C_21
REMARK                            x       y       z     vdW  Elec       q    Type
REMARK                         _______ _______ _______ _____ _____    ______ ____
ROOT
ATOM      1  N   UNL     1       5.047   3.448  17.438  0.00  0.00    +0.000 N 
ATOM      2  H   UNL     1       5.537   2.559  17.388  0.00  0.00    +0.000 HD
ENDROOT
BRANCH   1   9
ATOM      3  C   UNL     1       6.288   5.456  16.664  0.00  0.00    +0.000 A 
ATOM      4  N   UNL     1       7.096   6.519  16.906  0.00  0.00    +0.000 NA
ATOM      5  C   UNL     1       7.517   6.620  18.184  0.00  0.00    +0.000 A 
ATOM      6 CL   UNL     1       8.566   7.936  18.502  0.00  0.00    +0.000 Cl
ATOM      7  C   UNL     1       7.167   5.708  19.171  0.00  0.00    +0.000 A 
ATOM      8  N   UNL     1       6.364   4.637  18.928  0.00  0.00    +0.000 NA
ATOM      9  C   UNL     1       5.912   4.549  17.661  0.00  0.00    +0.000 A 
BRANCH   3  11
ATOM     10  C   UNL     1       6.979   4.814  14.545  0.00  0.00    +0.000 C 
ATOM     11  O   UNL     1       5.884   5.212  15.365  0.00  0.00    +0.000 OA
ENDBRANCH   3  11
ENDBRANCH   1   9
BRANCH   1  12
ATOM     12  S   UNL     1       3.756   3.322  18.515  0.00  0.00    +0.000 S 
ATOM     13  O   UNL     1       2.724   2.574  17.836  0.00  0.00    +0.000 OA
ATOM     14  O   UNL     1       4.244   2.893  19.809  0.00  0.00    +0.000 OA
BRANCH  12  15
ATOM     15  C   UNL     1       3.160   5.003  18.679  0.00  0.00    +0.000 A 
ATOM     16  C   UNL     1       3.408   5.863  17.593  0.00  0.00    +0.000 A 
ATOM     17  C   UNL     1       3.007   7.193  17.640  0.00  0.00    +0.000 A 
ATOM     18  C   UNL     1       2.349   7.668  18.768  0.00  0.00    +0.000 A 
ATOM     19  C   UNL     1       2.102   6.822  19.857  0.00  0.00    +0.000 A 
ATOM     20 CL   UNL     1       1.254   7.528  21.191  0.00  0.00    +0.000 Cl
ATOM     21  C   UNL     1       2.520   5.474  19.851  0.00  0.00    +0.000 A 
ATOM     22  C   UNL     1       2.264   4.575  21.032  0.00  0.00    +0.000 C 
ENDBRANCH  12  15
ENDBRANCH   1  12
TORSDOF 4
ENDMDL
MODEL 7
REMARK VINA RESULT:      -6.6      2.483      3.257
REMARK  Name = 
REMARK  6 active torsions:
REMARK  status: ('A' for Active; 'I' for Inactive)
REMARK    1  A    between atoms: C_1  and  O_2
REMARK    2  A    between atoms: O_2  and  C_3
REMARK    3  A    between atoms: C_9  and  N_10
REMARK    4  A    between atoms: N_10  and  S_11
REMARK    5  A    between atoms: S_11  and  C_14
REMARK    6  A    between atoms: C_20  and  C_21
REMARK                            x       y       z     vdW  Elec       q    Type
REMARK                         _______ _______ _______ _____ _____    ______ ____
ROOT
ATOM      1  N   UNL     1       5.665   3.236  18.019  0.00  0.00    +0.000 N 
ATOM      2  H   UNL     1       5.810   2.828  18.938  0.00  0.00    +0.000 HD
ENDROOT
BRANCH   1   9
ATOM      3  C   UNL     1       6.857   4.951  16.675  0.00  0.00    +0.000 A 
ATOM      4  N   UNL     1       7.419   6.181  16.547  0.00  0.00    +0.000 NA
ATOM      5  C   UNL     1       7.385   6.928  17.670  0.00  0.00    +0.000 A 
ATOM      6 CL   UNL     1       8.120   8.470  17.538  0.00  0.00    +0.000 Cl
ATOM      7  C   UNL     1       6.838   6.479  18.863  0.00  0.00    +0.000 A 
ATOM      8  N   UNL     1       6.282   5.243  18.997  0.00  0.00    +0.000 NA
ATOM      9  C   UNL     1       6.281   4.504  17.869  0.00  0.00    +0.000 A 
BRANCH   3  11
ATOM     10  C   UNL     1       6.496   4.690  14.399  0.00  0.00    +0.000 C 
ATOM     11  O   UNL     1       6.929   4.075  15.609  0.00  0.00    +0.000 OA
ENDBRANCH   3  11
ENDBRANCH   1   9
BRANCH   1  12
ATOM     12  S   UNL     1       4.024   3.186  17.630  0.00  0.00    +0.000 S 
ATOM     13  O   UNL     1       3.811   4.188  16.612  0.00  0.00    +0.000 OA
ATOM     14  O   UNL     1       3.621   1.812  17.407  0.00  0.00    +0.000 OA
BRANCH  12  15
ATOM     15  C   UNL     1       3.207   3.768  19.114  0.00  0.00    +0.000 A 
ATOM     16  C   UNL     1       3.028   2.822  20.140  0.00  0.00    +0.000 A 
ATOM     17  C   UNL     1       2.380   3.174  21.319  0.00  0.00    +0.000 A 
ATOM     18  C   UNL     1       1.916   4.473  21.481  0.00  0.00    +0.000 A 
ATOM     19  C   UNL     1       2.086   5.421  20.463  0.00  0.00    +0.000 A 
ATOM     20 CL   UNL     1       1.485   7.011  20.798  0.00  0.00    +0.000 Cl
ATOM     21  C   UNL     1       2.715   5.089  19.246  0.00  0.00    +0.000 A 
ATOM     22  C   UNL     1       2.880   6.110  18.150  0.00  0.00    +0.000 C 
ENDBRANCH  12  15
ENDBRANCH   1  12
TORSDOF 4
ENDMDL
MODEL 8
REMARK VINA RESULT:      -6.6      1.605      1.929
REMARK  Name = 
REMARK  6 active torsions:
REMARK  status: ('A' for Active; 'I' for Inactive)
REMARK    1  A    between atoms: C_1  and  O_2
REMARK    2  A    between atoms: O_2  and  C_3
REMARK    3  A    between atoms: C_9  and  N_10
REMARK    4  A    between atoms: N_10  and  S_11
REMARK    5  A    between atoms: S_11  and  C_14
REMARK    6  A    between atoms: C_20  and  C_21
REMARK                            x       y       z     vdW  Elec       q    Type
REMARK                         _______ _______ _______ _____ _____    ______ ____
ROOT
ATOM      1  N   UNL     1       5.279   5.953  17.631  0.00  0.00    +0.000 N 
ATOM      2  H   UNL     1       4.313   6.262  17.569  0.00  0.00    +0.000 HD
ENDROOT
BRANCH   1   9
ATOM      3  C   UNL     1       7.159   5.814  16.013  0.00  0.00    +0.000 A 
ATOM      4  N   UNL     1       7.669   5.429  14.815  0.00  0.00    +0.000 NA
ATOM      5  C   UNL     1       6.782   4.821  14.001  0.00  0.00    +0.000 A 
ATOM      6 CL   UNL     1       7.399   4.359  12.471  0.00  0.00    +0.000 Cl
ATOM      7  C   UNL     1       5.454   4.615  14.347  0.00  0.00    +0.000 A 
ATOM      8  N   UNL     1       4.938   5.007  15.544  0.00  0.00    +0.000 NA
ATOM      9  C   UNL     1       5.827   5.586  16.376  0.00  0.00    +0.000 A 
BRANCH   3  11
ATOM     10  C   UNL     1       7.404   7.808  17.172  0.00  0.00    +0.000 C 
ATOM     11  O   UNL     1       7.964   6.532  16.877  0.00  0.00    +0.000 OA
ENDBRANCH   3  11
ENDBRANCH   1   9
BRANCH   1  12
ATOM     12  S   UNL     1       5.426   4.791  18.844  0.00  0.00    +0.000 S 
ATOM     13  O   UNL     1       5.579   3.518  18.180  0.00  0.00    +0.000 OA
ATOM     14  O   UNL     1       6.399   5.232  19.822  0.00  0.00    +0.000 OA
BRANCH  12  15
ATOM     15  C   UNL     1       3.817   4.779  19.632  0.00  0.00    +0.000 A 
ATOM     16  C   UNL     1       3.077   5.973  19.560  0.00  0.00    +0.000 A 
ATOM     17  C   UNL     1       1.829   6.069  20.165  0.00  0.00    +0.000 A 
ATOM     18  C   UNL     1       1.312   4.968  20.836  0.00  0.00    +0.000 A 
ATOM     19  C   UNL     1       2.042   3.776  20.918  0.00  0.00    +0.000 A 
ATOM     20 CL   UNL     1       1.276   2.472  21.762  0.00  0.00    +0.000 Cl
ATOM     21  C   UNL     1       3.322   3.656  20.338  0.00  0.00    +0.000 A 
ATOM     22  C   UNL     1       4.108   2.375  20.443  0.00  0.00    +0.000 C 
ENDBRANCH  12  15
ENDBRANCH   1  12
TORSDOF 4
ENDMDL
MODEL 9
REMARK VINA RESULT:      -6.5      1.888      2.240
REMARK  Name = 
REMARK  6 active torsions:
REMARK  status: ('A' for Active; 'I' for Inactive)
REMARK    1  A    between atoms: C_1  and  O_2
REMARK    2  A    between atoms: O_2  and  C_3
REMARK    3  A    between atoms: C_9  and  N_10
REMARK    4  A    between atoms: N_10  and  S_11
REMARK    5  A    between atoms: S_11  and  C_14
REMARK    6  A    between atoms: C_20  and  C_21
REMARK                            x       y       z     vdW  Elec       q    Type
REMARK                         _______ _______ _______ _____ _____    ______ ____
ROOT
ATOM      1  N   UNL     1       4.189   4.605  16.834  0.00  0.00    +0.000 N 
ATOM      2  H   UNL     1       3.308   4.389  16.376  0.00  0.00    +0.000 HD
ENDROOT
BRANCH   1   9
ATOM      3  C   UNL     1       6.307   5.694  16.129  0.00  0.00    +0.000 A 
ATOM      4  N   UNL     1       7.336   5.836  15.255  0.00  0.00    +0.000 NA
ATOM      5  C   UNL     1       7.256   5.044  14.166  0.00  0.00    +0.000 A 
ATOM      6 CL   UNL     1       8.527   5.234  13.034  0.00  0.00    +0.000 Cl
ATOM      7  C   UNL     1       6.204   4.165  13.944  0.00  0.00    +0.000 A 
ATOM      8  N   UNL     1       5.167   4.027  14.815  0.00  0.00    +0.000 NA
ATOM      9  C   UNL     1       5.259   4.791  15.923  0.00  0.00    +0.000 A 
BRANCH   3  11
ATOM     10  C   UNL     1       7.491   7.195  17.442  0.00  0.00    +0.000 C 
ATOM     11  O   UNL     1       6.249   6.530  17.228  0.00  0.00    +0.000 OA
ENDBRANCH   3  11
ENDBRANCH   1   9
BRANCH   1  12
ATOM     12  S   UNL     1       4.479   3.485  18.061  0.00  0.00    +0.000 S 
ATOM     13  O   UNL     1       4.277   2.177  17.482  0.00  0.00    +0.000 OA
ATOM     14  O   UNL     1       5.723   3.809  18.728  0.00  0.00    +0.000 OA
BRANCH  12  15
ATOM     15  C   UNL     1       3.142   3.755  19.221  0.00  0.00    +0.000 A 
ATOM     16  C   UNL     1       2.471   2.606  19.680  0.00  0.00    +0.000 A 
ATOM     17  C   UNL     1       1.402   2.718  20.561  0.00  0.00    +0.000 A 
ATOM     18  C   UNL     1       1.005   3.976  20.996  0.00  0.00    +0.000 A 
ATOM     19  C   UNL     1       1.663   5.127  20.542  0.00  0.00    +0.000 A 
ATOM     20 CL   UNL     1       1.088   6.632  21.176  0.00  0.00    +0.000 Cl
ATOM     21  C   UNL     1       2.733   5.049  19.626  0.00  0.00    +0.000 A 
ATOM     22  C   UNL     1       3.426   6.291  19.130  0.00  0.00    +0.000 C 
ENDBRANCH  12  15
ENDBRANCH   1  12
TORSDOF 4
ENDMDL
