MODEL 1
REMARK VINA RESULT:      -7.9      0.000      0.000
REMARK  Name = 
REMARK  4 active torsions:
REMARK  status: ('A' for Active; 'I' for Inactive)
REMARK    1  A    between atoms: N_3  and  C_4
REMARK    2  A    between atoms: C_4  and  C_5
REMARK    3  A    between atoms: N_10  and  C_11
REMARK    4  A    between atoms: C_11  and  C_12
REMARK                            x       y       z     vdW  Elec       q    Type
REMARK                         _______ _______ _______ _____ _____    ______ ____
ROOT
ATOM      1  O   UNL     1       5.642   6.008  15.534  0.00  0.00    +0.000 OA
ATOM      2  C   UNL     1       6.731   5.494  15.748  0.00  0.00    +0.000 C 
ATOM      3  N   UNL     1       7.563   5.019  14.773  0.00  0.00    +0.000 N 
ATOM      4  N   UNL     1       7.251   5.295  16.997  0.00  0.00    +0.000 N 
ATOM      5  H   UNL     1       8.248   4.331  15.053  0.00  0.00    +0.000 HD
ATOM      6  H   UNL     1       8.257   5.207  17.070  0.00  0.00    +0.000 HD
ENDROOT
BRANCH   3   7
ATOM      7  C   UNL     1       7.138   4.947  13.383  0.00  0.00    +0.000 C 
BRANCH   7   8
ATOM      8  C   UNL     1       6.372   3.657  13.060  0.00  0.00    +0.000 C 
ATOM      9  C   UNL     1       6.827   2.899  11.819  0.00  0.00    +0.000 C 
ATOM     10  C   UNL     1       5.563   2.195  11.399  0.00  0.00    +0.000 C 
ATOM     11  C   UNL     1       4.503   3.222  11.730  0.00  0.00    +0.000 C 
ATOM     12  O   UNL     1       4.970   3.956  12.869  0.00  0.00    +0.000 OA
ENDBRANCH   7   8
ENDBRANCH   3   7
BRANCH   4  13
ATOM     13  C   UNL     1       6.566   5.749  18.195  0.00  0.00    +0.000 C 
BRANCH  13  14
ATOM     14  C   UNL     1       5.338   4.894  18.538  0.00  0.00    +0.000 C 
ATOM     15  C   UNL     1       4.247   5.691  19.260  0.00  0.00    +0.000 C 
ATOM     16  C   UNL     1       3.144   4.780  19.738  0.00  0.00    +0.000 A 
ATOM     17  C   UNL     1       1.897   5.307  20.091  0.00  0.00    +0.000 A 
ATOM     18  C   UNL     1       0.893   4.471  20.578  0.00  0.00    +0.000 A 
ATOM     19  C   UNL     1       1.130   3.105  20.718  0.00  0.00    +0.000 A 
ATOM     20  C   UNL     1       2.375   2.573  20.379  0.00  0.00    +0.000 A 
ATOM     21  C   UNL     1       3.396   3.406  19.902  0.00  0.00    +0.000 A 
ATOM     22  C   UNL     1       4.732   2.820  19.518  0.00  0.00    +0.000 C 
ATOM     23  O   UNL     1       5.766   3.802  19.373  0.00  0.00    +0.000 OA
ENDBRANCH  13  14
ENDBRANCH   4  13
TORSDOF 4
ENDMDL
MODEL 2
REMARK VINA RESULT:      -7.9      4.201      6.537
REMARK  Name = 
REMARK  4 active torsions:
REMARK  status: ('A' for Active; 'I' for Inactive)
REMARK    1  A    between atoms: N_3  and  C_4
REMARK    2  A    between atoms: C_4  and  C_5
REMARK    3  A    between atoms: N_10  and  C_11
REMARK    4  A    between atoms: C_11  and  C_12
REMARK                            x       y       z     vdW  Elec       q    Type
REMARK                         _______ _______ _______ _____ _____    ______ ____
ROOT
ATOM      1  O   UNL     1       8.307   7.001  18.647  0.00  0.00    +0.000 OA
ATOM      2  C   UNL     1       7.828   7.703  17.767  0.00  0.00    +0.000 C 
ATOM      3  N   UNL     1       8.006   9.056  17.679  0.00  0.00    +0.000 N 
ATOM      4  N   UNL     1       7.021   7.233  16.769  0.00  0.00    +0.000 N 
ATOM      5  H   UNL     1       7.320   9.572  17.147  0.00  0.00    +0.000 HD
ATOM      6  H   UNL     1       6.970   7.780  15.919  0.00  0.00    +0.000 HD
ENDROOT
BRANCH   3   7
ATOM      7  C   UNL     1       8.668   9.804  18.737  0.00  0.00    +0.000 C 
BRANCH   7   8
ATOM      8  C   UNL     1       9.621  10.880  18.199  0.00  0.00    +0.000 C 
ATOM      9  C   UNL     1      10.647  11.421  19.185  0.00  0.00    +0.000 C 
ATOM     10  C   UNL     1      10.892  12.811  18.654  0.00  0.00    +0.000 C 
ATOM     11  C   UNL     1       9.515  13.212  18.172  0.00  0.00    +0.000 C 
ATOM     12  O   UNL     1       8.859  12.017  17.731  0.00  0.00    +0.000 OA
ENDBRANCH   7   8
ENDBRANCH   3   7
BRANCH   4  13
ATOM     13  C   UNL     1       6.714   5.819  16.631  0.00  0.00    +0.000 C 
BRANCH  13  14
ATOM     14  C   UNL     1       5.449   5.407  17.396  0.00  0.00    +0.000 C 
ATOM     15  C   UNL     1       4.973   3.997  17.035  0.00  0.00    +0.000 C 
ATOM     16  C   UNL     1       3.636   3.703  17.666  0.00  0.00    +0.000 A 
ATOM     17  C   UNL     1       3.183   2.384  17.779  0.00  0.00    +0.000 A 
ATOM     18  C   UNL     1       1.926   2.115  18.319  0.00  0.00    +0.000 A 
ATOM     19  C   UNL     1       1.114   3.164  18.747  0.00  0.00    +0.000 A 
ATOM     20  C   UNL     1       1.553   4.483  18.628  0.00  0.00    +0.000 A 
ATOM     21  C   UNL     1       2.809   4.765  18.073  0.00  0.00    +0.000 A 
ATOM     22  C   UNL     1       3.284   6.193  17.968  0.00  0.00    +0.000 C 
ATOM     23  O   UNL     1       4.409   6.357  17.094  0.00  0.00    +0.000 OA
ENDBRANCH  13  14
ENDBRANCH   4  13
TORSDOF 4
ENDMDL
MODEL 3
REMARK VINA RESULT:      -7.8      4.370      6.758
REMARK  Name = 
REMARK  4 active torsions:
REMARK  status: ('A' for Active; 'I' for Inactive)
REMARK    1  A    between atoms: N_3  and  C_4
REMARK    2  A    between atoms: C_4  and  C_5
REMARK    3  A    between atoms: N_10  and  C_11
REMARK    4  A    between atoms: C_11  and  C_12
REMARK                            x       y       z     vdW  Elec       q    Type
REMARK                         _______ _______ _______ _____ _____    ______ ____
ROOT
ATOM      1  O   UNL     1       8.416   7.017  18.867  0.00  0.00    +0.000 OA
ATOM      2  C   UNL     1       8.071   7.831  18.022  0.00  0.00    +0.000 C 
ATOM      3  N   UNL     1       8.335   9.171  18.091  0.00  0.00    +0.000 N 
ATOM      4  N   UNL     1       7.345   7.516  16.907  0.00  0.00    +0.000 N 
ATOM      5  H   UNL     1       7.738   9.781  17.551  0.00  0.00    +0.000 HD
ATOM      6  H   UNL     1       7.414   8.145  16.117  0.00  0.00    +0.000 HD
ENDROOT
BRANCH   3   7
ATOM      7  C   UNL     1       8.927   9.766  19.280  0.00  0.00    +0.000 C 
BRANCH   7   8
ATOM      8  C   UNL     1       9.624  11.103  18.992  0.00  0.00    +0.000 C 
ATOM      9  C   UNL     1      10.526  11.138  17.766  0.00  0.00    +0.000 C 
ATOM     10  C   UNL     1      11.524  12.204  18.139  0.00  0.00    +0.000 C 
ATOM     11  C   UNL     1      11.699  11.969  19.623  0.00  0.00    +0.000 C 
ATOM     12  O   UNL     1      10.448  11.477  20.120  0.00  0.00    +0.000 OA
ENDBRANCH   7   8
ENDBRANCH   3   7
BRANCH   4  13
ATOM     13  C   UNL     1       6.973   6.147  16.594  0.00  0.00    +0.000 C 
BRANCH  13  14
ATOM     14  C   UNL     1       5.684   5.704  17.301  0.00  0.00    +0.000 C 
ATOM     15  C   UNL     1       5.233   4.301  16.883  0.00  0.00    +0.000 C 
ATOM     16  C   UNL     1       3.875   3.980  17.457  0.00  0.00    +0.000 A 
ATOM     17  C   UNL     1       3.430   2.655  17.515  0.00  0.00    +0.000 A 
ATOM     18  C   UNL     1       2.156   2.363  18.001  0.00  0.00    +0.000 A 
ATOM     19  C   UNL     1       1.320   3.393  18.428  0.00  0.00    +0.000 A 
ATOM     20  C   UNL     1       1.752   4.718  18.362  0.00  0.00    +0.000 A 
ATOM     21  C   UNL     1       3.026   5.024  17.862  0.00  0.00    +0.000 A 
ATOM     22  C   UNL     1       3.493   6.458  17.814  0.00  0.00    +0.000 C 
ATOM     23  O   UNL     1       4.648   6.654  16.987  0.00  0.00    +0.000 OA
ENDBRANCH  13  14
ENDBRANCH   4  13
TORSDOF 4
ENDMDL
MODEL 4
REMARK VINA RESULT:      -7.8      0.971      1.653
REMARK  Name = 
REMARK  4 active torsions:
REMARK  status: ('A' for Active; 'I' for Inactive)
REMARK    1  A    between atoms: N_3  and  C_4
REMARK    2  A    between atoms: C_4  and  C_5
REMARK    3  A    between atoms: N_10  and  C_11
REMARK    4  A    between atoms: C_11  and  C_12
REMARK                            x       y       z     vdW  Elec       q    Type
REMARK                         _______ _______ _______ _____ _____    ______ ____
ROOT
ATOM      1  O   UNL     1       6.197   6.457  16.061  0.00  0.00    +0.000 OA
ATOM      2  C   UNL     1       6.840   5.441  16.286  0.00  0.00    +0.000 C 
ATOM      3  N   UNL     1       7.326   4.608  15.318  0.00  0.00    +0.000 N 
ATOM      4  N   UNL     1       7.133   4.984  17.540  0.00  0.00    +0.000 N 
ATOM      5  H   UNL     1       7.533   3.659  15.595  0.00  0.00    +0.000 HD
ATOM      6  H   UNL     1       7.936   4.375  17.635  0.00  0.00    +0.000 HD
ENDROOT
BRANCH   3   7
ATOM      7  C   UNL     1       6.975   4.787  13.917  0.00  0.00    +0.000 C 
BRANCH   7   8
ATOM      8  C   UNL     1       6.266   3.564  13.319  0.00  0.00    +0.000 C 
ATOM      9  C   UNL     1       6.837   3.028  12.014  0.00  0.00    +0.000 C 
ATOM     10  C   UNL     1       5.627   2.396  11.375  0.00  0.00    +0.000 C 
ATOM     11  C   UNL     1       4.522   3.346  11.782  0.00  0.00    +0.000 C 
ATOM     12  O   UNL     1       4.878   3.882  13.062  0.00  0.00    +0.000 OA
ENDBRANCH   7   8
ENDBRANCH   3   7
BRANCH   4  13
ATOM     13  C   UNL     1       6.752   5.720  18.734  0.00  0.00    +0.000 C 
BRANCH  13  14
ATOM     14  C   UNL     1       5.384   5.294  19.285  0.00  0.00    +0.000 C 
ATOM     15  C   UNL     1       4.976   3.888  18.831  0.00  0.00    +0.000 C 
ATOM     16  C   UNL     1       3.557   3.582  19.240  0.00  0.00    +0.000 A 
ATOM     17  C   UNL     1       3.098   2.261  19.259  0.00  0.00    +0.000 A 
ATOM     18  C   UNL     1       1.772   1.982  19.592  0.00  0.00    +0.000 A 
ATOM     19  C   UNL     1       0.899   3.023  19.902  0.00  0.00    +0.000 A 
ATOM     20  C   UNL     1       1.346   4.344  19.874  0.00  0.00    +0.000 A 
ATOM     21  C   UNL     1       2.672   4.637  19.528  0.00  0.00    +0.000 A 
ATOM     22  C   UNL     1       3.153   6.067  19.521  0.00  0.00    +0.000 C 
ATOM     23  O   UNL     1       4.400   6.246  18.837  0.00  0.00    +0.000 OA
ENDBRANCH  13  14
ENDBRANCH   4  13
TORSDOF 4
ENDMDL
MODEL 5
REMARK VINA RESULT:      -7.7      4.065      6.201
REMARK  Name = 
REMARK  4 active torsions:
REMARK  status: ('A' for Active; 'I' for Inactive)
REMARK    1  A    between atoms: N_3  and  C_4
REMARK    2  A    between atoms: C_4  and  C_5
REMARK    3  A    between atoms: N_10  and  C_11
REMARK    4  A    between atoms: C_11  and  C_12
REMARK                            x       y       z     vdW  Elec       q    Type
REMARK                         _______ _______ _______ _____ _____    ______ ____
ROOT
ATOM      1  O   UNL     1       8.294   6.910  18.763  0.00  0.00    +0.000 OA
ATOM      2  C   UNL     1       7.773   7.540  17.854  0.00  0.00    +0.000 C 
ATOM      3  N   UNL     1       7.935   8.883  17.657  0.00  0.00    +0.000 N 
ATOM      4  N   UNL     1       6.932   6.992  16.927  0.00  0.00    +0.000 N 
ATOM      5  H   UNL     1       7.224   9.354  17.116  0.00  0.00    +0.000 HD
ATOM      6  H   UNL     1       6.842   7.473  16.041  0.00  0.00    +0.000 HD
ENDROOT
BRANCH   3   7
ATOM      7  C   UNL     1       8.632   9.713  18.629  0.00  0.00    +0.000 C 
BRANCH   7   8
ATOM      8  C   UNL     1       9.420  10.858  17.977  0.00  0.00    +0.000 C 
ATOM      9  C   UNL     1      10.571  11.430  18.793  0.00  0.00    +0.000 C 
ATOM     10  C   UNL     1      10.647  12.846  18.283  0.00  0.00    +0.000 C 
ATOM     11  C   UNL     1       9.189  13.180  18.058  0.00  0.00    +0.000 C 
ATOM     12  O   UNL     1       8.531  11.962  17.689  0.00  0.00    +0.000 OA
ENDBRANCH   7   8
ENDBRANCH   3   7
BRANCH   4  13
ATOM     13  C   UNL     1       6.633   5.569  16.907  0.00  0.00    +0.000 C 
BRANCH  13  14
ATOM     14  C   UNL     1       5.175   5.262  17.275  0.00  0.00    +0.000 C 
ATOM     15  C   UNL     1       4.894   5.437  18.771  0.00  0.00    +0.000 C 
ATOM     16  C   UNL     1       3.508   4.953  19.118  0.00  0.00    +0.000 A 
ATOM     17  C   UNL     1       2.907   5.339  20.320  0.00  0.00    +0.000 A 
ATOM     18  C   UNL     1       1.645   4.853  20.662  0.00  0.00    +0.000 A 
ATOM     19  C   UNL     1       0.980   3.977  19.807  0.00  0.00    +0.000 A 
ATOM     20  C   UNL     1       1.578   3.579  18.610  0.00  0.00    +0.000 A 
ATOM     21  C   UNL     1       2.851   4.050  18.263  0.00  0.00    +0.000 A 
ATOM     22  C   UNL     1       3.482   3.631  16.958  0.00  0.00    +0.000 C 
ATOM     23  O   UNL     1       4.887   3.905  16.889  0.00  0.00    +0.000 OA
ENDBRANCH  13  14
ENDBRANCH   4  13
TORSDOF 4
ENDMDL
MODEL 6
REMARK VINA RESULT:      -7.6      3.805      6.212
REMARK  Name = 
REMARK  4 active torsions:
REMARK  status: ('A' for Active; 'I' for Inactive)
REMARK    1  A    between atoms: N_3  and  C_4
REMARK    2  A    between atoms: C_4  and  C_5
REMARK    3  A    between atoms: N_10  and  C_11
REMARK    4  A    between atoms: C_11  and  C_12
REMARK                            x       y       z     vdW  Elec       q    Type
REMARK                         _______ _______ _______ _____ _____    ______ ____
ROOT
ATOM      1  O   UNL     1       7.662   6.272  18.029  0.00  0.00    +0.000 OA
ATOM      2  C   UNL     1       7.175   7.227  17.440  0.00  0.00    +0.000 C 
ATOM      3  N   UNL     1       7.664   8.502  17.507  0.00  0.00    +0.000 N 
ATOM      4  N   UNL     1       6.055   7.156  16.660  0.00  0.00    +0.000 N 
ATOM      5  H   UNL     1       7.023   9.249  17.278  0.00  0.00    +0.000 HD
ATOM      6  H   UNL     1       5.938   7.870  15.953  0.00  0.00    +0.000 HD
ENDROOT
BRANCH   3   7
ATOM      7  C   UNL     1       8.734   8.857  18.427  0.00  0.00    +0.000 C 
BRANCH   7   8
ATOM      8  C   UNL     1       8.921  10.375  18.565  0.00  0.00    +0.000 C 
ATOM      9  C   UNL     1      10.129  10.970  17.853  0.00  0.00    +0.000 C 
ATOM     10  C   UNL     1      10.426  12.183  18.697  0.00  0.00    +0.000 C 
ATOM     11  C   UNL     1      10.109  11.685  20.090  0.00  0.00    +0.000 C 
ATOM     12  O   UNL     1       9.054  10.724  19.963  0.00  0.00    +0.000 OA
ENDBRANCH   7   8
ENDBRANCH   3   7
BRANCH   4  13
ATOM     13  C   UNL     1       5.374   5.897  16.408  0.00  0.00    +0.000 C 
BRANCH  13  14
ATOM     14  C   UNL     1       4.507   5.442  17.590  0.00  0.00    +0.000 C 
ATOM     15  C   UNL     1       3.622   4.240  17.245  0.00  0.00    +0.000 C 
ATOM     16  C   UNL     1       2.660   3.941  18.368  0.00  0.00    +0.000 A 
ATOM     17  C   UNL     1       2.021   2.699  18.437  0.00  0.00    +0.000 A 
ATOM     18  C   UNL     1       1.096   2.440  19.448  0.00  0.00    +0.000 A 
ATOM     19  C   UNL     1       0.802   3.423  20.391  0.00  0.00    +0.000 A 
ATOM     20  C   UNL     1       1.427   4.668  20.323  0.00  0.00    +0.000 A 
ATOM     21  C   UNL     1       2.348   4.944  19.303  0.00  0.00    +0.000 A 
ATOM     22  C   UNL     1       3.035   6.286  19.248  0.00  0.00    +0.000 C 
ATOM     23  O   UNL     1       3.677   6.548  17.993  0.00  0.00    +0.000 OA
ENDBRANCH  13  14
ENDBRANCH   4  13
TORSDOF 4
ENDMDL
MODEL 7
REMARK VINA RESULT:      -7.5      1.389      1.970
REMARK  Name = 
REMARK  4 active torsions:
REMARK  status: ('A' for Active; 'I' for Inactive)
REMARK    1  A    between atoms: N_3  and  C_4
REMARK    2  A    between atoms: C_4  and  C_5
REMARK    3  A    between atoms: N_10  and  C_11
REMARK    4  A    between atoms: C_11  and  C_12
REMARK                            x       y       z     vdW  Elec       q    Type
REMARK                         _______ _______ _______ _____ _____    ______ ____
ROOT
ATOM      1  O   UNL     1       7.604   4.253  16.216  0.00  0.00    +0.000 OA
ATOM      2  C   UNL     1       6.878   5.092  15.703  0.00  0.00    +0.000 C 
ATOM      3  N   UNL     1       6.629   5.178  14.361  0.00  0.00    +0.000 N 
ATOM      4  N   UNL     1       6.241   6.082  16.398  0.00  0.00    +0.000 N 
ATOM      5  H   UNL     1       6.313   6.071  14.012  0.00  0.00    +0.000 HD
ATOM      6  H   UNL     1       5.415   6.486  15.977  0.00  0.00    +0.000 HD
ENDROOT
BRANCH   3   7
ATOM      7  C   UNL     1       7.348   4.351  13.403  0.00  0.00    +0.000 C 
BRANCH   7   8
ATOM      8  C   UNL     1       6.482   3.942  12.203  0.00  0.00    +0.000 C 
ATOM      9  C   UNL     1       4.989   3.810  12.467  0.00  0.00    +0.000 C 
ATOM     10  C   UNL     1       4.574   2.793  11.434  0.00  0.00    +0.000 C 
ATOM     11  C   UNL     1       5.770   1.866  11.406  0.00  0.00    +0.000 C 
ATOM     12  O   UNL     1       6.926   2.662  11.695  0.00  0.00    +0.000 OA
ENDBRANCH   7   8
ENDBRANCH   3   7
BRANCH   4  13
ATOM     13  C   UNL     1       6.324   6.178  17.846  0.00  0.00    +0.000 C 
BRANCH  13  14
ATOM     14  C   UNL     1       5.004   5.818  18.543  0.00  0.00    +0.000 C 
ATOM     15  C   UNL     1       4.996   4.388  19.090  0.00  0.00    +0.000 C 
ATOM     16  C   UNL     1       3.626   4.016  19.602  0.00  0.00    +0.000 A 
ATOM     17  C   UNL     1       3.467   2.923  20.460  0.00  0.00    +0.000 A 
ATOM     18  C   UNL     1       2.195   2.551  20.895  0.00  0.00    +0.000 A 
ATOM     19  C   UNL     1       1.077   3.266  20.472  0.00  0.00    +0.000 A 
ATOM     20  C   UNL     1       1.227   4.352  19.607  0.00  0.00    +0.000 A 
ATOM     21  C   UNL     1       2.499   4.726  19.153  0.00  0.00    +0.000 A 
ATOM     22  C   UNL     1       2.654   5.912  18.234  0.00  0.00    +0.000 C 
ATOM     23  O   UNL     1       3.934   5.974  17.592  0.00  0.00    +0.000 OA
ENDBRANCH  13  14
ENDBRANCH   4  13
TORSDOF 4
ENDMDL
MODEL 8
REMARK VINA RESULT:      -7.5      3.733      6.151
REMARK  Name = 
REMARK  4 active torsions:
REMARK  status: ('A' for Active; 'I' for Inactive)
REMARK    1  A    between atoms: N_3  and  C_4
REMARK    2  A    between atoms: C_4  and  C_5
REMARK    3  A    between atoms: N_10  and  C_11
REMARK    4  A    between atoms: C_11  and  C_12
REMARK                            x       y       z     vdW  Elec       q    Type
REMARK                         _______ _______ _______ _____ _____    ______ ____
ROOT
ATOM      1  O   UNL     1       6.924   7.432  16.648  0.00  0.00    +0.000 OA
ATOM      2  C   UNL     1       7.513   7.130  17.677  0.00  0.00    +0.000 C 
ATOM      3  N   UNL     1       8.170   8.023  18.477  0.00  0.00    +0.000 N 
ATOM      4  N   UNL     1       7.621   5.852  18.150  0.00  0.00    +0.000 N 
ATOM      5  H   UNL     1       8.884   7.649  19.086  0.00  0.00    +0.000 HD
ATOM      6  H   UNL     1       7.795   5.739  19.140  0.00  0.00    +0.000 HD
ENDROOT
BRANCH   3   7
ATOM      7  C   UNL     1       8.354   9.409  18.076  0.00  0.00    +0.000 C 
BRANCH   7   8
ATOM      8  C   UNL     1       9.554  10.074  18.764  0.00  0.00    +0.000 C 
ATOM      9  C   UNL     1       9.294  10.668  20.141  0.00  0.00    +0.000 C 
ATOM     10  C   UNL     1      10.323  11.768  20.211  0.00  0.00    +0.000 C 
ATOM     11  C   UNL     1      10.344  12.272  18.784  0.00  0.00    +0.000 C 
ATOM     12  O   UNL     1      10.055  11.151  17.938  0.00  0.00    +0.000 OA
ENDBRANCH   7   8
ENDBRANCH   3   7
BRANCH   4  13
ATOM     13  C   UNL     1       6.974   4.732  17.488  0.00  0.00    +0.000 C 
BRANCH  13  14
ATOM     14  C   UNL     1       5.460   4.689  17.733  0.00  0.00    +0.000 C 
ATOM     15  C   UNL     1       5.106   4.503  19.211  0.00  0.00    +0.000 C 
ATOM     16  C   UNL     1       3.623   4.285  19.385  0.00  0.00    +0.000 A 
ATOM     17  C   UNL     1       3.028   4.452  20.640  0.00  0.00    +0.000 A 
ATOM     18  C   UNL     1       1.667   4.204  20.811  0.00  0.00    +0.000 A 
ATOM     19  C   UNL     1       0.894   3.784  19.730  0.00  0.00    +0.000 A 
ATOM     20  C   UNL     1       1.482   3.603  18.478  0.00  0.00    +0.000 A 
ATOM     21  C   UNL     1       2.853   3.836  18.298  0.00  0.00    +0.000 A 
ATOM     22  C   UNL     1       3.476   3.659  16.936  0.00  0.00    +0.000 C 
ATOM     23  O   UNL     1       4.908   3.601  16.967  0.00  0.00    +0.000 OA
ENDBRANCH  13  14
ENDBRANCH   4  13
TORSDOF 4
ENDMDL
MODEL 9
REMARK VINA RESULT:      -7.5      4.274      6.878
REMARK  Name = 
REMARK  4 active torsions:
REMARK  status: ('A' for Active; 'I' for Inactive)
REMARK    1  A    between atoms: N_3  and  C_4
REMARK    2  A    between atoms: C_4  and  C_5
REMARK    3  A    between atoms: N_10  and  C_11
REMARK    4  A    between atoms: C_11  and  C_12
REMARK                            x       y       z     vdW  Elec       q    Type
REMARK                         _______ _______ _______ _____ _____    ______ ____
ROOT
ATOM      1  O   UNL     1       7.780   7.962  16.988  0.00  0.00    +0.000 OA
ATOM      2  C   UNL     1       8.120   7.821  18.155  0.00  0.00    +0.000 C 
ATOM      3  N   UNL     1       8.640   8.819  18.931  0.00  0.00    +0.000 N 
ATOM      4  N   UNL     1       8.055   6.635  18.832  0.00  0.00    +0.000 N 
ATOM      5  H   UNL     1       9.187   8.535  19.731  0.00  0.00    +0.000 HD
ATOM      6  H   UNL     1       8.009   6.681  19.841  0.00  0.00    +0.000 HD
ENDROOT
BRANCH   3   7
ATOM      7  C   UNL     1       8.980  10.117  18.369  0.00  0.00    +0.000 C 
BRANCH   7   8
ATOM      8  C   UNL     1       9.929  10.924  19.267  0.00  0.00    +0.000 C 
ATOM      9  C   UNL     1       9.449  11.183  20.689  0.00  0.00    +0.000 C 
ATOM     10  C   UNL     1      10.153  12.471  21.030  0.00  0.00    +0.000 C 
ATOM     11  C   UNL     1      10.121  13.209  19.709  0.00  0.00    +0.000 C 
ATOM     12  O   UNL     1      10.178  12.219  18.674  0.00  0.00    +0.000 OA
ENDBRANCH   7   8
ENDBRANCH   3   7
BRANCH   4  13
ATOM     13  C   UNL     1       7.503   5.434  18.227  0.00  0.00    +0.000 C 
BRANCH  13  14
ATOM     14  C   UNL     1       5.980   5.332  18.389  0.00  0.00    +0.000 C 
ATOM     15  C   UNL     1       5.503   3.891  18.589  0.00  0.00    +0.000 C 
ATOM     16  C   UNL     1       3.997   3.814  18.562  0.00  0.00    +0.000 A 
ATOM     17  C   UNL     1       3.338   2.692  19.075  0.00  0.00    +0.000 A 
ATOM     18  C   UNL     1       1.948   2.601  19.006  0.00  0.00    +0.000 A 
ATOM     19  C   UNL     1       1.210   3.628  18.420  0.00  0.00    +0.000 A 
ATOM     20  C   UNL     1       1.861   4.745  17.896  0.00  0.00    +0.000 A 
ATOM     21  C   UNL     1       3.258   4.841  17.947  0.00  0.00    +0.000 A 
ATOM     22  C   UNL     1       3.952   6.062  17.396  0.00  0.00    +0.000 C 
ATOM     23  O   UNL     1       5.362   5.882  17.209  0.00  0.00    +0.000 OA
ENDBRANCH  13  14
ENDBRANCH   4  13
TORSDOF 4
ENDMDL
