MODEL 1
REMARK VINA RESULT:      -7.9      0.000      0.000
REMARK  Name = 
REMARK  6 active torsions:
REMARK  status: ('A' for Active; 'I' for Inactive)
REMARK    1  A    between atoms: C_1  and  C_2
REMARK    2  A    between atoms: C_2  and  C_3
REMARK    3  A    between atoms: N_5  and  C_6
REMARK    4  A    between atoms: C_9  and  C_10
REMARK    5  A    between atoms: C_14  and  C_15
REMARK    6  A    between atoms: C_17  and  C_18
REMARK                            x       y       z     vdW  Elec       q    Type
REMARK                         _______ _______ _______ _____ _____    ______ ____
ROOT
ATOM      1  C   UNL     1       3.700   4.399  18.197  0.00  0.00    +0.000 A 
ATOM      2  C   UNL     1       3.883   5.691  17.701  0.00  0.00    +0.000 A 
ATOM      3  C   UNL     1       4.828   5.955  16.706  0.00  0.00    +0.000 A 
ATOM      4  C   UNL     1       5.596   4.923  16.172  0.00  0.00    +0.000 A 
ATOM      5  C   UNL     1       5.423   3.623  16.671  0.00  0.00    +0.000 A 
ATOM      6  C   UNL     1       4.484   3.364  17.682  0.00  0.00    +0.000 A 
ENDROOT
BRANCH   4   7
ATOM      7  C   UNL     1       6.654   5.174  15.152  0.00  0.00    +0.000 C 
ATOM      8  O   UNL     1       7.568   5.938  15.471  0.00  0.00    +0.000 OA
ATOM      9  N   UNL     1       6.690   4.617  13.845  0.00  0.00    +0.000 N 
ATOM     10  N   UNL     1       5.783   3.666  13.482  0.00  0.00    +0.000 NA
ATOM     11  C   UNL     1       6.063   3.368  12.212  0.00  0.00    +0.000 A 
ATOM     12  C   UNL     1       5.249   2.371  11.474  0.00  0.00    +0.000 C 
ATOM     13  C   UNL     1       7.172   4.093  11.742  0.00  0.00    +0.000 A 
ATOM     14  C   UNL     1       7.572   4.878  12.802  0.00  0.00    +0.000 A 
ATOM     15  C   UNL     1       8.690   5.850  12.895  0.00  0.00    +0.000 C 
ENDBRANCH   4   7
BRANCH   1  18
ATOM     16  C   UNL     1       1.497   3.621  19.054  0.00  0.00    +0.000 C 
ATOM     17  O   UNL     1       1.016   3.233  17.994  0.00  0.00    +0.000 OA
ATOM     18  N   UNL     1       2.787   4.105  19.233  0.00  0.00    +0.000 N 
ATOM     19  H   UNL     1       3.123   4.202  20.183  0.00  0.00    +0.000 HD
BRANCH  16  21
ATOM     20  C   UNL     1       1.442   2.891  21.445  0.00  0.00    +0.000 C 
ATOM     21  C   UNL     1       0.691   3.615  20.338  0.00  0.00    +0.000 C 
ENDBRANCH  16  21
ENDBRANCH   1  18
TORSDOF 3
ENDMDL
MODEL 2
REMARK VINA RESULT:      -7.7      0.368      1.072
REMARK  Name = 
REMARK  6 active torsions:
REMARK  status: ('A' for Active; 'I' for Inactive)
REMARK    1  A    between atoms: C_1  and  C_2
REMARK    2  A    between atoms: C_2  and  C_3
REMARK    3  A    between atoms: N_5  and  C_6
REMARK    4  A    between atoms: C_9  and  C_10
REMARK    5  A    between atoms: C_14  and  C_15
REMARK    6  A    between atoms: C_17  and  C_18
REMARK                            x       y       z     vdW  Elec       q    Type
REMARK                         _______ _______ _______ _____ _____    ______ ____
ROOT
ATOM      1  C   UNL     1       3.896   4.463  18.356  0.00  0.00    +0.000 A 
ATOM      2  C   UNL     1       5.044   3.675  18.259  0.00  0.00    +0.000 A 
ATOM      3  C   UNL     1       6.011   3.923  17.282  0.00  0.00    +0.000 A 
ATOM      4  C   UNL     1       5.857   4.983  16.391  0.00  0.00    +0.000 A 
ATOM      5  C   UNL     1       4.702   5.776  16.477  0.00  0.00    +0.000 A 
ATOM      6  C   UNL     1       3.724   5.513  17.450  0.00  0.00    +0.000 A 
ENDROOT
BRANCH   4   7
ATOM      7  C   UNL     1       6.836   5.245  15.299  0.00  0.00    +0.000 C 
ATOM      8  O   UNL     1       7.767   6.012  15.555  0.00  0.00    +0.000 OA
ATOM      9  N   UNL     1       6.779   4.696  13.990  0.00  0.00    +0.000 N 
ATOM     10  N   UNL     1       5.854   3.741  13.688  0.00  0.00    +0.000 NA
ATOM     11  C   UNL     1       6.042   3.452  12.399  0.00  0.00    +0.000 A 
ATOM     12  C   UNL     1       5.182   2.455  11.716  0.00  0.00    +0.000 C 
ATOM     13  C   UNL     1       7.110   4.187  11.854  0.00  0.00    +0.000 A 
ATOM     14  C   UNL     1       7.582   4.968  12.887  0.00  0.00    +0.000 A 
ATOM     15  C   UNL     1       8.698   5.946  12.904  0.00  0.00    +0.000 C 
ENDBRANCH   4   7
BRANCH   1  18
ATOM     16  C   UNL     1       1.692   3.537  19.045  0.00  0.00    +0.000 C 
ATOM     17  O   UNL     1       1.420   2.928  18.015  0.00  0.00    +0.000 OA
ATOM     18  N   UNL     1       2.878   4.211  19.301  0.00  0.00    +0.000 N 
ATOM     19  H   UNL     1       3.057   4.498  20.256  0.00  0.00    +0.000 HD
BRANCH  16  21
ATOM     20  C   UNL     1       1.233   2.864  21.409  0.00  0.00    +0.000 C 
ATOM     21  C   UNL     1       0.710   3.619  20.197  0.00  0.00    +0.000 C 
ENDBRANCH  16  21
ENDBRANCH   1  18
TORSDOF 3
ENDMDL
MODEL 3
REMARK VINA RESULT:      -7.5      1.263      1.552
REMARK  Name = 
REMARK  6 active torsions:
REMARK  status: ('A' for Active; 'I' for Inactive)
REMARK    1  A    between atoms: C_1  and  C_2
REMARK    2  A    between atoms: C_2  and  C_3
REMARK    3  A    between atoms: N_5  and  C_6
REMARK    4  A    between atoms: C_9  and  C_10
REMARK    5  A    between atoms: C_14  and  C_15
REMARK    6  A    between atoms: C_17  and  C_18
REMARK                            x       y       z     vdW  Elec       q    Type
REMARK                         _______ _______ _______ _____ _____    ______ ____
ROOT
ATOM      1  C   UNL     1       4.188   4.169  18.393  0.00  0.00    +0.000 A 
ATOM      2  C   UNL     1       4.008   3.598  17.133  0.00  0.00    +0.000 A 
ATOM      3  C   UNL     1       4.883   3.878  16.080  0.00  0.00    +0.000 A 
ATOM      4  C   UNL     1       5.972   4.725  16.276  0.00  0.00    +0.000 A 
ATOM      5  C   UNL     1       6.155   5.309  17.539  0.00  0.00    +0.000 A 
ATOM      6  C   UNL     1       5.264   5.038  18.590  0.00  0.00    +0.000 A 
ENDROOT
BRANCH   4   7
ATOM      7  C   UNL     1       6.893   5.095  15.165  0.00  0.00    +0.000 C 
ATOM      8  O   UNL     1       7.768   5.927  15.418  0.00  0.00    +0.000 OA
ATOM      9  N   UNL     1       6.841   4.580  13.842  0.00  0.00    +0.000 N 
ATOM     10  N   UNL     1       5.985   3.563  13.537  0.00  0.00    +0.000 NA
ATOM     11  C   UNL     1       6.156   3.327  12.235  0.00  0.00    +0.000 A 
ATOM     12  C   UNL     1       5.357   2.283  11.547  0.00  0.00    +0.000 C 
ATOM     13  C   UNL     1       7.145   4.159  11.683  0.00  0.00    +0.000 A 
ATOM     14  C   UNL     1       7.585   4.946  12.726  0.00  0.00    +0.000 A 
ATOM     15  C   UNL     1       8.621   6.010  12.741  0.00  0.00    +0.000 C 
ENDBRANCH   4   7
BRANCH   1  18
ATOM     16  C   UNL     1       3.388   2.901  20.379  0.00  0.00    +0.000 C 
ATOM     17  O   UNL     1       4.330   2.122  20.489  0.00  0.00    +0.000 OA
ATOM     18  N   UNL     1       3.297   3.943  19.465  0.00  0.00    +0.000 N 
ATOM     19  H   UNL     1       2.567   4.630  19.609  0.00  0.00    +0.000 HD
BRANCH  16  21
ATOM     20  C   UNL     1       0.993   3.556  20.676  0.00  0.00    +0.000 C 
ATOM     21  C   UNL     1       2.168   2.797  21.273  0.00  0.00    +0.000 C 
ENDBRANCH  16  21
ENDBRANCH   1  18
TORSDOF 3
ENDMDL
MODEL 4
REMARK VINA RESULT:      -7.5      1.236      1.298
REMARK  Name = 
REMARK  6 active torsions:
REMARK  status: ('A' for Active; 'I' for Inactive)
REMARK    1  A    between atoms: C_1  and  C_2
REMARK    2  A    between atoms: C_2  and  C_3
REMARK    3  A    between atoms: N_5  and  C_6
REMARK    4  A    between atoms: C_9  and  C_10
REMARK    5  A    between atoms: C_14  and  C_15
REMARK    6  A    between atoms: C_17  and  C_18
REMARK                            x       y       z     vdW  Elec       q    Type
REMARK                         _______ _______ _______ _____ _____    ______ ____
ROOT
ATOM      1  C   UNL     1       4.195   3.950  18.457  0.00  0.00    +0.000 A 
ATOM      2  C   UNL     1       3.711   4.048  17.152  0.00  0.00    +0.000 A 
ATOM      3  C   UNL     1       4.557   4.380  16.091  0.00  0.00    +0.000 A 
ATOM      4  C   UNL     1       5.914   4.600  16.314  0.00  0.00    +0.000 A 
ATOM      5  C   UNL     1       6.407   4.511  17.624  0.00  0.00    +0.000 A 
ATOM      6  C   UNL     1       5.551   4.193  18.691  0.00  0.00    +0.000 A 
ENDROOT
BRANCH   4   7
ATOM      7  C   UNL     1       6.837   5.013  15.219  0.00  0.00    +0.000 C 
ATOM      8  O   UNL     1       7.696   5.853  15.499  0.00  0.00    +0.000 OA
ATOM      9  N   UNL     1       6.802   4.530  13.883  0.00  0.00    +0.000 N 
ATOM     10  N   UNL     1       5.965   3.508  13.547  0.00  0.00    +0.000 NA
ATOM     11  C   UNL     1       6.149   3.306  12.241  0.00  0.00    +0.000 A 
ATOM     12  C   UNL     1       5.372   2.267  11.521  0.00  0.00    +0.000 C 
ATOM     13  C   UNL     1       7.128   4.168  11.717  0.00  0.00    +0.000 A 
ATOM     14  C   UNL     1       7.548   4.936  12.782  0.00  0.00    +0.000 A 
ATOM     15  C   UNL     1       8.566   6.016  12.831  0.00  0.00    +0.000 C 
ENDBRANCH   4   7
BRANCH   1  18
ATOM     16  C   UNL     1       2.659   4.600  20.303  0.00  0.00    +0.000 C 
ATOM     17  O   UNL     1       2.535   5.790  20.026  0.00  0.00    +0.000 OA
ATOM     18  N   UNL     1       3.360   3.661  19.558  0.00  0.00    +0.000 N 
ATOM     19  H   UNL     1       3.218   2.684  19.784  0.00  0.00    +0.000 HD
BRANCH  16  21
ATOM     20  C   UNL     1       1.856   2.505  21.407  0.00  0.00    +0.000 C 
ATOM     21  C   UNL     1       2.030   4.010  21.550  0.00  0.00    +0.000 C 
ENDBRANCH  16  21
ENDBRANCH   1  18
TORSDOF 3
ENDMDL
MODEL 5
REMARK VINA RESULT:      -7.4      4.960      6.745
REMARK  Name = 
REMARK  6 active torsions:
REMARK  status: ('A' for Active; 'I' for Inactive)
REMARK    1  A    between atoms: C_1  and  C_2
REMARK    2  A    between atoms: C_2  and  C_3
REMARK    3  A    between atoms: N_5  and  C_6
REMARK    4  A    between atoms: C_9  and  C_10
REMARK    5  A    between atoms: C_14  and  C_15
REMARK    6  A    between atoms: C_17  and  C_18
REMARK                            x       y       z     vdW  Elec       q    Type
REMARK                         _______ _______ _______ _____ _____    ______ ____
ROOT
ATOM      1  C   UNL     1       0.714   9.570  19.886  0.00  0.00    +0.000 A 
ATOM      2  C   UNL     1       0.999   9.663  18.523  0.00  0.00    +0.000 A 
ATOM      3  C   UNL     1       1.806   8.715  17.887  0.00  0.00    +0.000 A 
ATOM      4  C   UNL     1       2.328   7.641  18.603  0.00  0.00    +0.000 A 
ATOM      5  C   UNL     1       2.052   7.545  19.976  0.00  0.00    +0.000 A 
ATOM      6  C   UNL     1       1.255   8.508  20.615  0.00  0.00    +0.000 A 
ENDROOT
BRANCH   4   7
ATOM      7  C   UNL     1       3.240   6.642  17.976  0.00  0.00    +0.000 C 
ATOM      8  O   UNL     1       4.289   7.072  17.489  0.00  0.00    +0.000 OA
ATOM      9  N   UNL     1       2.996   5.246  17.882  0.00  0.00    +0.000 N 
ATOM     10  N   UNL     1       1.922   4.695  18.515  0.00  0.00    +0.000 NA
ATOM     11  C   UNL     1       1.958   3.394  18.220  0.00  0.00    +0.000 A 
ATOM     12  C   UNL     1       0.910   2.476  18.729  0.00  0.00    +0.000 C 
ATOM     13  C   UNL     1       3.070   3.075  17.421  0.00  0.00    +0.000 A 
ATOM     14  C   UNL     1       3.733   4.267  17.224  0.00  0.00    +0.000 A 
ATOM     15  C   UNL     1       4.975   4.548  16.461  0.00  0.00    +0.000 C 
ENDBRANCH   4   7
BRANCH   1  18
ATOM     16  C   UNL     1       0.439  11.673  21.187  0.00  0.00    +0.000 C 
ATOM     17  O   UNL     1       1.590  12.091  21.103  0.00  0.00    +0.000 OA
ATOM     18  N   UNL     1      -0.060  10.534  20.568  0.00  0.00    +0.000 N 
ATOM     19  H   UNL     1      -1.065  10.411  20.553  0.00  0.00    +0.000 HD
BRANCH  16  21
ATOM     20  C   UNL     1      -1.342  11.416  22.923  0.00  0.00    +0.000 C 
ATOM     21  C   UNL     1      -0.605  12.392  22.020  0.00  0.00    +0.000 C 
ENDBRANCH  16  21
ENDBRANCH   1  18
TORSDOF 3
ENDMDL
MODEL 6
REMARK VINA RESULT:      -7.4      4.875      6.723
REMARK  Name = 
REMARK  6 active torsions:
REMARK  status: ('A' for Active; 'I' for Inactive)
REMARK    1  A    between atoms: C_1  and  C_2
REMARK    2  A    between atoms: C_2  and  C_3
REMARK    3  A    between atoms: N_5  and  C_6
REMARK    4  A    between atoms: C_9  and  C_10
REMARK    5  A    between atoms: C_14  and  C_15
REMARK    6  A    between atoms: C_17  and  C_18
REMARK                            x       y       z     vdW  Elec       q    Type
REMARK                         _______ _______ _______ _____ _____    ______ ____
ROOT
ATOM      1  C   UNL     1       0.785   9.463  19.685  0.00  0.00    +0.000 A 
ATOM      2  C   UNL     1       1.296   8.427  20.468  0.00  0.00    +0.000 A 
ATOM      3  C   UNL     1       2.132   7.452  19.919  0.00  0.00    +0.000 A 
ATOM      4  C   UNL     1       2.491   7.506  18.574  0.00  0.00    +0.000 A 
ATOM      5  C   UNL     1       1.975   8.540  17.778  0.00  0.00    +0.000 A 
ATOM      6  C   UNL     1       1.121   9.510  18.329  0.00  0.00    +0.000 A 
ENDROOT
BRANCH   4   7
ATOM      7  C   UNL     1       3.332   6.453  17.939  0.00  0.00    +0.000 C 
ATOM      8  O   UNL     1       4.391   6.819  17.424  0.00  0.00    +0.000 OA
ATOM      9  N   UNL     1       3.011   5.071  17.866  0.00  0.00    +0.000 N 
ATOM     10  N   UNL     1       1.923   4.586  18.530  0.00  0.00    +0.000 NA
ATOM     11  C   UNL     1       1.882   3.282  18.249  0.00  0.00    +0.000 A 
ATOM     12  C   UNL     1       0.797   2.428  18.793  0.00  0.00    +0.000 C 
ATOM     13  C   UNL     1       2.956   2.894  17.430  0.00  0.00    +0.000 A 
ATOM     14  C   UNL     1       3.679   4.046  17.205  0.00  0.00    +0.000 A 
ATOM     15  C   UNL     1       4.916   4.250  16.410  0.00  0.00    +0.000 C 
ENDBRANCH   4   7
BRANCH   1  18
ATOM     16  C   UNL     1       0.259  11.483  21.039  0.00  0.00    +0.000 C 
ATOM     17  O   UNL     1       1.405  11.805  21.338  0.00  0.00    +0.000 OA
ATOM     18  N   UNL     1      -0.098  10.439  20.196  0.00  0.00    +0.000 N 
ATOM     19  H   UNL     1      -1.057  10.404  19.874  0.00  0.00    +0.000 HD
BRANCH  16  21
ATOM     20  C   UNL     1      -1.313  11.707  22.971  0.00  0.00    +0.000 C 
ATOM     21  C   UNL     1      -0.941  12.228  21.592  0.00  0.00    +0.000 C 
ENDBRANCH  16  21
ENDBRANCH   1  18
TORSDOF 3
ENDMDL
MODEL 7
REMARK VINA RESULT:      -7.4      1.356      1.460
REMARK  Name = 
REMARK  6 active torsions:
REMARK  status: ('A' for Active; 'I' for Inactive)
REMARK    1  A    between atoms: C_1  and  C_2
REMARK    2  A    between atoms: C_2  and  C_3
REMARK    3  A    between atoms: N_5  and  C_6
REMARK    4  A    between atoms: C_9  and  C_10
REMARK    5  A    between atoms: C_14  and  C_15
REMARK    6  A    between atoms: C_17  and  C_18
REMARK                            x       y       z     vdW  Elec       q    Type
REMARK                         _______ _______ _______ _____ _____    ______ ____
ROOT
ATOM      1  C   UNL     1       4.212   4.224  18.529  0.00  0.00    +0.000 A 
ATOM      2  C   UNL     1       5.324   5.036  18.757  0.00  0.00    +0.000 A 
ATOM      3  C   UNL     1       6.197   5.375  17.720  0.00  0.00    +0.000 A 
ATOM      4  C   UNL     1       5.962   4.922  16.425  0.00  0.00    +0.000 A 
ATOM      5  C   UNL     1       4.850   4.098  16.188  0.00  0.00    +0.000 A 
ATOM      6  C   UNL     1       3.984   3.746  17.235  0.00  0.00    +0.000 A 
ENDROOT
BRANCH   4   7
ATOM      7  C   UNL     1       6.900   5.212  15.304  0.00  0.00    +0.000 C 
ATOM      8  O   UNL     1       7.819   6.002  15.535  0.00  0.00    +0.000 OA
ATOM      9  N   UNL     1       6.817   4.667  13.994  0.00  0.00    +0.000 N 
ATOM     10  N   UNL     1       5.906   3.692  13.717  0.00  0.00    +0.000 NA
ATOM     11  C   UNL     1       6.062   3.413  12.421  0.00  0.00    +0.000 A 
ATOM     12  C   UNL     1       5.206   2.397  11.760  0.00  0.00    +0.000 C 
ATOM     13  C   UNL     1       7.094   4.175  11.847  0.00  0.00    +0.000 A 
ATOM     14  C   UNL     1       7.578   4.964  12.869  0.00  0.00    +0.000 A 
ATOM     15  C   UNL     1       8.670   5.969  12.856  0.00  0.00    +0.000 C 
ENDBRANCH   4   7
BRANCH   1  18
ATOM     16  C   UNL     1       3.549   2.764  20.431  0.00  0.00    +0.000 C 
ATOM     17  O   UNL     1       4.588   2.118  20.536  0.00  0.00    +0.000 OA
ATOM     18  N   UNL     1       3.336   3.825  19.561  0.00  0.00    +0.000 N 
ATOM     19  H   UNL     1       2.515   4.398  19.713  0.00  0.00    +0.000 HD
BRANCH  16  21
ATOM     20  C   UNL     1       1.123   3.239  20.807  0.00  0.00    +0.000 C 
ATOM     21  C   UNL     1       2.334   2.450  21.282  0.00  0.00    +0.000 C 
ENDBRANCH  16  21
ENDBRANCH   1  18
TORSDOF 3
ENDMDL
MODEL 8
REMARK VINA RESULT:      -7.2      1.178      1.346
REMARK  Name = 
REMARK  6 active torsions:
REMARK  status: ('A' for Active; 'I' for Inactive)
REMARK    1  A    between atoms: C_1  and  C_2
REMARK    2  A    between atoms: C_2  and  C_3
REMARK    3  A    between atoms: N_5  and  C_6
REMARK    4  A    between atoms: C_9  and  C_10
REMARK    5  A    between atoms: C_14  and  C_15
REMARK    6  A    between atoms: C_17  and  C_18
REMARK                            x       y       z     vdW  Elec       q    Type
REMARK                         _______ _______ _______ _____ _____    ______ ____
ROOT
ATOM      1  C   UNL     1       4.152   4.156  18.440  0.00  0.00    +0.000 A 
ATOM      2  C   UNL     1       5.521   4.245  18.695  0.00  0.00    +0.000 A 
ATOM      3  C   UNL     1       6.423   4.588  17.684  0.00  0.00    +0.000 A 
ATOM      4  C   UNL     1       5.967   4.869  16.398  0.00  0.00    +0.000 A 
ATOM      5  C   UNL     1       4.593   4.774  16.132  0.00  0.00    +0.000 A 
ATOM      6  C   UNL     1       3.691   4.414  17.146  0.00  0.00    +0.000 A 
ENDROOT
BRANCH   4   7
ATOM      7  C   UNL     1       6.902   5.181  15.280  0.00  0.00    +0.000 C 
ATOM      8  O   UNL     1       7.806   5.987  15.515  0.00  0.00    +0.000 OA
ATOM      9  N   UNL     1       6.832   4.638  13.969  0.00  0.00    +0.000 N 
ATOM     10  N   UNL     1       5.940   3.646  13.687  0.00  0.00    +0.000 NA
ATOM     11  C   UNL     1       6.104   3.374  12.390  0.00  0.00    +0.000 A 
ATOM     12  C   UNL     1       5.268   2.344  11.725  0.00  0.00    +0.000 C 
ATOM     13  C   UNL     1       7.122   4.158  11.821  0.00  0.00    +0.000 A 
ATOM     14  C   UNL     1       7.589   4.952  12.846  0.00  0.00    +0.000 A 
ATOM     15  C   UNL     1       8.662   5.978  12.838  0.00  0.00    +0.000 C 
ENDBRANCH   4   7
BRANCH   1  18
ATOM     16  C   UNL     1       2.501   4.637  20.238  0.00  0.00    +0.000 C 
ATOM     17  O   UNL     1       2.451   5.857  20.119  0.00  0.00    +0.000 OA
ATOM     18  N   UNL     1       3.218   3.769  19.426  0.00  0.00    +0.000 N 
ATOM     19  H   UNL     1       3.017   2.780  19.505  0.00  0.00    +0.000 HD
BRANCH  16  21
ATOM     20  C   UNL     1       1.605   2.439  21.026  0.00  0.00    +0.000 C 
ATOM     21  C   UNL     1       1.748   3.920  21.342  0.00  0.00    +0.000 C 
ENDBRANCH  16  21
ENDBRANCH   1  18
TORSDOF 3
ENDMDL
MODEL 9
REMARK VINA RESULT:      -7.2      1.018      1.018
REMARK  Name = 
REMARK  6 active torsions:
REMARK  status: ('A' for Active; 'I' for Inactive)
REMARK    1  A    between atoms: C_1  and  C_2
REMARK    2  A    between atoms: C_2  and  C_3
REMARK    3  A    between atoms: N_5  and  C_6
REMARK    4  A    between atoms: C_9  and  C_10
REMARK    5  A    between atoms: C_14  and  C_15
REMARK    6  A    between atoms: C_17  and  C_18
REMARK                            x       y       z     vdW  Elec       q    Type
REMARK                         _______ _______ _______ _____ _____    ______ ____
ROOT
ATOM      1  C   UNL     1       3.271   4.398  17.900  0.00  0.00    +0.000 A 
ATOM      2  C   UNL     1       3.582   5.706  17.525  0.00  0.00    +0.000 A 
ATOM      3  C   UNL     1       4.614   5.973  16.622  0.00  0.00    +0.000 A 
ATOM      4  C   UNL     1       5.345   4.929  16.059  0.00  0.00    +0.000 A 
ATOM      5  C   UNL     1       5.043   3.612  16.437  0.00  0.00    +0.000 A 
ATOM      6  C   UNL     1       4.016   3.348  17.357  0.00  0.00    +0.000 A 
ENDROOT
BRANCH   4   7
ATOM      7  C   UNL     1       6.491   5.175  15.138  0.00  0.00    +0.000 C 
ATOM      8  O   UNL     1       7.369   5.947  15.532  0.00  0.00    +0.000 OA
ATOM      9  N   UNL     1       6.649   4.606  13.846  0.00  0.00    +0.000 N 
ATOM     10  N   UNL     1       5.783   3.647  13.411  0.00  0.00    +0.000 NA
ATOM     11  C   UNL     1       6.180   3.339  12.174  0.00  0.00    +0.000 A 
ATOM     12  C   UNL     1       5.441   2.331  11.375  0.00  0.00    +0.000 C 
ATOM     13  C   UNL     1       7.324   4.066  11.801  0.00  0.00    +0.000 A 
ATOM     14  C   UNL     1       7.622   4.862  12.886  0.00  0.00    +0.000 A 
ATOM     15  C   UNL     1       8.722   5.841  13.071  0.00  0.00    +0.000 C 
ENDBRANCH   4   7
BRANCH   1  18
ATOM     16  C   UNL     1       2.243   4.530  20.162  0.00  0.00    +0.000 C 
ATOM     17  O   UNL     1       3.001   5.359  20.658  0.00  0.00    +0.000 OA
ATOM     18  N   UNL     1       2.264   4.096  18.843  0.00  0.00    +0.000 N 
ATOM     19  H   UNL     1       1.467   3.567  18.511  0.00  0.00    +0.000 HD
BRANCH  16  21
ATOM     20  C   UNL     1       1.658   2.564  21.592  0.00  0.00    +0.000 C 
ATOM     21  C   UNL     1       1.155   3.863  20.981  0.00  0.00    +0.000 C 
ENDBRANCH  16  21
ENDBRANCH   1  18
TORSDOF 3
ENDMDL
