MODEL 1
REMARK VINA RESULT:      -6.4      0.000      0.000
REMARK  Name = 
REMARK  4 active torsions:
REMARK  status: ('A' for Active; 'I' for Inactive)
REMARK    1  A    between atoms: C_2  and  C_3
REMARK    2  A    between atoms: C_3  and  N_4
REMARK    3  A    between atoms: C_6  and  C_7
REMARK    4  A    between atoms: N_12  and  C_13
REMARK                            x       y       z     vdW  Elec       q    Type
REMARK                         _______ _______ _______ _____ _____    ______ ____
ROOT
ATOM      1  N   UNL     1       5.092   4.527  16.370  0.00  0.00    +0.000 N 
ATOM      2  N   UNL     1       3.988   3.886  16.892  0.00  0.00    +0.000 NA
ATOM      3  C   UNL     1       3.303   4.834  17.484  0.00  0.00    +0.000 A 
ATOM      4  N   UNL     1       3.867   6.058  17.366  0.00  0.00    +0.000 N 
ATOM      5  C   UNL     1       3.446   7.383  17.759  0.00  0.00    +0.000 C 
ATOM      6  C   UNL     1       5.026   5.883  16.641  0.00  0.00    +0.000 A 
ATOM      7  O   UNL     1       5.795   6.760  16.278  0.00  0.00    +0.000 OA
ENDROOT
BRANCH   3   8
ATOM      8  C   UNL     1       1.940   4.585  18.156  0.00  0.00    +0.000 C 
ATOM      9  C   UNL     1       1.970   4.493  19.677  0.00  0.00    +0.000 C 
ATOM     10  C   UNL     1       0.942   3.447  20.017  0.00  0.00    +0.000 C 
ATOM     11  C   UNL     1       1.001   2.539  18.818  0.00  0.00    +0.000 C 
ATOM     12  O   UNL     1       1.316   3.371  17.698  0.00  0.00    +0.000 OA
ENDBRANCH   3   8
BRANCH   1  13
ATOM     13  C   UNL     1       6.028   3.918  15.457  0.00  0.00    +0.000 C 
BRANCH  13  15
ATOM     14  C   UNL     1       6.207   3.628  12.966  0.00  0.00    +0.000 C 
ATOM     15  C   UNL     1       5.546   4.071  14.045  0.00  0.00    +0.000 C 
ENDBRANCH  13  15
ENDBRANCH   1  13
TORSDOF 3
ENDMDL
MODEL 2
REMARK VINA RESULT:      -6.2      1.806      2.106
REMARK  Name = 
REMARK  4 active torsions:
REMARK  status: ('A' for Active; 'I' for Inactive)
REMARK    1  A    between atoms: C_2  and  C_3
REMARK    2  A    between atoms: C_3  and  N_4
REMARK    3  A    between atoms: C_6  and  C_7
REMARK    4  A    between atoms: N_12  and  C_13
REMARK                            x       y       z     vdW  Elec       q    Type
REMARK                         _______ _______ _______ _____ _____    ______ ____
ROOT
ATOM      1  N   UNL     1       6.282   4.443  15.546  0.00  0.00    +0.000 N 
ATOM      2  N   UNL     1       5.232   3.699  16.045  0.00  0.00    +0.000 NA
ATOM      3  C   UNL     1       5.142   4.056  17.303  0.00  0.00    +0.000 A 
ATOM      4  N   UNL     1       6.042   5.002  17.659  0.00  0.00    +0.000 N 
ATOM      5  C   UNL     1       6.260   5.751  18.874  0.00  0.00    +0.000 C 
ATOM      6  C   UNL     1       6.787   5.271  16.532  0.00  0.00    +0.000 A 
ATOM      7  O   UNL     1       7.672   6.108  16.431  0.00  0.00    +0.000 OA
ENDROOT
BRANCH   3   8
ATOM      8  C   UNL     1       4.048   3.522  18.246  0.00  0.00    +0.000 C 
ATOM      9  C   UNL     1       3.444   2.180  17.850  0.00  0.00    +0.000 C 
ATOM     10  C   UNL     1       1.992   2.287  18.231  0.00  0.00    +0.000 C 
ATOM     11  C   UNL     1       1.722   3.757  18.051  0.00  0.00    +0.000 C 
ATOM     12  O   UNL     1       2.941   4.433  18.374  0.00  0.00    +0.000 OA
ENDBRANCH   3   8
BRANCH   1  13
ATOM     13  C   UNL     1       6.618   4.534  14.146  0.00  0.00    +0.000 C 
BRANCH  13  15
ATOM     14  C   UNL     1       5.855   3.213  12.148  0.00  0.00    +0.000 C 
ATOM     15  C   UNL     1       5.598   3.810  13.320  0.00  0.00    +0.000 C 
ENDBRANCH  13  15
ENDBRANCH   1  13
TORSDOF 3
ENDMDL
MODEL 3
REMARK VINA RESULT:      -6.1      2.419      3.176
REMARK  Name = 
REMARK  4 active torsions:
REMARK  status: ('A' for Active; 'I' for Inactive)
REMARK    1  A    between atoms: C_2  and  C_3
REMARK    2  A    between atoms: C_3  and  N_4
REMARK    3  A    between atoms: C_6  and  C_7
REMARK    4  A    between atoms: N_12  and  C_13
REMARK                            x       y       z     vdW  Elec       q    Type
REMARK                         _______ _______ _______ _____ _____    ______ ____
ROOT
ATOM      1  N   UNL     1       5.941   4.768  18.146  0.00  0.00    +0.000 N 
ATOM      2  N   UNL     1       5.326   4.904  19.374  0.00  0.00    +0.000 NA
ATOM      3  C   UNL     1       4.126   4.406  19.200  0.00  0.00    +0.000 A 
ATOM      4  N   UNL     1       3.917   3.927  17.952  0.00  0.00    +0.000 N 
ATOM      5  C   UNL     1       2.819   3.223  17.333  0.00  0.00    +0.000 C 
ATOM      6  C   UNL     1       5.085   4.146  17.253  0.00  0.00    +0.000 A 
ATOM      7  O   UNL     1       5.316   3.809  16.102  0.00  0.00    +0.000 OA
ENDROOT
BRANCH   3   8
ATOM      8  C   UNL     1       3.098   4.288  20.341  0.00  0.00    +0.000 C 
ATOM      9  C   UNL     1       2.817   2.869  20.821  0.00  0.00    +0.000 C 
ATOM     10  C   UNL     1       1.349   2.862  21.155  0.00  0.00    +0.000 C 
ATOM     11  C   UNL     1       0.795   3.867  20.181  0.00  0.00    +0.000 C 
ATOM     12  O   UNL     1       1.819   4.847  19.988  0.00  0.00    +0.000 OA
ENDBRANCH   3   8
BRANCH   1  13
ATOM     13  C   UNL     1       7.346   4.993  17.913  0.00  0.00    +0.000 C 
BRANCH  13  15
ATOM     14  C   UNL     1       7.591   7.473  17.576  0.00  0.00    +0.000 C 
ATOM     15  C   UNL     1       7.725   6.379  18.341  0.00  0.00    +0.000 C 
ENDBRANCH  13  15
ENDBRANCH   1  13
TORSDOF 3
ENDMDL
MODEL 4
REMARK VINA RESULT:      -6.1      2.502      3.764
REMARK  Name = 
REMARK  4 active torsions:
REMARK  status: ('A' for Active; 'I' for Inactive)
REMARK    1  A    between atoms: C_2  and  C_3
REMARK    2  A    between atoms: C_3  and  N_4
REMARK    3  A    between atoms: C_6  and  C_7
REMARK    4  A    between atoms: N_12  and  C_13
REMARK                            x       y       z     vdW  Elec       q    Type
REMARK                         _______ _______ _______ _____ _____    ______ ____
ROOT
ATOM      1  N   UNL     1       6.867   6.173  17.738  0.00  0.00    +0.000 N 
ATOM      2  N   UNL     1       5.841   5.644  18.493  0.00  0.00    +0.000 NA
ATOM      3  C   UNL     1       5.235   4.806  17.688  0.00  0.00    +0.000 A 
ATOM      4  N   UNL     1       5.807   4.727  16.464  0.00  0.00    +0.000 N 
ATOM      5  C   UNL     1       5.558   3.898  15.308  0.00  0.00    +0.000 C 
ATOM      6  C   UNL     1       6.872   5.601  16.477  0.00  0.00    +0.000 A 
ATOM      7  O   UNL     1       7.672   5.783  15.572  0.00  0.00    +0.000 OA
ENDROOT
BRANCH   3   8
ATOM      8  C   UNL     1       4.053   3.925  18.134  0.00  0.00    +0.000 C 
ATOM      9  C   UNL     1       2.679   4.392  17.667  0.00  0.00    +0.000 C 
ATOM     10  C   UNL     1       1.756   4.064  18.810  0.00  0.00    +0.000 C 
ATOM     11  C   UNL     1       2.662   4.203  20.003  0.00  0.00    +0.000 C 
ATOM     12  O   UNL     1       3.966   3.809  19.567  0.00  0.00    +0.000 OA
ENDBRANCH   3   8
BRANCH   1  13
ATOM     13  C   UNL     1       7.928   6.992  18.270  0.00  0.00    +0.000 C 
BRANCH  13  15
ATOM     14  C   UNL     1       8.482   9.444  18.220  0.00  0.00    +0.000 C 
ATOM     15  C   UNL     1       7.837   8.382  17.716  0.00  0.00    +0.000 C 
ENDBRANCH  13  15
ENDBRANCH   1  13
TORSDOF 3
ENDMDL
MODEL 5
REMARK VINA RESULT:      -6.0      2.128      5.683
REMARK  Name = 
REMARK  4 active torsions:
REMARK  status: ('A' for Active; 'I' for Inactive)
REMARK    1  A    between atoms: C_2  and  C_3
REMARK    2  A    between atoms: C_3  and  N_4
REMARK    3  A    between atoms: C_6  and  C_7
REMARK    4  A    between atoms: N_12  and  C_13
REMARK                            x       y       z     vdW  Elec       q    Type
REMARK                         _______ _______ _______ _____ _____    ______ ____
ROOT
ATOM      1  N   UNL     1       2.383   4.260  19.394  0.00  0.00    +0.000 N 
ATOM      2  N   UNL     1       3.525   4.884  19.851  0.00  0.00    +0.000 NA
ATOM      3  C   UNL     1       4.371   4.799  18.854  0.00  0.00    +0.000 A 
ATOM      4  N   UNL     1       3.856   4.185  17.763  0.00  0.00    +0.000 N 
ATOM      5  C   UNL     1       4.362   3.948  16.431  0.00  0.00    +0.000 C 
ATOM      6  C   UNL     1       2.565   3.833  18.090  0.00  0.00    +0.000 A 
ATOM      7  O   UNL     1       1.749   3.301  17.352  0.00  0.00    +0.000 OA
ENDROOT
BRANCH   3   8
ATOM      8  C   UNL     1       5.775   5.430  18.894  0.00  0.00    +0.000 C 
ATOM      9  C   UNL     1       6.062   6.452  17.800  0.00  0.00    +0.000 C 
ATOM     10  C   UNL     1       7.512   6.244  17.453  0.00  0.00    +0.000 C 
ATOM     11  C   UNL     1       7.695   4.774  17.717  0.00  0.00    +0.000 C 
ATOM     12  O   UNL     1       6.822   4.447  18.802  0.00  0.00    +0.000 OA
ENDBRANCH   3   8
BRANCH   1  13
ATOM     13  C   UNL     1       1.112   4.290  20.077  0.00  0.00    +0.000 C 
BRANCH  13  15
ATOM     14  C   UNL     1       1.726   2.559  21.793  0.00  0.00    +0.000 C 
ATOM     15  C   UNL     1       0.904   3.015  20.838  0.00  0.00    +0.000 C 
ENDBRANCH  13  15
ENDBRANCH   1  13
TORSDOF 3
ENDMDL
MODEL 6
REMARK VINA RESULT:      -6.0      1.215      1.475
REMARK  Name = 
REMARK  4 active torsions:
REMARK  status: ('A' for Active; 'I' for Inactive)
REMARK    1  A    between atoms: C_2  and  C_3
REMARK    2  A    between atoms: C_3  and  N_4
REMARK    3  A    between atoms: C_6  and  C_7
REMARK    4  A    between atoms: N_12  and  C_13
REMARK                            x       y       z     vdW  Elec       q    Type
REMARK                         _______ _______ _______ _____ _____    ______ ____
ROOT
ATOM      1  N   UNL     1       5.697   4.576  15.661  0.00  0.00    +0.000 N 
ATOM      2  N   UNL     1       5.054   3.621  16.421  0.00  0.00    +0.000 NA
ATOM      3  C   UNL     1       4.313   4.307  17.257  0.00  0.00    +0.000 A 
ATOM      4  N   UNL     1       4.402   5.645  17.082  0.00  0.00    +0.000 N 
ATOM      5  C   UNL     1       3.723   6.769  17.683  0.00  0.00    +0.000 C 
ATOM      6  C   UNL     1       5.291   5.842  16.047  0.00  0.00    +0.000 A 
ATOM      7  O   UNL     1       5.604   6.915  15.553  0.00  0.00    +0.000 OA
ENDROOT
BRANCH   3   8
ATOM      8  C   UNL     1       3.357   3.641  18.265  0.00  0.00    +0.000 C 
ATOM      9  C   UNL     1       1.878   3.944  18.060  0.00  0.00    +0.000 C 
ATOM     10  C   UNL     1       1.308   4.028  19.450  0.00  0.00    +0.000 C 
ATOM     11  C   UNL     1       2.478   4.543  20.245  0.00  0.00    +0.000 C 
ATOM     12  O   UNL     1       3.652   4.008  19.625  0.00  0.00    +0.000 OA
ENDBRANCH   3   8
BRANCH   1  13
ATOM     13  C   UNL     1       6.464   4.288  14.474  0.00  0.00    +0.000 C 
BRANCH  13  15
ATOM     14  C   UNL     1       5.932   3.240  12.251  0.00  0.00    +0.000 C 
ATOM     15  C   UNL     1       5.550   3.914  13.346  0.00  0.00    +0.000 C 
ENDBRANCH  13  15
ENDBRANCH   1  13
TORSDOF 3
ENDMDL
MODEL 7
REMARK VINA RESULT:      -6.0      2.046      2.874
REMARK  Name = 
REMARK  4 active torsions:
REMARK  status: ('A' for Active; 'I' for Inactive)
REMARK    1  A    between atoms: C_2  and  C_3
REMARK    2  A    between atoms: C_3  and  N_4
REMARK    3  A    between atoms: C_6  and  C_7
REMARK    4  A    between atoms: N_12  and  C_13
REMARK                            x       y       z     vdW  Elec       q    Type
REMARK                         _______ _______ _______ _____ _____    ______ ____
ROOT
ATOM      1  N   UNL     1       6.313   4.074  14.249  0.00  0.00    +0.000 N 
ATOM      2  N   UNL     1       5.341   3.651  15.132  0.00  0.00    +0.000 NA
ATOM      3  C   UNL     1       5.597   4.301  16.242  0.00  0.00    +0.000 A 
ATOM      4  N   UNL     1       6.652   5.141  16.142  0.00  0.00    +0.000 N 
ATOM      5  C   UNL     1       7.236   6.106  17.044  0.00  0.00    +0.000 C 
ATOM      6  C   UNL     1       7.128   5.014  14.855  0.00  0.00    +0.000 A 
ATOM      7  O   UNL     1       8.047   5.646  14.356  0.00  0.00    +0.000 OA
ENDROOT
BRANCH   3   8
ATOM      8  C   UNL     1       4.712   4.188  17.497  0.00  0.00    +0.000 C 
ATOM      9  C   UNL     1       3.779   2.984  17.532  0.00  0.00    +0.000 C 
ATOM     10  C   UNL     1       2.529   3.489  18.202  0.00  0.00    +0.000 C 
ATOM     11  C   UNL     1       2.508   4.937  17.791  0.00  0.00    +0.000 C 
ATOM     12  O   UNL     1       3.875   5.345  17.684  0.00  0.00    +0.000 OA
ENDBRANCH   3   8
BRANCH   1  13
ATOM     13  C   UNL     1       6.310   3.780  12.837  0.00  0.00    +0.000 C 
BRANCH  13  15
ATOM     14  C   UNL     1       4.332   3.349  11.346  0.00  0.00    +0.000 C 
ATOM     15  C   UNL     1       5.037   3.086  12.456  0.00  0.00    +0.000 C 
ENDBRANCH  13  15
ENDBRANCH   1  13
TORSDOF 3
ENDMDL
MODEL 8
REMARK VINA RESULT:      -5.9      1.689      1.914
REMARK  Name = 
REMARK  4 active torsions:
REMARK  status: ('A' for Active; 'I' for Inactive)
REMARK    1  A    between atoms: C_2  and  C_3
REMARK    2  A    between atoms: C_3  and  N_4
REMARK    3  A    between atoms: C_6  and  C_7
REMARK    4  A    between atoms: N_12  and  C_13
REMARK                            x       y       z     vdW  Elec       q    Type
REMARK                         _______ _______ _______ _____ _____    ______ ____
ROOT
ATOM      1  N   UNL     1       6.081   4.354  15.810  0.00  0.00    +0.000 N 
ATOM      2  N   UNL     1       4.774   3.954  16.001  0.00  0.00    +0.000 NA
ATOM      3  C   UNL     1       4.557   4.134  17.281  0.00  0.00    +0.000 A 
ATOM      4  N   UNL     1       5.620   4.650  17.941  0.00  0.00    +0.000 N 
ATOM      5  C   UNL     1       5.820   5.095  19.300  0.00  0.00    +0.000 C 
ATOM      6  C   UNL     1       6.618   4.806  17.003  0.00  0.00    +0.000 A 
ATOM      7  O   UNL     1       7.723   5.291  17.194  0.00  0.00    +0.000 OA
ENDROOT
BRANCH   3   8
ATOM      8  C   UNL     1       3.188   3.880  17.939  0.00  0.00    +0.000 C 
ATOM      9  C   UNL     1       2.487   5.118  18.486  0.00  0.00    +0.000 C 
ATOM     10  C   UNL     1       1.794   4.644  19.736  0.00  0.00    +0.000 C 
ATOM     11  C   UNL     1       2.709   3.548  20.212  0.00  0.00    +0.000 C 
ATOM     12  O   UNL     1       3.271   2.954  19.038  0.00  0.00    +0.000 OA
ENDBRANCH   3   8
BRANCH   1  13
ATOM     13  C   UNL     1       6.697   4.524  14.517  0.00  0.00    +0.000 C 
BRANCH  13  15
ATOM     14  C   UNL     1       6.398   3.500  12.240  0.00  0.00    +0.000 C 
ATOM     15  C   UNL     1       5.949   3.741  13.481  0.00  0.00    +0.000 C 
ENDBRANCH  13  15
ENDBRANCH   1  13
TORSDOF 3
ENDMDL
MODEL 9
REMARK VINA RESULT:      -5.9      2.123      3.307
REMARK  Name = 
REMARK  4 active torsions:
REMARK  status: ('A' for Active; 'I' for Inactive)
REMARK    1  A    between atoms: C_2  and  C_3
REMARK    2  A    between atoms: C_3  and  N_4
REMARK    3  A    between atoms: C_6  and  C_7
REMARK    4  A    between atoms: N_12  and  C_13
REMARK                            x       y       z     vdW  Elec       q    Type
REMARK                         _______ _______ _______ _____ _____    ______ ____
ROOT
ATOM      1  N   UNL     1       6.680   4.934  17.495  0.00  0.00    +0.000 N 
ATOM      2  N   UNL     1       5.488   4.433  17.977  0.00  0.00    +0.000 NA
ATOM      3  C   UNL     1       4.788   4.155  16.904  0.00  0.00    +0.000 A 
ATOM      4  N   UNL     1       5.446   4.414  15.750  0.00  0.00    +0.000 N 
ATOM      5  C   UNL     1       5.128   4.191  14.359  0.00  0.00    +0.000 C 
ATOM      6  C   UNL     1       6.678   4.914  16.111  0.00  0.00    +0.000 A 
ATOM      7  O   UNL     1       7.586   5.223  15.354  0.00  0.00    +0.000 OA
ENDROOT
BRANCH   3   8
ATOM      8  C   UNL     1       3.394   3.502  16.962  0.00  0.00    +0.000 C 
ATOM      9  C   UNL     1       2.315   4.328  17.652  0.00  0.00    +0.000 C 
ATOM     10  C   UNL     1       1.463   3.317  18.372  0.00  0.00    +0.000 C 
ATOM     11  C   UNL     1       2.457   2.237  18.702  0.00  0.00    +0.000 C 
ATOM     12  O   UNL     1       3.413   2.230  17.637  0.00  0.00    +0.000 OA
ENDBRANCH   3   8
BRANCH   1  13
ATOM     13  C   UNL     1       7.844   5.184  18.310  0.00  0.00    +0.000 C 
BRANCH  13  15
ATOM     14  C   UNL     1       7.901   7.666  17.914  0.00  0.00    +0.000 C 
ATOM     15  C   UNL     1       7.869   6.618  18.749  0.00  0.00    +0.000 C 
ENDBRANCH  13  15
ENDBRANCH   1  13
TORSDOF 3
ENDMDL
