MODEL 1
REMARK VINA RESULT:      -7.1      0.000      0.000
REMARK  Name = 
REMARK  8 active torsions:
REMARK  status: ('A' for Active; 'I' for Inactive)
REMARK    1  A    between atoms: C_1  and  C_2
REMARK    2  A    between atoms: C_2  and  O_3
REMARK    3  A    between atoms: O_3  and  C_4
REMARK    4  A    between atoms: C_4  and  C_6
REMARK    5  A    between atoms: C_6  and  C_7
REMARK    6  A    between atoms: C_6  and  S_9
REMARK    7  A    between atoms: C_7  and  C_8
REMARK    8  A    between atoms: S_9  and  C_10
REMARK                            x       y       z     vdW  Elec       q    Type
REMARK                         _______ _______ _______ _____ _____    ______ ____
ROOT
ATOM      1  C   UNL     1       4.057   5.554  17.330  0.00  0.00    +0.000 A 
ATOM      2  N   UNL     1       4.262   6.803  16.858  0.00  0.00    +0.000 NA
ATOM      3  C   UNL     1       3.644   7.821  17.473  0.00  0.00    +0.000 A 
ATOM      4  N   UNL     1       2.834   7.760  18.529  0.00  0.00    +0.000 NA
ATOM      5  C   UNL     1       2.638   6.503  18.959  0.00  0.00    +0.000 A 
ATOM      6  S   UNL     1       1.612   6.217  20.288  0.00  0.00    +0.000 S 
ATOM      7  C   UNL     1       1.888   4.546  20.212  0.00  0.00    +0.000 A 
ATOM      8  C   UNL     1       2.716   4.185  19.162  0.00  0.00    +0.000 A 
ATOM      9  C   UNL     1       3.193   5.340  18.427  0.00  0.00    +0.000 A 
ATOM     10  C   UNL     1       3.076   2.744  18.923  0.00  0.00    +0.000 C 
ATOM     11  C   UNL     1       2.193   1.772  19.720  0.00  0.00    +0.000 C 
ATOM     12  C   UNL     1       1.976   2.249  21.159  0.00  0.00    +0.000 C 
ATOM     13  C   UNL     1       1.257   3.603  21.190  0.00  0.00    +0.000 C 
ENDROOT
BRANCH   1  14
ATOM     14  S   UNL     1       4.749   4.206  16.406  0.00  0.00    +0.000 S 
BRANCH  14  15
ATOM     15  C   UNL     1       6.126   5.006  15.435  0.00  0.00    +0.000 C 
BRANCH  15  16
ATOM     16  C   UNL     1       7.322   5.246  16.351  0.00  0.00    +0.000 C 
ATOM     17  O   UNL     1       7.919   4.362  16.977  0.00  0.00    +0.000 OA
BRANCH  16  18
ATOM     18  O   UNL     1       7.612   6.576  16.457  0.00  0.00    +0.000 OA
BRANCH  18  20
ATOM     19  C   UNL     1       7.928   8.548  17.784  0.00  0.00    +0.000 C 
ATOM     20  C   UNL     1       7.652   7.055  17.812  0.00  0.00    +0.000 C 
ENDBRANCH  18  20
ENDBRANCH  16  18
ENDBRANCH  15  16
BRANCH  15  21
ATOM     21  C   UNL     1       6.519   4.111  14.235  0.00  0.00    +0.000 C 
ATOM     22  C   UNL     1       5.403   3.851  13.225  0.00  0.00    +0.000 C 
ENDBRANCH  15  21
ENDBRANCH  14  15
ENDBRANCH   1  14
TORSDOF 6
ENDMDL
MODEL 2
REMARK VINA RESULT:      -6.9      1.982      4.463
REMARK  Name = 
REMARK  8 active torsions:
REMARK  status: ('A' for Active; 'I' for Inactive)
REMARK    1  A    between atoms: C_1  and  C_2
REMARK    2  A    between atoms: C_2  and  O_3
REMARK    3  A    between atoms: O_3  and  C_4
REMARK    4  A    between atoms: C_4  and  C_6
REMARK    5  A    between atoms: C_6  and  C_7
REMARK    6  A    between atoms: C_6  and  S_9
REMARK    7  A    between atoms: C_7  and  C_8
REMARK    8  A    between atoms: S_9  and  C_10
REMARK                            x       y       z     vdW  Elec       q    Type
REMARK                         _______ _______ _______ _____ _____    ______ ____
ROOT
ATOM      1  C   UNL     1       4.007   5.218  17.997  0.00  0.00    +0.000 A 
ATOM      2  N   UNL     1       4.366   3.981  18.402  0.00  0.00    +0.000 NA
ATOM      3  C   UNL     1       3.869   3.525  19.560  0.00  0.00    +0.000 A 
ATOM      4  N   UNL     1       3.033   4.151  20.387  0.00  0.00    +0.000 NA
ATOM      5  C   UNL     1       2.712   5.384  19.964  0.00  0.00    +0.000 A 
ATOM      6  S   UNL     1       1.670   6.354  20.899  0.00  0.00    +0.000 S 
ATOM      7  C   UNL     1       1.750   7.621  19.775  0.00  0.00    +0.000 A 
ATOM      8  C   UNL     1       2.594   7.345  18.712  0.00  0.00    +0.000 A 
ATOM      9  C   UNL     1       3.150   6.008  18.795  0.00  0.00    +0.000 A 
ATOM     10  C   UNL     1       2.804   8.349  17.612  0.00  0.00    +0.000 C 
ATOM     11  C   UNL     1       2.274   9.744  17.974  0.00  0.00    +0.000 C 
ATOM     12  C   UNL     1       0.905   9.674  18.657  0.00  0.00    +0.000 C 
ATOM     13  C   UNL     1       0.984   8.893  19.975  0.00  0.00    +0.000 C 
ENDROOT
BRANCH   1  14
ATOM     14  S   UNL     1       4.802   5.868  16.550  0.00  0.00    +0.000 S 
BRANCH  14  15
ATOM     15  C   UNL     1       6.509   5.120  16.617  0.00  0.00    +0.000 C 
BRANCH  15  16
ATOM     16  C   UNL     1       6.999   4.842  15.199  0.00  0.00    +0.000 C 
ATOM     17  O   UNL     1       7.786   5.561  14.571  0.00  0.00    +0.000 OA
BRANCH  16  18
ATOM     18  O   UNL     1       6.402   3.733  14.672  0.00  0.00    +0.000 OA
BRANCH  18  20
ATOM     19  C   UNL     1       6.274   3.342  12.310  0.00  0.00    +0.000 C 
ATOM     20  C   UNL     1       5.607   4.001  13.505  0.00  0.00    +0.000 C 
ENDBRANCH  18  20
ENDBRANCH  16  18
ENDBRANCH  15  16
BRANCH  15  21
ATOM     21  C   UNL     1       7.476   6.072  17.360  0.00  0.00    +0.000 C 
ATOM     22  C   UNL     1       7.612   5.821  18.860  0.00  0.00    +0.000 C 
ENDBRANCH  15  21
ENDBRANCH  14  15
ENDBRANCH   1  14
TORSDOF 6
ENDMDL
MODEL 3
REMARK VINA RESULT:      -6.7      3.244      5.860
REMARK  Name = 
REMARK  8 active torsions:
REMARK  status: ('A' for Active; 'I' for Inactive)
REMARK    1  A    between atoms: C_1  and  C_2
REMARK    2  A    between atoms: C_2  and  O_3
REMARK    3  A    between atoms: O_3  and  C_4
REMARK    4  A    between atoms: C_4  and  C_6
REMARK    5  A    between atoms: C_6  and  C_7
REMARK    6  A    between atoms: C_6  and  S_9
REMARK    7  A    between atoms: C_7  and  C_8
REMARK    8  A    between atoms: S_9  and  C_10
REMARK                            x       y       z     vdW  Elec       q    Type
REMARK                         _______ _______ _______ _____ _____    ______ ____
ROOT
ATOM      1  C   UNL     1       3.188   6.208  19.055  0.00  0.00    +0.000 A 
ATOM      2  N   UNL     1       4.015   5.889  18.035  0.00  0.00    +0.000 NA
ATOM      3  C   UNL     1       4.159   6.772  17.037  0.00  0.00    +0.000 A 
ATOM      4  N   UNL     1       3.580   7.966  16.920  0.00  0.00    +0.000 NA
ATOM      5  C   UNL     1       2.752   8.242  17.939  0.00  0.00    +0.000 A 
ATOM      6  S   UNL     1       1.898   9.716  17.958  0.00  0.00    +0.000 S 
ATOM      7  C   UNL     1       1.162   9.335  19.437  0.00  0.00    +0.000 A 
ATOM      8  C   UNL     1       1.516   8.082  19.907  0.00  0.00    +0.000 A 
ATOM      9  C   UNL     1       2.483   7.433  19.043  0.00  0.00    +0.000 A 
ATOM     10  C   UNL     1       0.962   7.558  21.204  0.00  0.00    +0.000 C 
ATOM     11  C   UNL     1      -0.224   8.388  21.719  0.00  0.00    +0.000 C 
ATOM     12  C   UNL     1       0.030   9.891  21.579  0.00  0.00    +0.000 C 
ATOM     13  C   UNL     1       0.219  10.286  20.108  0.00  0.00    +0.000 C 
ENDROOT
BRANCH   1  14
ATOM     14  S   UNL     1       2.883   4.963  20.282  0.00  0.00    +0.000 S 
BRANCH  14  15
ATOM     15  C   UNL     1       1.262   4.212  19.745  0.00  0.00    +0.000 C 
BRANCH  15  16
ATOM     16  C   UNL     1       1.394   3.680  18.321  0.00  0.00    +0.000 C 
ATOM     17  O   UNL     1       1.059   4.299  17.304  0.00  0.00    +0.000 OA
BRANCH  16  18
ATOM     18  O   UNL     1       1.862   2.398  18.307  0.00  0.00    +0.000 OA
BRANCH  18  20
ATOM     19  C   UNL     1       3.900   1.156  18.544  0.00  0.00    +0.000 C 
ATOM     20  C   UNL     1       3.197   2.272  17.790  0.00  0.00    +0.000 C 
ENDBRANCH  18  20
ENDBRANCH  16  18
ENDBRANCH  15  16
BRANCH  15  21
ATOM     21  C   UNL     1       0.851   3.084  20.721  0.00  0.00    +0.000 C 
ATOM     22  C   UNL     1       1.905   2.706  21.760  0.00  0.00    +0.000 C 
ENDBRANCH  15  21
ENDBRANCH  14  15
ENDBRANCH   1  14
TORSDOF 6
ENDMDL
MODEL 4
REMARK VINA RESULT:      -6.7      1.278      2.911
REMARK  Name = 
REMARK  8 active torsions:
REMARK  status: ('A' for Active; 'I' for Inactive)
REMARK    1  A    between atoms: C_1  and  C_2
REMARK    2  A    between atoms: C_2  and  O_3
REMARK    3  A    between atoms: O_3  and  C_4
REMARK    4  A    between atoms: C_4  and  C_6
REMARK    5  A    between atoms: C_6  and  C_7
REMARK    6  A    between atoms: C_6  and  S_9
REMARK    7  A    between atoms: C_7  and  C_8
REMARK    8  A    between atoms: S_9  and  C_10
REMARK                            x       y       z     vdW  Elec       q    Type
REMARK                         _______ _______ _______ _____ _____    ______ ____
ROOT
ATOM      1  C   UNL     1       4.343   5.440  17.137  0.00  0.00    +0.000 A 
ATOM      2  N   UNL     1       4.518   6.609  16.483  0.00  0.00    +0.000 NA
ATOM      3  C   UNL     1       3.906   7.700  16.963  0.00  0.00    +0.000 A 
ATOM      4  N   UNL     1       3.129   7.787  18.041  0.00  0.00    +0.000 NA
ATOM      5  C   UNL     1       2.962   6.604  18.656  0.00  0.00    +0.000 A 
ATOM      6  S   UNL     1       1.980   6.505  20.043  0.00  0.00    +0.000 S 
ATOM      7  C   UNL     1       2.274   4.843  20.202  0.00  0.00    +0.000 A 
ATOM      8  C   UNL     1       3.075   4.340  19.190  0.00  0.00    +0.000 A 
ATOM      9  C   UNL     1       3.515   5.381  18.281  0.00  0.00    +0.000 A 
ATOM     10  C   UNL     1       3.446   2.883  19.150  0.00  0.00    +0.000 C 
ATOM     11  C   UNL     1       2.600   2.030  20.107  0.00  0.00    +0.000 C 
ATOM     12  C   UNL     1       2.421   2.709  21.468  0.00  0.00    +0.000 C 
ATOM     13  C   UNL     1       1.685   4.048  21.326  0.00  0.00    +0.000 C 
ENDROOT
BRANCH   1  14
ATOM     14  S   UNL     1       5.025   3.978  16.397  0.00  0.00    +0.000 S 
BRANCH  14  15
ATOM     15  C   UNL     1       6.802   4.442  16.072  0.00  0.00    +0.000 C 
BRANCH  15  16
ATOM     16  C   UNL     1       6.962   4.850  14.611  0.00  0.00    +0.000 C 
ATOM     17  O   UNL     1       7.870   5.570  14.176  0.00  0.00    +0.000 OA
BRANCH  16  18
ATOM     18  O   UNL     1       5.934   4.383  13.845  0.00  0.00    +0.000 OA
BRANCH  18  20
ATOM     19  C   UNL     1       5.131   3.206  11.916  0.00  0.00    +0.000 C 
ATOM     20  C   UNL     1       6.359   3.599  12.718  0.00  0.00    +0.000 C 
ENDBRANCH  18  20
ENDBRANCH  16  18
ENDBRANCH  15  16
BRANCH  15  21
ATOM     21  C   UNL     1       7.232   5.588  17.018  0.00  0.00    +0.000 C 
ATOM     22  C   UNL     1       7.672   5.151  18.413  0.00  0.00    +0.000 C 
ENDBRANCH  15  21
ENDBRANCH  14  15
ENDBRANCH   1  14
TORSDOF 6
ENDMDL
MODEL 5
REMARK VINA RESULT:      -6.6      1.107      2.682
REMARK  Name = 
REMARK  8 active torsions:
REMARK  status: ('A' for Active; 'I' for Inactive)
REMARK    1  A    between atoms: C_1  and  C_2
REMARK    2  A    between atoms: C_2  and  O_3
REMARK    3  A    between atoms: O_3  and  C_4
REMARK    4  A    between atoms: C_4  and  C_6
REMARK    5  A    between atoms: C_6  and  C_7
REMARK    6  A    between atoms: C_6  and  S_9
REMARK    7  A    between atoms: C_7  and  C_8
REMARK    8  A    between atoms: S_9  and  C_10
REMARK                            x       y       z     vdW  Elec       q    Type
REMARK                         _______ _______ _______ _____ _____    ______ ____
ROOT
ATOM      1  C   UNL     1       3.764   6.695  17.777  0.00  0.00    +0.000 A 
ATOM      2  N   UNL     1       3.501   7.974  17.431  0.00  0.00    +0.000 NA
ATOM      3  C   UNL     1       2.610   8.657  18.162  0.00  0.00    +0.000 A 
ATOM      4  N   UNL     1       1.932   8.228  19.226  0.00  0.00    +0.000 NA
ATOM      5  C   UNL     1       2.203   6.948  19.530  0.00  0.00    +0.000 A 
ATOM      6  S   UNL     1       1.417   6.210  20.847  0.00  0.00    +0.000 S 
ATOM      7  C   UNL     1       2.242   4.751  20.594  0.00  0.00    +0.000 A 
ATOM      8  C   UNL     1       3.081   4.792  19.493  0.00  0.00    +0.000 A 
ATOM      9  C   UNL     1       3.090   6.100  18.868  0.00  0.00    +0.000 A 
ATOM     10  C   UNL     1       3.897   3.591  19.098  0.00  0.00    +0.000 C 
ATOM     11  C   UNL     1       3.448   2.308  19.813  0.00  0.00    +0.000 C 
ATOM     12  C   UNL     1       3.166   2.553  21.299  0.00  0.00    +0.000 C 
ATOM     13  C   UNL     1       2.030   3.567  21.487  0.00  0.00    +0.000 C 
ENDROOT
BRANCH   1  14
ATOM     14  S   UNL     1       4.819   5.756  16.704  0.00  0.00    +0.000 S 
BRANCH  14  15
ATOM     15  C   UNL     1       6.490   5.873  17.524  0.00  0.00    +0.000 C 
BRANCH  15  16
ATOM     16  C   UNL     1       7.419   4.812  16.942  0.00  0.00    +0.000 C 
ATOM     17  O   UNL     1       8.188   4.106  17.607  0.00  0.00    +0.000 OA
BRANCH  16  18
ATOM     18  O   UNL     1       7.354   4.784  15.579  0.00  0.00    +0.000 OA
BRANCH  18  20
ATOM     19  C   UNL     1       6.364   3.968  13.552  0.00  0.00    +0.000 C 
ATOM     20  C   UNL     1       6.436   3.806  15.061  0.00  0.00    +0.000 C 
ENDBRANCH  18  20
ENDBRANCH  16  18
ENDBRANCH  15  16
BRANCH  15  21
ATOM     21  C   UNL     1       7.079   7.291  17.329  0.00  0.00    +0.000 C 
ATOM     22  C   UNL     1       8.143   7.699  18.345  0.00  0.00    +0.000 C 
ENDBRANCH  15  21
ENDBRANCH  14  15
ENDBRANCH   1  14
TORSDOF 6
ENDMDL
MODEL 6
REMARK VINA RESULT:      -6.5      2.043      4.157
REMARK  Name = 
REMARK  8 active torsions:
REMARK  status: ('A' for Active; 'I' for Inactive)
REMARK    1  A    between atoms: C_1  and  C_2
REMARK    2  A    between atoms: C_2  and  O_3
REMARK    3  A    between atoms: O_3  and  C_4
REMARK    4  A    between atoms: C_4  and  C_6
REMARK    5  A    between atoms: C_6  and  C_7
REMARK    6  A    between atoms: C_6  and  S_9
REMARK    7  A    between atoms: C_7  and  C_8
REMARK    8  A    between atoms: S_9  and  C_10
REMARK                            x       y       z     vdW  Elec       q    Type
REMARK                         _______ _______ _______ _____ _____    ______ ____
ROOT
ATOM      1  C   UNL     1       3.858   3.749  18.218  0.00  0.00    +0.000 A 
ATOM      2  N   UNL     1       4.014   2.512  18.737  0.00  0.00    +0.000 NA
ATOM      3  C   UNL     1       3.510   2.268  19.955  0.00  0.00    +0.000 A 
ATOM      4  N   UNL     1       2.846   3.112  20.742  0.00  0.00    +0.000 NA
ATOM      5  C   UNL     1       2.725   4.337  20.204  0.00  0.00    +0.000 A 
ATOM      6  S   UNL     1       1.925   5.565  21.071  0.00  0.00    +0.000 S 
ATOM      7  C   UNL     1       2.165   6.682  19.818  0.00  0.00    +0.000 A 
ATOM      8  C   UNL     1       2.886   6.156  18.759  0.00  0.00    +0.000 A 
ATOM      9  C   UNL     1       3.200   4.755  18.961  0.00  0.00    +0.000 A 
ATOM     10  C   UNL     1       3.208   6.994  17.552  0.00  0.00    +0.000 C 
ATOM     11  C   UNL     1       2.955   8.491  17.786  0.00  0.00    +0.000 C 
ATOM     12  C   UNL     1       1.635   8.737  18.524  0.00  0.00    +0.000 C 
ATOM     13  C   UNL     1       1.649   8.085  19.912  0.00  0.00    +0.000 C 
ENDROOT
BRANCH   1  14
ATOM     14  S   UNL     1       4.673   4.101  16.681  0.00  0.00    +0.000 S 
BRANCH  14  15
ATOM     15  C   UNL     1       6.404   4.560  17.201  0.00  0.00    +0.000 C 
BRANCH  15  16
ATOM     16  C   UNL     1       6.980   5.572  16.215  0.00  0.00    +0.000 C 
ATOM     17  O   UNL     1       6.753   6.788  16.239  0.00  0.00    +0.000 OA
BRANCH  16  18
ATOM     18  O   UNL     1       7.724   4.960  15.248  0.00  0.00    +0.000 OA
BRANCH  18  20
ATOM     19  C   UNL     1       7.973   5.424  12.908  0.00  0.00    +0.000 C 
ATOM     20  C   UNL     1       7.056   4.858  13.980  0.00  0.00    +0.000 C 
ENDBRANCH  18  20
ENDBRANCH  16  18
ENDBRANCH  15  16
BRANCH  15  21
ATOM     21  C   UNL     1       6.392   5.134  18.638  0.00  0.00    +0.000 C 
ATOM     22  C   UNL     1       7.732   5.669  19.137  0.00  0.00    +0.000 C 
ENDBRANCH  15  21
ENDBRANCH  14  15
ENDBRANCH   1  14
TORSDOF 6
ENDMDL
MODEL 7
REMARK VINA RESULT:      -6.5      1.900      4.396
REMARK  Name = 
REMARK  8 active torsions:
REMARK  status: ('A' for Active; 'I' for Inactive)
REMARK    1  A    between atoms: C_1  and  C_2
REMARK    2  A    between atoms: C_2  and  O_3
REMARK    3  A    between atoms: O_3  and  C_4
REMARK    4  A    between atoms: C_4  and  C_6
REMARK    5  A    between atoms: C_6  and  C_7
REMARK    6  A    between atoms: C_6  and  S_9
REMARK    7  A    between atoms: C_7  and  C_8
REMARK    8  A    between atoms: S_9  and  C_10
REMARK                            x       y       z     vdW  Elec       q    Type
REMARK                         _______ _______ _______ _____ _____    ______ ____
ROOT
ATOM      1  C   UNL     1       3.998   5.472  18.202  0.00  0.00    +0.000 A 
ATOM      2  N   UNL     1       4.331   4.241  18.647  0.00  0.00    +0.000 NA
ATOM      3  C   UNL     1       3.740   3.790  19.762  0.00  0.00    +0.000 A 
ATOM      4  N   UNL     1       2.830   4.415  20.509  0.00  0.00    +0.000 NA
ATOM      5  C   UNL     1       2.537   5.642  20.048  0.00  0.00    +0.000 A 
ATOM      6  S   UNL     1       1.410   6.609  20.882  0.00  0.00    +0.000 S 
ATOM      7  C   UNL     1       1.576   7.868  19.758  0.00  0.00    +0.000 A 
ATOM      8  C   UNL     1       2.510   7.591  18.774  0.00  0.00    +0.000 A 
ATOM      9  C   UNL     1       3.068   6.260  18.917  0.00  0.00    +0.000 A 
ATOM     10  C   UNL     1       2.805   8.588  17.687  0.00  0.00    +0.000 C 
ATOM     11  C   UNL     1       2.235   9.981  17.990  0.00  0.00    +0.000 C 
ATOM     12  C   UNL     1       0.813   9.904  18.554  0.00  0.00    +0.000 C 
ATOM     13  C   UNL     1       0.785   9.134  19.880  0.00  0.00    +0.000 C 
ENDROOT
BRANCH   1  14
ATOM     14  S   UNL     1       4.908   6.118  16.823  0.00  0.00    +0.000 S 
BRANCH  14  15
ATOM     15  C   UNL     1       6.671   6.134  17.433  0.00  0.00    +0.000 C 
BRANCH  15  16
ATOM     16  C   UNL     1       7.413   4.921  16.880  0.00  0.00    +0.000 C 
ATOM     17  O   UNL     1       8.112   4.154  17.554  0.00  0.00    +0.000 OA
BRANCH  16  18
ATOM     18  O   UNL     1       7.273   4.825  15.525  0.00  0.00    +0.000 OA
BRANCH  18  20
ATOM     19  C   UNL     1       6.202   3.875  13.601  0.00  0.00    +0.000 C 
ATOM     20  C   UNL     1       6.379   3.780  15.107  0.00  0.00    +0.000 C 
ENDBRANCH  18  20
ENDBRANCH  16  18
ENDBRANCH  15  16
BRANCH  15  21
ATOM     21  C   UNL     1       7.367   7.450  17.010  0.00  0.00    +0.000 C 
ATOM     22  C   UNL     1       8.118   8.175  18.124  0.00  0.00    +0.000 C 
ENDBRANCH  15  21
ENDBRANCH  14  15
ENDBRANCH   1  14
TORSDOF 6
ENDMDL
MODEL 8
REMARK VINA RESULT:      -6.4      2.042      4.440
REMARK  Name = 
REMARK  8 active torsions:
REMARK  status: ('A' for Active; 'I' for Inactive)
REMARK    1  A    between atoms: C_1  and  C_2
REMARK    2  A    between atoms: C_2  and  O_3
REMARK    3  A    between atoms: O_3  and  C_4
REMARK    4  A    between atoms: C_4  and  C_6
REMARK    5  A    between atoms: C_6  and  C_7
REMARK    6  A    between atoms: C_6  and  S_9
REMARK    7  A    between atoms: C_7  and  C_8
REMARK    8  A    between atoms: S_9  and  C_10
REMARK                            x       y       z     vdW  Elec       q    Type
REMARK                         _______ _______ _______ _____ _____    ______ ____
ROOT
ATOM      1  C   UNL     1       3.240   4.261  18.620  0.00  0.00    +0.000 A 
ATOM      2  N   UNL     1       3.307   3.093  19.297  0.00  0.00    +0.000 NA
ATOM      3  C   UNL     1       2.795   3.049  20.534  0.00  0.00    +0.000 A 
ATOM      4  N   UNL     1       2.201   4.037  21.203  0.00  0.00    +0.000 NA
ATOM      5  C   UNL     1       2.168   5.186  20.509  0.00  0.00    +0.000 A 
ATOM      6  S   UNL     1       1.468   6.573  21.206  0.00  0.00    +0.000 S 
ATOM      7  C   UNL     1       1.782   7.496  19.819  0.00  0.00    +0.000 A 
ATOM      8  C   UNL     1       2.453   6.783  18.839  0.00  0.00    +0.000 A 
ATOM      9  C   UNL     1       2.664   5.401  19.223  0.00  0.00    +0.000 A 
ATOM     10  C   UNL     1       2.828   7.430  17.534  0.00  0.00    +0.000 C 
ATOM     11  C   UNL     1       2.689   8.960  17.569  0.00  0.00    +0.000 C 
ATOM     12  C   UNL     1       1.397   9.398  18.265  0.00  0.00    +0.000 C 
ATOM     13  C   UNL     1       1.372   8.934  19.727  0.00  0.00    +0.000 C 
ENDROOT
BRANCH   1  14
ATOM     14  S   UNL     1       4.067   4.347  17.052  0.00  0.00    +0.000 S 
BRANCH  14  15
ATOM     15  C   UNL     1       5.872   4.412  17.516  0.00  0.00    +0.000 C 
BRANCH  15  16
ATOM     16  C   UNL     1       6.726   4.226  16.265  0.00  0.00    +0.000 C 
ATOM     17  O   UNL     1       7.919   4.539  16.173  0.00  0.00    +0.000 OA
BRANCH  16  18
ATOM     18  O   UNL     1       5.989   3.737  15.225  0.00  0.00    +0.000 OA
BRANCH  18  20
ATOM     19  C   UNL     1       5.523   3.597  12.876  0.00  0.00    +0.000 C 
ATOM     20  C   UNL     1       6.464   4.150  13.933  0.00  0.00    +0.000 C 
ENDBRANCH  18  20
ENDBRANCH  16  18
ENDBRANCH  15  16
BRANCH  15  21
ATOM     21  C   UNL     1       6.194   5.756  18.211  0.00  0.00    +0.000 C 
ATOM     22  C   UNL     1       7.217   5.676  19.341  0.00  0.00    +0.000 C 
ENDBRANCH  15  21
ENDBRANCH  14  15
ENDBRANCH   1  14
TORSDOF 6
ENDMDL
MODEL 9
REMARK VINA RESULT:      -6.4      2.053      4.116
REMARK  Name = 
REMARK  8 active torsions:
REMARK  status: ('A' for Active; 'I' for Inactive)
REMARK    1  A    between atoms: C_1  and  C_2
REMARK    2  A    between atoms: C_2  and  O_3
REMARK    3  A    between atoms: O_3  and  C_4
REMARK    4  A    between atoms: C_4  and  C_6
REMARK    5  A    between atoms: C_6  and  C_7
REMARK    6  A    between atoms: C_6  and  S_9
REMARK    7  A    between atoms: C_7  and  C_8
REMARK    8  A    between atoms: S_9  and  C_10
REMARK                            x       y       z     vdW  Elec       q    Type
REMARK                         _______ _______ _______ _____ _____    ______ ____
ROOT
ATOM      1  C   UNL     1       3.443   3.665  17.717  0.00  0.00    +0.000 A 
ATOM      2  N   UNL     1       3.624   2.339  17.901  0.00  0.00    +0.000 NA
ATOM      3  C   UNL     1       3.243   1.805  19.070  0.00  0.00    +0.000 A 
ATOM      4  N   UNL     1       2.684   2.431  20.104  0.00  0.00    +0.000 NA
ATOM      5  C   UNL     1       2.537   3.749  19.894  0.00  0.00    +0.000 A 
ATOM      6  S   UNL     1       1.860   4.727  21.113  0.00  0.00    +0.000 S 
ATOM      7  C   UNL     1       1.994   6.116  20.150  0.00  0.00    +0.000 A 
ATOM      8  C   UNL     1       2.588   5.865  18.925  0.00  0.00    +0.000 A 
ATOM      9  C   UNL     1       2.889   4.458  18.747  0.00  0.00    +0.000 A 
ATOM     10  C   UNL     1       2.802   6.973  17.929  0.00  0.00    +0.000 C 
ATOM     11  C   UNL     1       2.609   8.367  18.544  0.00  0.00    +0.000 C 
ATOM     12  C   UNL     1       1.380   8.422  19.455  0.00  0.00    +0.000 C 
ATOM     13  C   UNL     1       1.522   7.452  20.636  0.00  0.00    +0.000 C 
ENDROOT
BRANCH   1  14
ATOM     14  S   UNL     1       4.101   4.383  16.233  0.00  0.00    +0.000 S 
BRANCH  14  15
ATOM     15  C   UNL     1       5.751   5.063  16.773  0.00  0.00    +0.000 C 
BRANCH  15  16
ATOM     16  C   UNL     1       6.871   4.285  16.088  0.00  0.00    +0.000 C 
ATOM     17  O   UNL     1       8.060   4.313  16.430  0.00  0.00    +0.000 OA
BRANCH  16  18
ATOM     18  O   UNL     1       6.413   3.607  14.996  0.00  0.00    +0.000 OA
BRANCH  18  20
ATOM     19  C   UNL     1       5.922   3.595  12.648  0.00  0.00    +0.000 C 
ATOM     20  C   UNL     1       6.775   4.212  13.743  0.00  0.00    +0.000 C 
ENDBRANCH  18  20
ENDBRANCH  16  18
ENDBRANCH  15  16
BRANCH  15  21
ATOM     21  C   UNL     1       5.839   6.571  16.438  0.00  0.00    +0.000 C 
ATOM     22  C   UNL     1       6.807   7.374  17.303  0.00  0.00    +0.000 C 
ENDBRANCH  15  21
ENDBRANCH  14  15
ENDBRANCH   1  14
TORSDOF 6
ENDMDL
