MODEL 1
REMARK VINA RESULT:      -8.1      0.000      0.000
REMARK  Name = 
REMARK  10 active torsions:
REMARK  status: ('A' for Active; 'I' for Inactive)
REMARK    1  A    between atoms: C_1  and  C_2
REMARK    2  A    between atoms: C_2  and  N_3
REMARK    3  A    between atoms: C_6  and  C_7
REMARK    4  A    between atoms: C_9  and  C_10
REMARK    5  A    between atoms: C_10  and  C_12
REMARK    6  A    between atoms: C_13  and  C_14
REMARK    7  A    between atoms: C_21  and  O_22
REMARK    8  A    between atoms: O_22  and  C_23
REMARK    9  A    between atoms: C_25  and  O_26
REMARK   10  A    between atoms: O_26  and  C_27
REMARK                            x       y       z     vdW  Elec       q    Type
REMARK                         _______ _______ _______ _____ _____    ______ ____
ROOT
ATOM      1  C   UNL     1       4.089   5.461  18.302  0.00  0.00    +0.000 A 
ATOM      2  C   UNL     1       5.019   6.350  17.723  0.00  0.00    +0.000 A 
ATOM      3  C   UNL     1       6.421   6.229  17.910  0.00  0.00    +0.000 A 
ATOM      4  C   UNL     1       6.921   5.252  18.769  0.00  0.00    +0.000 A 
ATOM      5  C   UNL     1       6.017   4.364  19.341  0.00  0.00    +0.000 A 
ATOM      6  C   UNL     1       4.646   4.387  19.022  0.00  0.00    +0.000 A 
ENDROOT
BRANCH   1  10
ATOM      7  N   UNL     1       0.775   3.922  19.949  0.00  0.00    +0.000 NA
ATOM      8  C   UNL     1       1.410   5.103  20.551  0.00  0.00    +0.000 C 
ATOM      9  C   UNL     1       1.910   6.212  19.618  0.00  0.00    +0.000 C 
ATOM     10  C   UNL     1       2.572   5.744  18.315  0.00  0.00    +0.000 C 
ATOM     11  C   UNL     1       1.641   4.682  17.696  0.00  0.00    +0.000 C 
ATOM     12  C   UNL     1       1.314   3.531  18.644  0.00  0.00    +0.000 C 
BRANCH   7  14
ATOM     13  C   UNL     1       1.958   2.842  21.919  0.00  0.00    +0.000 C 
ATOM     14  C   UNL     1       0.866   2.754  20.860  0.00  0.00    +0.000 C 
ENDBRANCH   7  14
ENDBRANCH   1  10
BRANCH   3  15
ATOM     15  C   UNL     1       7.367   7.091  17.134  0.00  0.00    +0.000 C 
ATOM     16  O   UNL     1       7.875   6.721  16.084  0.00  0.00    +0.000 OA
BRANCH  15  17
ATOM     17  C   UNL     1       7.561   8.475  17.645  0.00  0.00    +0.000 C 
ATOM     18  C   UNL     1       8.653   8.775  18.364  0.00  0.00    +0.000 C 
BRANCH  18  19
ATOM     19  C   UNL     1       8.997  10.159  18.705  0.00  0.00    +0.000 A 
ATOM     20  C   UNL     1       8.702  11.195  17.813  0.00  0.00    +0.000 A 
ATOM     21  C   UNL     1       8.991  12.520  18.154  0.00  0.00    +0.000 A 
ATOM     22  C   UNL     1       9.568  12.811  19.393  0.00  0.00    +0.000 A 
ATOM     23 CL   UNL     1       9.917  14.439  19.817  0.00  0.00    +0.000 Cl
ATOM     24  C   UNL     1       9.854  11.793  20.294  0.00  0.00    +0.000 A 
ATOM     25  C   UNL     1       9.558  10.470  19.955  0.00  0.00    +0.000 A 
ENDBRANCH  18  19
ENDBRANCH  15  17
ENDBRANCH   3  15
BRANCH   4  26
ATOM     26  O   UNL     1       8.257   5.237  19.066  0.00  0.00    +0.000 OA
ATOM     27  C   UNL     1       8.593   5.301  20.451  0.00  0.00    +0.000 C 
ENDBRANCH   4  26
BRANCH   6  28
ATOM     28  O   UNL     1       3.838   3.352  19.430  0.00  0.00    +0.000 OA
ATOM     29  C   UNL     1       4.510   2.080  19.402  0.00  0.00    +0.000 C 
ENDBRANCH   6  28
TORSDOF 7
ENDMDL
MODEL 2
REMARK VINA RESULT:      -8.0      1.409      2.139
REMARK  Name = 
REMARK  10 active torsions:
REMARK  status: ('A' for Active; 'I' for Inactive)
REMARK    1  A    between atoms: C_1  and  C_2
REMARK    2  A    between atoms: C_2  and  N_3
REMARK    3  A    between atoms: C_6  and  C_7
REMARK    4  A    between atoms: C_9  and  C_10
REMARK    5  A    between atoms: C_10  and  C_12
REMARK    6  A    between atoms: C_13  and  C_14
REMARK    7  A    between atoms: C_21  and  O_22
REMARK    8  A    between atoms: O_22  and  C_23
REMARK    9  A    between atoms: C_25  and  O_26
REMARK   10  A    between atoms: O_26  and  C_27
REMARK                            x       y       z     vdW  Elec       q    Type
REMARK                         _______ _______ _______ _____ _____    ______ ____
ROOT
ATOM      1  C   UNL     1       3.902   5.675  18.239  0.00  0.00    +0.000 A 
ATOM      2  C   UNL     1       4.915   6.478  17.673  0.00  0.00    +0.000 A 
ATOM      3  C   UNL     1       6.298   6.243  17.893  0.00  0.00    +0.000 A 
ATOM      4  C   UNL     1       6.696   5.239  18.773  0.00  0.00    +0.000 A 
ATOM      5  C   UNL     1       5.709   4.436  19.333  0.00  0.00    +0.000 A 
ATOM      6  C   UNL     1       4.352   4.568  18.983  0.00  0.00    +0.000 A 
ENDROOT
BRANCH   1  10
ATOM      7  N   UNL     1       1.389   7.949  20.380  0.00  0.00    +0.000 NA
ATOM      8  C   UNL     1       1.971   8.474  19.136  0.00  0.00    +0.000 C 
ATOM      9  C   UNL     1       2.044   7.543  17.919  0.00  0.00    +0.000 C 
ATOM     10  C   UNL     1       2.414   6.083  18.214  0.00  0.00    +0.000 C 
ATOM     11  C   UNL     1       1.527   5.624  19.390  0.00  0.00    +0.000 C 
ATOM     12  C   UNL     1       1.630   6.524  20.619  0.00  0.00    +0.000 C 
BRANCH   7  14
ATOM     13  C   UNL     1       0.805   9.218  22.500  0.00  0.00    +0.000 C 
ATOM     14  C   UNL     1       1.885   8.709  21.554  0.00  0.00    +0.000 C 
ENDBRANCH   7  14
ENDBRANCH   1  10
BRANCH   3  15
ATOM     15  C   UNL     1       7.329   7.015  17.131  0.00  0.00    +0.000 C 
ATOM     16  O   UNL     1       7.875   6.564  16.133  0.00  0.00    +0.000 OA
BRANCH  15  17
ATOM     17  C   UNL     1       7.565   8.414  17.579  0.00  0.00    +0.000 C 
ATOM     18  C   UNL     1       8.554   8.681  18.445  0.00  0.00    +0.000 C 
BRANCH  18  19
ATOM     19  C   UNL     1       8.962  10.056  18.750  0.00  0.00    +0.000 A 
ATOM     20  C   UNL     1       8.711  11.081  17.833  0.00  0.00    +0.000 A 
ATOM     21  C   UNL     1       9.063  12.400  18.141  0.00  0.00    +0.000 A 
ATOM     22  C   UNL     1       9.659  12.695  19.369  0.00  0.00    +0.000 A 
ATOM     23 CL   UNL     1      10.085  14.314  19.751  0.00  0.00    +0.000 Cl
ATOM     24  C   UNL     1       9.902  11.687  20.294  0.00  0.00    +0.000 A 
ATOM     25  C   UNL     1       9.544  10.371  19.990  0.00  0.00    +0.000 A 
ENDBRANCH  18  19
ENDBRANCH  15  17
ENDBRANCH   3  15
BRANCH   4  26
ATOM     26  O   UNL     1       8.019   5.117  19.101  0.00  0.00    +0.000 OA
ATOM     27  C   UNL     1       8.367   5.456  20.442  0.00  0.00    +0.000 C 
ENDBRANCH   4  26
BRANCH   6  28
ATOM     28  O   UNL     1       3.452   3.608  19.383  0.00  0.00    +0.000 OA
ATOM     29  C   UNL     1       4.087   2.367  19.738  0.00  0.00    +0.000 C 
ENDBRANCH   6  28
TORSDOF 7
ENDMDL
MODEL 3
REMARK VINA RESULT:      -7.7      1.634      2.943
REMARK  Name = 
REMARK  10 active torsions:
REMARK  status: ('A' for Active; 'I' for Inactive)
REMARK    1  A    between atoms: C_1  and  C_2
REMARK    2  A    between atoms: C_2  and  N_3
REMARK    3  A    between atoms: C_6  and  C_7
REMARK    4  A    between atoms: C_9  and  C_10
REMARK    5  A    between atoms: C_10  and  C_12
REMARK    6  A    between atoms: C_13  and  C_14
REMARK    7  A    between atoms: C_21  and  O_22
REMARK    8  A    between atoms: O_22  and  C_23
REMARK    9  A    between atoms: C_25  and  O_26
REMARK   10  A    between atoms: O_26  and  C_27
REMARK                            x       y       z     vdW  Elec       q    Type
REMARK                         _______ _______ _______ _____ _____    ______ ____
ROOT
ATOM      1  C   UNL     1       3.628   5.990  19.142  0.00  0.00    +0.000 A 
ATOM      2  C   UNL     1       5.008   5.707  19.222  0.00  0.00    +0.000 A 
ATOM      3  C   UNL     1       5.914   5.986  18.165  0.00  0.00    +0.000 A 
ATOM      4  C   UNL     1       5.432   6.478  16.954  0.00  0.00    +0.000 A 
ATOM      5  C   UNL     1       4.075   6.767  16.863  0.00  0.00    +0.000 A 
ATOM      6  C   UNL     1       3.211   6.643  17.968  0.00  0.00    +0.000 A 
ENDROOT
BRANCH   1  10
ATOM      7  N   UNL     1       1.734   2.553  19.962  0.00  0.00    +0.000 NA
ATOM      8  C   UNL     1       2.928   2.932  20.731  0.00  0.00    +0.000 C 
ATOM      9  C   UNL     1       3.068   4.390  21.185  0.00  0.00    +0.000 C 
ATOM     10  C   UNL     1       2.614   5.452  20.174  0.00  0.00    +0.000 C 
ATOM     11  C   UNL     1       1.230   5.014  19.654  0.00  0.00    +0.000 C 
ATOM     12  C   UNL     1       1.214   3.600  19.079  0.00  0.00    +0.000 C 
BRANCH   7  14
ATOM     13  C   UNL     1       3.301   1.362  18.358  0.00  0.00    +0.000 C 
ATOM     14  C   UNL     1       1.996   1.343  19.145  0.00  0.00    +0.000 C 
ENDBRANCH   7  14
ENDBRANCH   1  10
BRANCH   3  15
ATOM     15  C   UNL     1       7.389   5.829  18.368  0.00  0.00    +0.000 C 
ATOM     16  O   UNL     1       7.966   4.770  18.165  0.00  0.00    +0.000 OA
BRANCH  15  17
ATOM     17  C   UNL     1       8.138   7.068  18.712  0.00  0.00    +0.000 C 
ATOM     18  C   UNL     1       8.004   8.163  17.949  0.00  0.00    +0.000 C 
BRANCH  18  19
ATOM     19  C   UNL     1       8.547   9.461  18.360  0.00  0.00    +0.000 A 
ATOM     20  C   UNL     1       9.298   9.566  19.535  0.00  0.00    +0.000 A 
ATOM     21  C   UNL     1       9.851  10.796  19.908  0.00  0.00    +0.000 A 
ATOM     22  C   UNL     1       9.660  11.920  19.101  0.00  0.00    +0.000 A 
ATOM     23 CL   UNL     1      10.345  13.430  19.553  0.00  0.00    +0.000 Cl
ATOM     24  C   UNL     1       8.928  11.826  17.924  0.00  0.00    +0.000 A 
ATOM     25  C   UNL     1       8.381  10.596  17.548  0.00  0.00    +0.000 A 
ENDBRANCH  18  19
ENDBRANCH  15  17
ENDBRANCH   3  15
BRANCH   4  26
ATOM     26  O   UNL     1       6.283   6.599  15.889  0.00  0.00    +0.000 OA
ATOM     27  C   UNL     1       6.311   5.501  14.979  0.00  0.00    +0.000 C 
ENDBRANCH   4  26
BRANCH   6  28
ATOM     28  O   UNL     1       1.937   7.157  17.893  0.00  0.00    +0.000 OA
ATOM     29  C   UNL     1       1.924   8.593  17.789  0.00  0.00    +0.000 C 
ENDBRANCH   6  28
TORSDOF 7
ENDMDL
MODEL 4
REMARK VINA RESULT:      -7.7      5.550      8.570
REMARK  Name = 
REMARK  10 active torsions:
REMARK  status: ('A' for Active; 'I' for Inactive)
REMARK    1  A    between atoms: C_1  and  C_2
REMARK    2  A    between atoms: C_2  and  N_3
REMARK    3  A    between atoms: C_6  and  C_7
REMARK    4  A    between atoms: C_9  and  C_10
REMARK    5  A    between atoms: C_10  and  C_12
REMARK    6  A    between atoms: C_13  and  C_14
REMARK    7  A    between atoms: C_21  and  O_22
REMARK    8  A    between atoms: O_22  and  C_23
REMARK    9  A    between atoms: C_25  and  O_26
REMARK   10  A    between atoms: O_26  and  C_27
REMARK                            x       y       z     vdW  Elec       q    Type
REMARK                         _______ _______ _______ _____ _____    ______ ____
ROOT
ATOM      1  C   UNL     1       2.907   6.835  18.474  0.00  0.00    +0.000 A 
ATOM      2  C   UNL     1       2.539   8.134  18.065  0.00  0.00    +0.000 A 
ATOM      3  C   UNL     1       1.749   8.999  18.868  0.00  0.00    +0.000 A 
ATOM      4  C   UNL     1       1.230   8.538  20.076  0.00  0.00    +0.000 A 
ATOM      5  C   UNL     1       1.590   7.262  20.494  0.00  0.00    +0.000 A 
ATOM      6  C   UNL     1       2.505   6.471  19.773  0.00  0.00    +0.000 A 
ENDROOT
BRANCH   1  10
ATOM      7  N   UNL     1       6.515   5.270  17.700  0.00  0.00    +0.000 NA
ATOM      8  C   UNL     1       5.551   4.516  18.514  0.00  0.00    +0.000 C 
ATOM      9  C   UNL     1       4.085   4.492  18.065  0.00  0.00    +0.000 C 
ATOM     10  C   UNL     1       3.533   5.810  17.504  0.00  0.00    +0.000 C 
ATOM     11  C   UNL     1       4.566   6.330  16.483  0.00  0.00    +0.000 C 
ATOM     12  C   UNL     1       5.974   6.470  17.057  0.00  0.00    +0.000 C 
BRANCH   7  14
ATOM     13  C   UNL     1       8.046   7.149  18.459  0.00  0.00    +0.000 C 
ATOM     14  C   UNL     1       7.692   5.667  18.512  0.00  0.00    +0.000 C 
ENDBRANCH   7  14
ENDBRANCH   1  10
BRANCH   3  15
ATOM     15  C   UNL     1       1.536  10.424  18.463  0.00  0.00    +0.000 C 
ATOM     16  O   UNL     1       2.443  11.123  18.034  0.00  0.00    +0.000 OA
BRANCH  15  17
ATOM     17  C   UNL     1       0.129  10.910  18.492  0.00  0.00    +0.000 C 
ATOM     18  C   UNL     1      -0.800  10.311  17.732  0.00  0.00    +0.000 C 
BRANCH  18  19
ATOM     19  C   UNL     1      -2.228  10.607  17.883  0.00  0.00    +0.000 A 
ATOM     20  C   UNL     1      -3.180   9.818  17.231  0.00  0.00    +0.000 A 
ATOM     21  C   UNL     1      -4.544  10.075  17.406  0.00  0.00    +0.000 A 
ATOM     22  C   UNL     1      -4.957  11.115  18.241  0.00  0.00    +0.000 A 
ATOM     23 CL   UNL     1      -6.632  11.427  18.464  0.00  0.00    +0.000 Cl
ATOM     24  C   UNL     1      -4.022  11.899  18.905  0.00  0.00    +0.000 A 
ATOM     25  C   UNL     1      -2.659  11.638  18.735  0.00  0.00    +0.000 A 
ENDBRANCH  18  19
ENDBRANCH  15  17
ENDBRANCH   3  15
BRANCH   4  26
ATOM     26  O   UNL     1       0.347   9.319  20.771  0.00  0.00    +0.000 OA
ATOM     27  C   UNL     1      -0.358   8.677  21.832  0.00  0.00    +0.000 C 
ENDBRANCH   4  26
BRANCH   6  28
ATOM     28  O   UNL     1       3.004   5.323  20.342  0.00  0.00    +0.000 OA
ATOM     29  C   UNL     1       1.982   4.524  20.966  0.00  0.00    +0.000 C 
ENDBRANCH   6  28
TORSDOF 7
ENDMDL
MODEL 5
REMARK VINA RESULT:      -7.5     10.153     13.018
REMARK  Name = 
REMARK  10 active torsions:
REMARK  status: ('A' for Active; 'I' for Inactive)
REMARK    1  A    between atoms: C_1  and  C_2
REMARK    2  A    between atoms: C_2  and  N_3
REMARK    3  A    between atoms: C_6  and  C_7
REMARK    4  A    between atoms: C_9  and  C_10
REMARK    5  A    between atoms: C_10  and  C_12
REMARK    6  A    between atoms: C_13  and  C_14
REMARK    7  A    between atoms: C_21  and  O_22
REMARK    8  A    between atoms: O_22  and  C_23
REMARK    9  A    between atoms: C_25  and  O_26
REMARK   10  A    between atoms: O_26  and  C_27
REMARK                            x       y       z     vdW  Elec       q    Type
REMARK                         _______ _______ _______ _____ _____    ______ ____
ROOT
ATOM      1  C   UNL     1      -2.946  11.470  18.087  0.00  0.00    +0.000 A 
ATOM      2  C   UNL     1      -3.832  11.590  19.178  0.00  0.00    +0.000 A 
ATOM      3  C   UNL     1      -5.232  11.765  19.019  0.00  0.00    +0.000 A 
ATOM      4  C   UNL     1      -5.768  11.915  17.741  0.00  0.00    +0.000 A 
ATOM      5  C   UNL     1      -4.908  11.792  16.656  0.00  0.00    +0.000 A 
ATOM      6  C   UNL     1      -3.550  11.456  16.815  0.00  0.00    +0.000 A 
ENDROOT
BRANCH   1  10
ATOM      7  N   UNL     1      -0.291  12.332  20.963  0.00  0.00    +0.000 NA
ATOM      8  C   UNL     1      -0.594  10.930  20.644  0.00  0.00    +0.000 C 
ATOM      9  C   UNL     1      -0.712  10.531  19.168  0.00  0.00    +0.000 C 
ATOM     10  C   UNL     1      -1.414  11.545  18.254  0.00  0.00    +0.000 C 
ATOM     11  C   UNL     1      -0.793  12.924  18.555  0.00  0.00    +0.000 C 
ATOM     12  C   UNL     1      -0.854  13.311  20.030  0.00  0.00    +0.000 C 
BRANCH   7  14
ATOM     13  C   UNL     1      -1.580  11.593  23.022  0.00  0.00    +0.000 C 
ATOM     14  C   UNL     1      -0.756  12.672  22.331  0.00  0.00    +0.000 C 
ENDBRANCH   7  14
ENDBRANCH   1  10
BRANCH   3  15
ATOM     15  C   UNL     1      -6.143  11.711  20.205  0.00  0.00    +0.000 C 
ATOM     16  O   UNL     1      -6.783  10.709  20.492  0.00  0.00    +0.000 OA
BRANCH  15  17
ATOM     17  C   UNL     1      -6.134  12.906  21.092  0.00  0.00    +0.000 C 
ATOM     18  C   UNL     1      -5.319  12.941  22.157  0.00  0.00    +0.000 C 
BRANCH  18  19
ATOM     19  C   UNL     1      -5.116  14.169  22.933  0.00  0.00    +0.000 A 
ATOM     20  C   UNL     1      -6.051  15.206  22.860  0.00  0.00    +0.000 A 
ATOM     21  C   UNL     1      -5.879  16.361  23.631  0.00  0.00    +0.000 A 
ATOM     22  C   UNL     1      -4.778  16.475  24.483  0.00  0.00    +0.000 A 
ATOM     23 CL   UNL     1      -4.570  17.889  25.436  0.00  0.00    +0.000 Cl
ATOM     24  C   UNL     1      -3.849  15.446  24.574  0.00  0.00    +0.000 A 
ATOM     25  C   UNL     1      -4.024  14.289  23.809  0.00  0.00    +0.000 A 
ENDBRANCH  18  19
ENDBRANCH  15  17
ENDBRANCH   3  15
BRANCH   4  26
ATOM     26  O   UNL     1      -7.091  12.235  17.600  0.00  0.00    +0.000 OA
ATOM     27  C   UNL     1      -7.375  13.589  17.248  0.00  0.00    +0.000 C 
ENDBRANCH   4  26
BRANCH   6  28
ATOM     28  O   UNL     1      -2.801  11.120  15.712  0.00  0.00    +0.000 OA
ATOM     29  C   UNL     1      -3.432  10.114  14.898  0.00  0.00    +0.000 C 
ENDBRANCH   6  28
TORSDOF 7
ENDMDL
MODEL 6
REMARK VINA RESULT:      -7.5      5.187      8.166
REMARK  Name = 
REMARK  10 active torsions:
REMARK  status: ('A' for Active; 'I' for Inactive)
REMARK    1  A    between atoms: C_1  and  C_2
REMARK    2  A    between atoms: C_2  and  N_3
REMARK    3  A    between atoms: C_6  and  C_7
REMARK    4  A    between atoms: C_9  and  C_10
REMARK    5  A    between atoms: C_10  and  C_12
REMARK    6  A    between atoms: C_13  and  C_14
REMARK    7  A    between atoms: C_21  and  O_22
REMARK    8  A    between atoms: O_22  and  C_23
REMARK    9  A    between atoms: C_25  and  O_26
REMARK   10  A    between atoms: O_26  and  C_27
REMARK                            x       y       z     vdW  Elec       q    Type
REMARK                         _______ _______ _______ _____ _____    ______ ____
ROOT
ATOM      1  C   UNL     1       2.816   5.595  19.283  0.00  0.00    +0.000 A 
ATOM      2  C   UNL     1       2.628   6.827  18.621  0.00  0.00    +0.000 A 
ATOM      3  C   UNL     1       1.887   7.899  19.185  0.00  0.00    +0.000 A 
ATOM      4  C   UNL     1       1.234   7.722  20.403  0.00  0.00    +0.000 A 
ATOM      5  C   UNL     1       1.416   6.515  21.070  0.00  0.00    +0.000 A 
ATOM      6  C   UNL     1       2.284   5.519  20.584  0.00  0.00    +0.000 A 
ENDROOT
BRANCH   1  10
ATOM      7  N   UNL     1       5.982   4.645  17.016  0.00  0.00    +0.000 NA
ATOM      8  C   UNL     1       5.987   4.323  18.450  0.00  0.00    +0.000 C 
ATOM      9  C   UNL     1       4.708   3.746  19.069  0.00  0.00    +0.000 C 
ATOM     10  C   UNL     1       3.389   4.353  18.569  0.00  0.00    +0.000 C 
ATOM     11  C   UNL     1       3.465   4.384  17.029  0.00  0.00    +0.000 C 
ATOM     12  C   UNL     1       4.696   5.112  16.494  0.00  0.00    +0.000 C 
BRANCH   7  14
ATOM     13  C   UNL     1       6.805   7.020  17.375  0.00  0.00    +0.000 C 
ATOM     14  C   UNL     1       7.011   5.667  16.704  0.00  0.00    +0.000 C 
ENDBRANCH   7  14
ENDBRANCH   1  10
BRANCH   3  15
ATOM     15  C   UNL     1       1.867   9.240  18.520  0.00  0.00    +0.000 C 
ATOM     16  O   UNL     1       2.837   9.686  17.922  0.00  0.00    +0.000 OA
BRANCH  15  17
ATOM     17  C   UNL     1       0.559   9.950  18.516  0.00  0.00    +0.000 C 
ATOM     18  C   UNL     1      -0.292   9.776  17.494  0.00  0.00    +0.000 C 
BRANCH  18  19
ATOM     19  C   UNL     1      -1.669  10.277  17.543  0.00  0.00    +0.000 A 
ATOM     20  C   UNL     1      -2.073  11.115  18.588  0.00  0.00    +0.000 A 
ATOM     21  C   UNL     1      -3.375  11.627  18.614  0.00  0.00    +0.000 A 
ATOM     22  C   UNL     1      -4.271  11.309  17.591  0.00  0.00    +0.000 A 
ATOM     23 CL   UNL     1      -5.867  11.943  17.617  0.00  0.00    +0.000 Cl
ATOM     24  C   UNL     1      -3.878  10.489  16.541  0.00  0.00    +0.000 A 
ATOM     25  C   UNL     1      -2.576   9.982  16.511  0.00  0.00    +0.000 A 
ENDBRANCH  18  19
ENDBRANCH  15  17
ENDBRANCH   3  15
BRANCH   4  26
ATOM     26  O   UNL     1       0.398   8.701  20.868  0.00  0.00    +0.000 OA
ATOM     27  C   UNL     1       0.627   9.140  22.206  0.00  0.00    +0.000 C 
ENDBRANCH   4  26
BRANCH   6  28
ATOM     28  O   UNL     1       2.606   4.450  21.388  0.00  0.00    +0.000 OA
ATOM     29  C   UNL     1       1.611   3.412  21.357  0.00  0.00    +0.000 C 
ENDBRANCH   6  28
TORSDOF 7
ENDMDL
MODEL 7
REMARK VINA RESULT:      -7.5      5.764      8.673
REMARK  Name = 
REMARK  10 active torsions:
REMARK  status: ('A' for Active; 'I' for Inactive)
REMARK    1  A    between atoms: C_1  and  C_2
REMARK    2  A    between atoms: C_2  and  N_3
REMARK    3  A    between atoms: C_6  and  C_7
REMARK    4  A    between atoms: C_9  and  C_10
REMARK    5  A    between atoms: C_10  and  C_12
REMARK    6  A    between atoms: C_13  and  C_14
REMARK    7  A    between atoms: C_21  and  O_22
REMARK    8  A    between atoms: O_22  and  C_23
REMARK    9  A    between atoms: C_25  and  O_26
REMARK   10  A    between atoms: O_26  and  C_27
REMARK                            x       y       z     vdW  Elec       q    Type
REMARK                         _______ _______ _______ _____ _____    ______ ____
ROOT
ATOM      1  C   UNL     1       2.875   6.851  18.585  0.00  0.00    +0.000 A 
ATOM      2  C   UNL     1       2.394   8.144  18.290  0.00  0.00    +0.000 A 
ATOM      3  C   UNL     1       1.535   8.865  19.161  0.00  0.00    +0.000 A 
ATOM      4  C   UNL     1       1.062   8.257  20.322  0.00  0.00    +0.000 A 
ATOM      5  C   UNL     1       1.533   6.985  20.630  0.00  0.00    +0.000 A 
ATOM      6  C   UNL     1       2.511   6.343  19.846  0.00  0.00    +0.000 A 
ENDROOT
BRANCH   1  10
ATOM      7  N   UNL     1       6.617   5.811  17.594  0.00  0.00    +0.000 NA
ATOM      8  C   UNL     1       5.790   4.894  18.391  0.00  0.00    +0.000 C 
ATOM      9  C   UNL     1       4.322   4.707  17.991  0.00  0.00    +0.000 C 
ATOM     10  C   UNL     1       3.586   5.974  17.534  0.00  0.00    +0.000 C 
ATOM     11  C   UNL     1       4.501   6.680  16.513  0.00  0.00    +0.000 C 
ATOM     12  C   UNL     1       5.902   6.966  17.046  0.00  0.00    +0.000 C 
BRANCH   7  14
ATOM     13  C   UNL     1       7.953   5.642  19.747  0.00  0.00    +0.000 C 
ATOM     14  C   UNL     1       7.767   6.309  18.389  0.00  0.00    +0.000 C 
ENDBRANCH   7  14
ENDBRANCH   1  10
BRANCH   3  15
ATOM     15  C   UNL     1       1.198  10.296  18.882  0.00  0.00    +0.000 C 
ATOM     16  O   UNL     1       2.039  11.104  18.514  0.00  0.00    +0.000 OA
BRANCH  15  17
ATOM     17  C   UNL     1      -0.245  10.655  18.954  0.00  0.00    +0.000 C 
ATOM     18  C   UNL     1      -0.873  11.119  17.863  0.00  0.00    +0.000 C 
BRANCH  18  19
ATOM     19  C   UNL     1      -2.330  11.283  17.823  0.00  0.00    +0.000 A 
ATOM     20  C   UNL     1      -3.013  11.757  18.947  0.00  0.00    +0.000 A 
ATOM     21  C   UNL     1      -4.397  11.953  18.897  0.00  0.00    +0.000 A 
ATOM     22  C   UNL     1      -5.098  11.682  17.720  0.00  0.00    +0.000 A 
ATOM     23 CL   UNL     1      -6.797  11.929  17.654  0.00  0.00    +0.000 Cl
ATOM     24  C   UNL     1      -4.430  11.223  16.592  0.00  0.00    +0.000 A 
ATOM     25  C   UNL     1      -3.046  11.034  16.640  0.00  0.00    +0.000 A 
ENDBRANCH  18  19
ENDBRANCH  15  17
ENDBRANCH   3  15
BRANCH   4  26
ATOM     26  O   UNL     1       0.116   8.894  21.079  0.00  0.00    +0.000 OA
ATOM     27  C   UNL     1       0.494   9.217  22.416  0.00  0.00    +0.000 C 
ENDBRANCH   4  26
BRANCH   6  28
ATOM     28  O   UNL     1       3.109   5.196  20.315  0.00  0.00    +0.000 OA
ATOM     29  C   UNL     1       2.238   4.423  21.160  0.00  0.00    +0.000 C 
ENDBRANCH   6  28
TORSDOF 7
ENDMDL
MODEL 8
REMARK VINA RESULT:      -7.3      8.921     11.463
REMARK  Name = 
REMARK  10 active torsions:
REMARK  status: ('A' for Active; 'I' for Inactive)
REMARK    1  A    between atoms: C_1  and  C_2
REMARK    2  A    between atoms: C_2  and  N_3
REMARK    3  A    between atoms: C_6  and  C_7
REMARK    4  A    between atoms: C_9  and  C_10
REMARK    5  A    between atoms: C_10  and  C_12
REMARK    6  A    between atoms: C_13  and  C_14
REMARK    7  A    between atoms: C_21  and  O_22
REMARK    8  A    between atoms: O_22  and  C_23
REMARK    9  A    between atoms: C_25  and  O_26
REMARK   10  A    between atoms: O_26  and  C_27
REMARK                            x       y       z     vdW  Elec       q    Type
REMARK                         _______ _______ _______ _____ _____    ______ ____
ROOT
ATOM      1  C   UNL     1      -5.123  12.466  19.157  0.00  0.00    +0.000 A 
ATOM      2  C   UNL     1      -3.728  12.319  19.310  0.00  0.00    +0.000 A 
ATOM      3  C   UNL     1      -2.897  11.766  18.300  0.00  0.00    +0.000 A 
ATOM      4  C   UNL     1      -3.469  11.259  17.135  0.00  0.00    +0.000 A 
ATOM      5  C   UNL     1      -4.842  11.403  16.968  0.00  0.00    +0.000 A 
ATOM      6  C   UNL     1      -5.637  12.099  17.899  0.00  0.00    +0.000 A 
ENDROOT
BRANCH   1  10
ATOM      7  N   UNL     1      -5.011  14.696  22.486  0.00  0.00    +0.000 NA
ATOM      8  C   UNL     1      -5.678  15.212  21.282  0.00  0.00    +0.000 C 
ATOM      9  C   UNL     1      -6.569  14.256  20.480  0.00  0.00    +0.000 C 
ATOM     10  C   UNL     1      -6.051  12.818  20.338  0.00  0.00    +0.000 C 
ATOM     11  C   UNL     1      -5.624  12.355  21.746  0.00  0.00    +0.000 C 
ATOM     12  C   UNL     1      -4.617  13.286  22.415  0.00  0.00    +0.000 C 
BRANCH   7  14
ATOM     13  C   UNL     1      -2.896  14.909  23.875  0.00  0.00    +0.000 C 
ATOM     14  C   UNL     1      -3.806  15.501  22.805  0.00  0.00    +0.000 C 
ENDBRANCH   7  14
ENDBRANCH   1  10
BRANCH   3  15
ATOM     15  C   UNL     1      -1.407  11.794  18.445  0.00  0.00    +0.000 C 
ATOM     16  O   UNL     1      -0.780  12.840  18.533  0.00  0.00    +0.000 OA
BRANCH  15  17
ATOM     17  C   UNL     1      -0.739  10.473  18.602  0.00  0.00    +0.000 C 
ATOM     18  C   UNL     1       0.591  10.377  18.462  0.00  0.00    +0.000 C 
BRANCH  18  19
ATOM     19  C   UNL     1       1.318   9.153  18.815  0.00  0.00    +0.000 A 
ATOM     20  C   UNL     1       1.221   8.629  20.108  0.00  0.00    +0.000 A 
ATOM     21  C   UNL     1       1.880   7.439  20.434  0.00  0.00    +0.000 A 
ATOM     22  C   UNL     1       2.630   6.768  19.465  0.00  0.00    +0.000 A 
ATOM     23 CL   UNL     1       3.434   5.303  19.862  0.00  0.00    +0.000 Cl
ATOM     24  C   UNL     1       2.723   7.271  18.174  0.00  0.00    +0.000 A 
ATOM     25  C   UNL     1       2.059   8.456  17.846  0.00  0.00    +0.000 A 
ENDBRANCH  18  19
ENDBRANCH  15  17
ENDBRANCH   3  15
BRANCH   4  26
ATOM     26  O   UNL     1      -2.684  10.590  16.236  0.00  0.00    +0.000 OA
ATOM     27  C   UNL     1      -3.214  10.455  14.918  0.00  0.00    +0.000 C 
ENDBRANCH   4  26
BRANCH   6  28
ATOM     28  O   UNL     1      -6.937  12.414  17.578  0.00  0.00    +0.000 OA
ATOM     29  C   UNL     1      -7.040  13.626  16.809  0.00  0.00    +0.000 C 
ENDBRANCH   6  28
TORSDOF 7
ENDMDL
MODEL 9
REMARK VINA RESULT:      -7.2      3.725      6.564
REMARK  Name = 
REMARK  10 active torsions:
REMARK  status: ('A' for Active; 'I' for Inactive)
REMARK    1  A    between atoms: C_1  and  C_2
REMARK    2  A    between atoms: C_2  and  N_3
REMARK    3  A    between atoms: C_6  and  C_7
REMARK    4  A    between atoms: C_9  and  C_10
REMARK    5  A    between atoms: C_10  and  C_12
REMARK    6  A    between atoms: C_13  and  C_14
REMARK    7  A    between atoms: C_21  and  O_22
REMARK    8  A    between atoms: O_22  and  C_23
REMARK    9  A    between atoms: C_25  and  O_26
REMARK   10  A    between atoms: O_26  and  C_27
REMARK                            x       y       z     vdW  Elec       q    Type
REMARK                         _______ _______ _______ _____ _____    ______ ____
ROOT
ATOM      1  C   UNL     1       3.992   4.761  17.636  0.00  0.00    +0.000 A 
ATOM      2  C   UNL     1       3.366   5.780  18.384  0.00  0.00    +0.000 A 
ATOM      3  C   UNL     1       2.323   5.524  19.313  0.00  0.00    +0.000 A 
ATOM      4  C   UNL     1       1.817   4.232  19.444  0.00  0.00    +0.000 A 
ATOM      5  C   UNL     1       2.429   3.217  18.718  0.00  0.00    +0.000 A 
ATOM      6  C   UNL     1       3.568   3.450  17.924  0.00  0.00    +0.000 A 
ENDROOT
BRANCH   1  10
ATOM      7  N   UNL     1       7.404   6.752  16.958  0.00  0.00    +0.000 NA
ATOM      8  C   UNL     1       7.431   5.293  17.129  0.00  0.00    +0.000 C 
ATOM      9  C   UNL     1       6.342   4.461  16.440  0.00  0.00    +0.000 C 
ATOM     10  C   UNL     1       4.931   5.065  16.450  0.00  0.00    +0.000 C 
ATOM     11  C   UNL     1       5.070   6.535  16.006  0.00  0.00    +0.000 C 
ATOM     12  C   UNL     1       6.064   7.334  16.844  0.00  0.00    +0.000 C 
BRANCH   7  14
ATOM     13  C   UNL     1       8.192   8.943  17.971  0.00  0.00    +0.000 C 
ATOM     14  C   UNL     1       8.111   7.425  18.076  0.00  0.00    +0.000 C 
ENDBRANCH   7  14
ENDBRANCH   1  10
BRANCH   3  15
ATOM     15  C   UNL     1       1.816   6.614  20.205  0.00  0.00    +0.000 C 
ATOM     16  O   UNL     1       1.464   6.403  21.357  0.00  0.00    +0.000 OA
BRANCH  15  17
ATOM     17  C   UNL     1       1.883   7.995  19.654  0.00  0.00    +0.000 C 
ATOM     18  C   UNL     1       1.060   8.943  20.126  0.00  0.00    +0.000 C 
BRANCH  18  19
ATOM     19  C   UNL     1       1.229  10.357  19.774  0.00  0.00    +0.000 A 
ATOM     20  C   UNL     1       1.789  10.710  18.542  0.00  0.00    +0.000 A 
ATOM     21  C   UNL     1       1.913  12.057  18.188  0.00  0.00    +0.000 A 
ATOM     22  C   UNL     1       1.469  13.053  19.061  0.00  0.00    +0.000 A 
ATOM     23 CL   UNL     1       1.612  14.708  18.624  0.00  0.00    +0.000 Cl
ATOM     24  C   UNL     1       0.898  12.715  20.282  0.00  0.00    +0.000 A 
ATOM     25  C   UNL     1       0.768  11.368  20.633  0.00  0.00    +0.000 A 
ENDBRANCH  18  19
ENDBRANCH  15  17
ENDBRANCH   3  15
BRANCH   4  26
ATOM     26  O   UNL     1       0.713   4.017  20.224  0.00  0.00    +0.000 OA
ATOM     27  C   UNL     1       0.815   2.965  21.182  0.00  0.00    +0.000 C 
ENDBRANCH   4  26
BRANCH   6  28
ATOM     28  O   UNL     1       4.269   2.382  17.415  0.00  0.00    +0.000 OA
ATOM     29  C   UNL     1       4.000   1.156  18.118  0.00  0.00    +0.000 C 
ENDBRANCH   6  28
TORSDOF 7
ENDMDL
