MODEL 1
REMARK VINA RESULT:      -8.4      0.000      0.000
REMARK  Name = 
REMARK  6 active torsions:
REMARK  status: ('A' for Active; 'I' for Inactive)
REMARK    1  A    between atoms: C_1  and  C_2
REMARK    2  A    between atoms: N_4  and  C_5
REMARK    3  A    between atoms: C_5  and  C_6
REMARK    4  A    between atoms: C_6  and  N_7
REMARK    5  A    between atoms: C_11  and  C_12
REMARK    6  A    between atoms: C_16  and  C_17
REMARK                            x       y       z     vdW  Elec       q    Type
REMARK                         _______ _______ _______ _____ _____    ______ ____
ROOT
ATOM      1  N   UNL     1       3.144   4.741  20.495  0.00  0.00    +0.000 N 
ATOM      2  C   UNL     1       3.154   5.789  19.592  0.00  0.00    +0.000 A 
ATOM      3  N   UNL     1       2.376   6.818  19.823  0.00  0.00    +0.000 NA
ATOM      4  C   UNL     1       2.355   7.835  18.915  0.00  0.00    +0.000 A 
ATOM      5  C   UNL     1       1.668   9.032  18.811  0.00  0.00    +0.000 A 
ATOM      6  N   UNL     1       2.004   9.657  17.633  0.00  0.00    +0.000 NA
ATOM      7  N   UNL     1       2.911   8.916  17.013  0.00  0.00    +0.000 NA
ATOM      8  N   UNL     1       3.132   7.830  17.777  0.00  0.00    +0.000 N 
ATOM      9  C   UNL     1       4.012   6.789  17.469  0.00  0.00    +0.000 A 
ATOM     10  C   UNL     1       4.816   6.809  16.328  0.00  0.00    +0.000 A 
ATOM     11  C   UNL     1       5.647   5.718  16.069  0.00  0.00    +0.000 A 
ATOM     12  C   UNL     1       5.657   4.623  16.937  0.00  0.00    +0.000 A 
ATOM     13  C   UNL     1       4.857   4.618  18.084  0.00  0.00    +0.000 A 
ATOM     14  C   UNL     1       4.035   5.714  18.368  0.00  0.00    +0.000 A 
ATOM     15  H   UNL     1       3.599   3.879  20.228  0.00  0.00    +0.000 HD
ENDROOT
BRANCH   5  16
ATOM     16  C   UNL     1       0.739   9.589  19.780  0.00  0.00    +0.000 A 
ATOM     17  C   UNL     1      -0.184  10.567  19.388  0.00  0.00    +0.000 A 
ATOM     18  C   UNL     1      -1.045  11.144  20.326  0.00  0.00    +0.000 A 
ATOM     19  C   UNL     1      -0.977  10.766  21.667  0.00  0.00    +0.000 A 
ATOM     20  C   UNL     1      -0.053   9.802  22.082  0.00  0.00    +0.000 A 
ATOM     21  C   UNL     1       0.068   9.410  23.524  0.00  0.00    +0.000 C 
ATOM     22  C   UNL     1       0.785   9.205  21.128  0.00  0.00    +0.000 A 
ENDBRANCH   5  16
BRANCH   1  23
ATOM     23  C   UNL     1       1.989   4.503  21.355  0.00  0.00    +0.000 C 
BRANCH  23  24
ATOM     24  C   UNL     1       1.237   3.243  20.902  0.00  0.00    +0.000 C 
BRANCH  24  28
ATOM     25  C   UNL     1       2.574   1.773  17.693  0.00  0.00    +0.000 C 
ATOM     26  C   UNL     1       1.768   2.696  18.561  0.00  0.00    +0.000 C 
ATOM     27  O   UNL     1       1.020   3.556  18.109  0.00  0.00    +0.000 OA
ATOM     28  N   UNL     1       1.956   2.480  19.905  0.00  0.00    +0.000 N 
ATOM     29  H   UNL     1       2.666   1.830  20.218  0.00  0.00    +0.000 HD
ENDBRANCH  24  28
ENDBRANCH  23  24
ENDBRANCH   1  23
TORSDOF 4
ENDMDL
MODEL 2
REMARK VINA RESULT:      -8.2      0.627      1.311
REMARK  Name = 
REMARK  6 active torsions:
REMARK  status: ('A' for Active; 'I' for Inactive)
REMARK    1  A    between atoms: C_1  and  C_2
REMARK    2  A    between atoms: N_4  and  C_5
REMARK    3  A    between atoms: C_5  and  C_6
REMARK    4  A    between atoms: C_6  and  N_7
REMARK    5  A    between atoms: C_11  and  C_12
REMARK    6  A    between atoms: C_16  and  C_17
REMARK                            x       y       z     vdW  Elec       q    Type
REMARK                         _______ _______ _______ _____ _____    ______ ____
ROOT
ATOM      1  N   UNL     1       3.172   4.706  20.429  0.00  0.00    +0.000 N 
ATOM      2  C   UNL     1       3.079   5.835  19.636  0.00  0.00    +0.000 A 
ATOM      3  N   UNL     1       2.328   6.827  20.048  0.00  0.00    +0.000 NA
ATOM      4  C   UNL     1       2.205   7.925  19.249  0.00  0.00    +0.000 A 
ATOM      5  C   UNL     1       1.507   9.117  19.336  0.00  0.00    +0.000 A 
ATOM      6  N   UNL     1       1.710   9.856  18.194  0.00  0.00    +0.000 NA
ATOM      7  N   UNL     1       2.546   9.190  17.411  0.00  0.00    +0.000 NA
ATOM      8  N   UNL     1       2.852   8.038  18.038  0.00  0.00    +0.000 N 
ATOM      9  C   UNL     1       3.697   7.043  17.538  0.00  0.00    +0.000 A 
ATOM     10  C   UNL     1       4.371   7.182  16.323  0.00  0.00    +0.000 A 
ATOM     11  C   UNL     1       5.171   6.133  15.872  0.00  0.00    +0.000 A 
ATOM     12  C   UNL     1       5.280   4.960  16.624  0.00  0.00    +0.000 A 
ATOM     13  C   UNL     1       4.610   4.835  17.845  0.00  0.00    +0.000 A 
ATOM     14  C   UNL     1       3.822   5.888  18.321  0.00  0.00    +0.000 A 
ATOM     15  H   UNL     1       3.597   3.879  20.033  0.00  0.00    +0.000 HD
ENDROOT
BRANCH   5  16
ATOM     16  C   UNL     1       0.689   9.567  20.449  0.00  0.00    +0.000 A 
ATOM     17  C   UNL     1       0.477   8.729  21.551  0.00  0.00    +0.000 A 
ATOM     18  C   UNL     1      -0.352   9.136  22.601  0.00  0.00    +0.000 A 
ATOM     19  C   UNL     1      -0.994  10.373  22.550  0.00  0.00    +0.000 A 
ATOM     20  C   UNL     1      -0.808  11.219  21.452  0.00  0.00    +0.000 A 
ATOM     21  C   UNL     1      -1.520  12.535  21.355  0.00  0.00    +0.000 C 
ATOM     22  C   UNL     1       0.051  10.816  20.418  0.00  0.00    +0.000 A 
ENDBRANCH   5  16
BRANCH   1  23
ATOM     23  C   UNL     1       2.119   4.371  21.383  0.00  0.00    +0.000 C 
BRANCH  23  24
ATOM     24  C   UNL     1       1.424   3.064  20.974  0.00  0.00    +0.000 C 
BRANCH  24  28
ATOM     25  C   UNL     1       2.534   1.774  17.606  0.00  0.00    +0.000 C 
ATOM     26  C   UNL     1       1.755   2.614  18.577  0.00  0.00    +0.000 C 
ATOM     27  O   UNL     1       0.905   3.425  18.228  0.00  0.00    +0.000 OA
ATOM     28  N   UNL     1       2.092   2.381  19.888  0.00  0.00    +0.000 N 
ATOM     29  H   UNL     1       2.876   1.779  20.110  0.00  0.00    +0.000 HD
ENDBRANCH  24  28
ENDBRANCH  23  24
ENDBRANCH   1  23
TORSDOF 4
ENDMDL
MODEL 3
REMARK VINA RESULT:      -7.9      4.155      8.866
REMARK  Name = 
REMARK  6 active torsions:
REMARK  status: ('A' for Active; 'I' for Inactive)
REMARK    1  A    between atoms: C_1  and  C_2
REMARK    2  A    between atoms: N_4  and  C_5
REMARK    3  A    between atoms: C_5  and  C_6
REMARK    4  A    between atoms: C_6  and  N_7
REMARK    5  A    between atoms: C_11  and  C_12
REMARK    6  A    between atoms: C_16  and  C_17
REMARK                            x       y       z     vdW  Elec       q    Type
REMARK                         _______ _______ _______ _____ _____    ______ ____
ROOT
ATOM      1  N   UNL     1      -2.370  12.300  18.372  0.00  0.00    +0.000 N 
ATOM      2  C   UNL     1      -1.757  11.927  19.555  0.00  0.00    +0.000 A 
ATOM      3  N   UNL     1      -0.869  10.964  19.520  0.00  0.00    +0.000 NA
ATOM      4  C   UNL     1      -0.292  10.569  20.691  0.00  0.00    +0.000 A 
ATOM      5  C   UNL     1       0.638   9.604  21.039  0.00  0.00    +0.000 A 
ATOM      6  N   UNL     1       0.818   9.608  22.403  0.00  0.00    +0.000 NA
ATOM      7  N   UNL     1       0.068  10.570  22.919  0.00  0.00    +0.000 NA
ATOM      8  N   UNL     1      -0.593  11.154  21.901  0.00  0.00    +0.000 N 
ATOM      9  C   UNL     1      -1.503  12.208  22.025  0.00  0.00    +0.000 A 
ATOM     10  C   UNL     1      -1.778  12.812  23.253  0.00  0.00    +0.000 A 
ATOM     11  C   UNL     1      -2.723  13.837  23.303  0.00  0.00    +0.000 A 
ATOM     12  C   UNL     1      -3.388  14.235  22.141  0.00  0.00    +0.000 A 
ATOM     13  C   UNL     1      -3.098  13.631  20.914  0.00  0.00    +0.000 A 
ATOM     14  C   UNL     1      -2.136  12.618  20.844  0.00  0.00    +0.000 A 
ATOM     15  H   UNL     1      -3.176  12.907  18.424  0.00  0.00    +0.000 HD
ENDROOT
BRANCH   5  16
ATOM     16  C   UNL     1       1.350   8.716  20.137  0.00  0.00    +0.000 A 
ATOM     17  C   UNL     1       1.625   9.118  18.824  0.00  0.00    +0.000 A 
ATOM     18  C   UNL     1       2.264   8.248  17.936  0.00  0.00    +0.000 A 
ATOM     19  C   UNL     1       2.612   6.960  18.343  0.00  0.00    +0.000 A 
ATOM     20  C   UNL     1       2.333   6.533  19.645  0.00  0.00    +0.000 A 
ATOM     21  C   UNL     1       2.661   5.140  20.093  0.00  0.00    +0.000 C 
ATOM     22  C   UNL     1       1.722   7.424  20.539  0.00  0.00    +0.000 A 
ENDBRANCH   5  16
BRANCH   1  23
ATOM     23  C   UNL     1      -2.461  11.372  17.250  0.00  0.00    +0.000 C 
BRANCH  23  24
ATOM     24  C   UNL     1      -3.929  11.016  16.969  0.00  0.00    +0.000 C 
BRANCH  24  28
ATOM     25  C   UNL     1      -6.802  13.460  17.093  0.00  0.00    +0.000 C 
ATOM     26  C   UNL     1      -6.068  12.175  17.347  0.00  0.00    +0.000 C 
ATOM     27  O   UNL     1      -6.569  11.223  17.935  0.00  0.00    +0.000 OA
ATOM     28  N   UNL     1      -4.784  12.177  16.858  0.00  0.00    +0.000 N 
ATOM     29  H   UNL     1      -4.389  13.029  16.478  0.00  0.00    +0.000 HD
ENDBRANCH  24  28
ENDBRANCH  23  24
ENDBRANCH   1  23
TORSDOF 4
ENDMDL
MODEL 4
REMARK VINA RESULT:      -7.9      4.151      7.367
REMARK  Name = 
REMARK  6 active torsions:
REMARK  status: ('A' for Active; 'I' for Inactive)
REMARK    1  A    between atoms: C_1  and  C_2
REMARK    2  A    between atoms: N_4  and  C_5
REMARK    3  A    between atoms: C_5  and  C_6
REMARK    4  A    between atoms: C_6  and  N_7
REMARK    5  A    between atoms: C_11  and  C_12
REMARK    6  A    between atoms: C_16  and  C_17
REMARK                            x       y       z     vdW  Elec       q    Type
REMARK                         _______ _______ _______ _____ _____    ______ ____
ROOT
ATOM      1  N   UNL     1       0.029  12.006  18.012  0.00  0.00    +0.000 N 
ATOM      2  C   UNL     1       0.119  11.254  19.169  0.00  0.00    +0.000 A 
ATOM      3  N   UNL     1      -0.475  11.698  20.250  0.00  0.00    +0.000 NA
ATOM      4  C   UNL     1      -0.355  10.977  21.401  0.00  0.00    +0.000 A 
ATOM      5  C   UNL     1      -0.809  11.137  22.699  0.00  0.00    +0.000 A 
ATOM      6  N   UNL     1      -0.336  10.110  23.483  0.00  0.00    +0.000 NA
ATOM      7  N   UNL     1       0.362   9.287  22.714  0.00  0.00    +0.000 NA
ATOM      8  N   UNL     1       0.349   9.795  21.467  0.00  0.00    +0.000 N 
ATOM      9  C   UNL     1       0.985   9.232  20.357  0.00  0.00    +0.000 A 
ATOM     10  C   UNL     1       1.671   8.019  20.429  0.00  0.00    +0.000 A 
ATOM     11  C   UNL     1       2.310   7.536  19.287  0.00  0.00    +0.000 A 
ATOM     12  C   UNL     1       2.269   8.269  18.098  0.00  0.00    +0.000 A 
ATOM     13  C   UNL     1       1.570   9.479  18.033  0.00  0.00    +0.000 A 
ATOM     14  C   UNL     1       0.906   9.964  19.164  0.00  0.00    +0.000 A 
ATOM     15  H   UNL     1       0.631  11.762  17.238  0.00  0.00    +0.000 HD
ENDROOT
BRANCH   5  16
ATOM     16  C   UNL     1      -1.666  12.199  23.198  0.00  0.00    +0.000 A 
ATOM     17  C   UNL     1      -1.156  13.491  23.372  0.00  0.00    +0.000 A 
ATOM     18  C   UNL     1      -1.961  14.505  23.900  0.00  0.00    +0.000 A 
ATOM     19  C   UNL     1      -3.276  14.232  24.279  0.00  0.00    +0.000 A 
ATOM     20  C   UNL     1      -3.800  12.944  24.126  0.00  0.00    +0.000 A 
ATOM     21  C   UNL     1      -5.196  12.616  24.565  0.00  0.00    +0.000 C 
ATOM     22  C   UNL     1      -2.995  11.942  23.566  0.00  0.00    +0.000 A 
ENDBRANCH   5  16
BRANCH   1  23
ATOM     23  C   UNL     1      -0.227  13.442  18.069  0.00  0.00    +0.000 C 
BRANCH  23  24
ATOM     24  C   UNL     1       1.074  14.205  18.358  0.00  0.00    +0.000 C 
BRANCH  24  28
ATOM     25  C   UNL     1       1.897  14.982  21.959  0.00  0.00    +0.000 C 
ATOM     26  C   UNL     1       2.039  14.316  20.620  0.00  0.00    +0.000 C 
ATOM     27  O   UNL     1       2.889  13.465  20.383  0.00  0.00    +0.000 OA
ATOM     28  N   UNL     1       1.124  14.756  19.695  0.00  0.00    +0.000 N 
ATOM     29  H   UNL     1       0.517  15.537  19.916  0.00  0.00    +0.000 HD
ENDBRANCH  24  28
ENDBRANCH  23  24
ENDBRANCH   1  23
TORSDOF 4
ENDMDL
MODEL 5
REMARK VINA RESULT:      -7.9      4.826      7.917
REMARK  Name = 
REMARK  6 active torsions:
REMARK  status: ('A' for Active; 'I' for Inactive)
REMARK    1  A    between atoms: C_1  and  C_2
REMARK    2  A    between atoms: N_4  and  C_5
REMARK    3  A    between atoms: C_5  and  C_6
REMARK    4  A    between atoms: C_6  and  N_7
REMARK    5  A    between atoms: C_11  and  C_12
REMARK    6  A    between atoms: C_16  and  C_17
REMARK                            x       y       z     vdW  Elec       q    Type
REMARK                         _______ _______ _______ _____ _____    ______ ____
ROOT
ATOM      1  N   UNL     1       4.280   3.218  17.965  0.00  0.00    +0.000 N 
ATOM      2  C   UNL     1       5.201   3.894  17.186  0.00  0.00    +0.000 A 
ATOM      3  N   UNL     1       5.220   3.659  15.897  0.00  0.00    +0.000 NA
ATOM      4  C   UNL     1       6.152   4.296  15.132  0.00  0.00    +0.000 A 
ATOM      5  C   UNL     1       6.479   4.283  13.787  0.00  0.00    +0.000 A 
ATOM      6  N   UNL     1       7.566   5.098  13.569  0.00  0.00    +0.000 NA
ATOM      7  N   UNL     1       7.905   5.656  14.721  0.00  0.00    +0.000 NA
ATOM      8  N   UNL     1       7.060   5.188  15.659  0.00  0.00    +0.000 N 
ATOM      9  C   UNL     1       7.090   5.522  17.016  0.00  0.00    +0.000 A 
ATOM     10  C   UNL     1       7.996   6.449  17.533  0.00  0.00    +0.000 A 
ATOM     11  C   UNL     1       7.988   6.707  18.904  0.00  0.00    +0.000 A 
ATOM     12  C   UNL     1       7.094   6.033  19.739  0.00  0.00    +0.000 A 
ATOM     13  C   UNL     1       6.183   5.113  19.210  0.00  0.00    +0.000 A 
ATOM     14  C   UNL     1       6.163   4.861  17.834  0.00  0.00    +0.000 A 
ATOM     15  H   UNL     1       4.385   3.260  18.969  0.00  0.00    +0.000 HD
ENDROOT
BRANCH   5  16
ATOM     16  C   UNL     1       5.799   3.551  12.733  0.00  0.00    +0.000 A 
ATOM     17  C   UNL     1       4.619   4.057  12.173  0.00  0.00    +0.000 A 
ATOM     18  C   UNL     1       3.932   3.332  11.195  0.00  0.00    +0.000 A 
ATOM     19  C   UNL     1       4.404   2.086  10.783  0.00  0.00    +0.000 A 
ATOM     20  C   UNL     1       5.573   1.557  11.338  0.00  0.00    +0.000 A 
ATOM     21  C   UNL     1       6.078   0.202  10.942  0.00  0.00    +0.000 C 
ATOM     22  C   UNL     1       6.273   2.305  12.296  0.00  0.00    +0.000 A 
ENDBRANCH   5  16
BRANCH   1  23
ATOM     23  C   UNL     1       3.723   1.941  17.530  0.00  0.00    +0.000 C 
BRANCH  23  24
ATOM     24  C   UNL     1       2.215   1.891  17.819  0.00  0.00    +0.000 C 
BRANCH  24  28
ATOM     25  C   UNL     1       1.338   2.725  21.393  0.00  0.00    +0.000 C 
ATOM     26  C   UNL     1       1.576   2.979  19.932  0.00  0.00    +0.000 C 
ATOM     27  O   UNL     1       1.479   4.089  19.422  0.00  0.00    +0.000 OA
ATOM     28  N   UNL     1       1.909   1.845  19.232  0.00  0.00    +0.000 N 
ATOM     29  H   UNL     1       1.867   0.940  19.685  0.00  0.00    +0.000 HD
ENDBRANCH  24  28
ENDBRANCH  23  24
ENDBRANCH   1  23
TORSDOF 4
ENDMDL
MODEL 6
REMARK VINA RESULT:      -7.8      3.658      8.271
REMARK  Name = 
REMARK  6 active torsions:
REMARK  status: ('A' for Active; 'I' for Inactive)
REMARK    1  A    between atoms: C_1  and  C_2
REMARK    2  A    between atoms: N_4  and  C_5
REMARK    3  A    between atoms: C_5  and  C_6
REMARK    4  A    between atoms: C_6  and  N_7
REMARK    5  A    between atoms: C_11  and  C_12
REMARK    6  A    between atoms: C_16  and  C_17
REMARK                            x       y       z     vdW  Elec       q    Type
REMARK                         _______ _______ _______ _____ _____    ______ ____
ROOT
ATOM      1  N   UNL     1      -1.826  11.319  18.144  0.00  0.00    +0.000 N 
ATOM      2  C   UNL     1      -1.246  11.055  19.371  0.00  0.00    +0.000 A 
ATOM      3  N   UNL     1      -0.452  10.018  19.476  0.00  0.00    +0.000 NA
ATOM      4  C   UNL     1       0.091   9.734  20.695  0.00  0.00    +0.000 A 
ATOM      5  C   UNL     1       0.927   8.744  21.179  0.00  0.00    +0.000 A 
ATOM      6  N   UNL     1       1.113   8.917  22.531  0.00  0.00    +0.000 NA
ATOM      7  N   UNL     1       0.459  10.006  22.905  0.00  0.00    +0.000 NA
ATOM      8  N   UNL     1      -0.149  10.505  21.811  0.00  0.00    +0.000 N 
ATOM      9  C   UNL     1      -0.956  11.646  21.782  0.00  0.00    +0.000 A 
ATOM     10  C   UNL     1      -1.167  12.435  22.914  0.00  0.00    +0.000 A 
ATOM     11  C   UNL     1      -2.012  13.541  22.816  0.00  0.00    +0.000 A 
ATOM     12  C   UNL     1      -2.641  13.838  21.604  0.00  0.00    +0.000 A 
ATOM     13  C   UNL     1      -2.414  13.047  20.474  0.00  0.00    +0.000 A 
ATOM     14  C   UNL     1      -1.553  11.948  20.550  0.00  0.00    +0.000 A 
ATOM     15  H   UNL     1      -2.571  12.000  18.106  0.00  0.00    +0.000 HD
ENDROOT
BRANCH   5  16
ATOM     16  C   UNL     1       1.549   7.677  20.413  0.00  0.00    +0.000 A 
ATOM     17  C   UNL     1       2.205   7.965  19.210  0.00  0.00    +0.000 A 
ATOM     18  C   UNL     1       2.759   6.937  18.442  0.00  0.00    +0.000 A 
ATOM     19  C   UNL     1       2.644   5.610  18.857  0.00  0.00    +0.000 A 
ATOM     20  C   UNL     1       1.981   5.299  20.048  0.00  0.00    +0.000 A 
ATOM     21  C   UNL     1       1.808   3.878  20.494  0.00  0.00    +0.000 C 
ATOM     22  C   UNL     1       1.455   6.340  20.828  0.00  0.00    +0.000 A 
ENDBRANCH   5  16
BRANCH   1  23
ATOM     23  C   UNL     1      -2.009  10.258  17.158  0.00  0.00    +0.000 C 
BRANCH  23  24
ATOM     24  C   UNL     1      -3.481   9.823  17.109  0.00  0.00    +0.000 C 
BRANCH  24  28
ATOM     25  C   UNL     1      -6.002  12.631  17.075  0.00  0.00    +0.000 C 
ATOM     26  C   UNL     1      -5.098  11.591  17.672  0.00  0.00    +0.000 C 
ATOM     27  O   UNL     1      -5.014  11.391  18.878  0.00  0.00    +0.000 OA
ATOM     28  N   UNL     1      -4.378  10.893  16.733  0.00  0.00    +0.000 N 
ATOM     29  H   UNL     1      -4.408  11.176  15.761  0.00  0.00    +0.000 HD
ENDBRANCH  24  28
ENDBRANCH  23  24
ENDBRANCH   1  23
TORSDOF 4
ENDMDL
MODEL 7
REMARK VINA RESULT:      -7.8      4.757      7.863
REMARK  Name = 
REMARK  6 active torsions:
REMARK  status: ('A' for Active; 'I' for Inactive)
REMARK    1  A    between atoms: C_1  and  C_2
REMARK    2  A    between atoms: N_4  and  C_5
REMARK    3  A    between atoms: C_5  and  C_6
REMARK    4  A    between atoms: C_6  and  N_7
REMARK    5  A    between atoms: C_11  and  C_12
REMARK    6  A    between atoms: C_16  and  C_17
REMARK                            x       y       z     vdW  Elec       q    Type
REMARK                         _______ _______ _______ _____ _____    ______ ____
ROOT
ATOM      1  N   UNL     1       4.024   3.393  17.808  0.00  0.00    +0.000 N 
ATOM      2  C   UNL     1       4.998   3.999  17.037  0.00  0.00    +0.000 A 
ATOM      3  N   UNL     1       5.042   3.721  15.756  0.00  0.00    +0.000 NA
ATOM      4  C   UNL     1       6.025   4.289  15.001  0.00  0.00    +0.000 A 
ATOM      5  C   UNL     1       6.390   4.217  13.667  0.00  0.00    +0.000 A 
ATOM      6  N   UNL     1       7.521   4.972  13.457  0.00  0.00    +0.000 NA
ATOM      7  N   UNL     1       7.853   5.550  14.601  0.00  0.00    +0.000 NA
ATOM      8  N   UNL     1       6.960   5.153  15.527  0.00  0.00    +0.000 N 
ATOM      9  C   UNL     1       6.968   5.529  16.873  0.00  0.00    +0.000 A 
ATOM     10  C   UNL     1       7.902   6.429  17.388  0.00  0.00    +0.000 A 
ATOM     11  C   UNL     1       7.868   6.730  18.750  0.00  0.00    +0.000 A 
ATOM     12  C   UNL     1       6.918   6.127  19.578  0.00  0.00    +0.000 A 
ATOM     13  C   UNL     1       5.979   5.235  19.051  0.00  0.00    +0.000 A 
ATOM     14  C   UNL     1       5.987   4.940  17.684  0.00  0.00    +0.000 A 
ATOM     15  H   UNL     1       4.101   3.462  18.814  0.00  0.00    +0.000 HD
ENDROOT
BRANCH   5  16
ATOM     16  C   UNL     1       5.706   3.484  12.616  0.00  0.00    +0.000 A 
ATOM     17  C   UNL     1       6.142   2.205  12.251  0.00  0.00    +0.000 A 
ATOM     18  C   UNL     1       5.521   1.516  11.205  0.00  0.00    +0.000 A 
ATOM     19  C   UNL     1       4.472   2.108  10.500  0.00  0.00    +0.000 A 
ATOM     20  C   UNL     1       4.030   3.391  10.839  0.00  0.00    +0.000 A 
ATOM     21  C   UNL     1       2.934   4.064  10.069  0.00  0.00    +0.000 C 
ATOM     22  C   UNL     1       4.639   4.061  11.910  0.00  0.00    +0.000 A 
ENDBRANCH   5  16
BRANCH   1  23
ATOM     23  C   UNL     1       3.418   2.130  17.396  0.00  0.00    +0.000 C 
BRANCH  23  24
ATOM     24  C   UNL     1       1.986   2.022  17.941  0.00  0.00    +0.000 C 
BRANCH  24  28
ATOM     25  C   UNL     1       1.672   2.691  21.642  0.00  0.00    +0.000 C 
ATOM     26  C   UNL     1       1.633   3.000  20.172  0.00  0.00    +0.000 C 
ATOM     27  O   UNL     1       1.358   4.108  19.728  0.00  0.00    +0.000 OA
ATOM     28  N   UNL     1       1.933   1.916  19.382  0.00  0.00    +0.000 N 
ATOM     29  H   UNL     1       2.045   1.001  19.801  0.00  0.00    +0.000 HD
ENDBRANCH  24  28
ENDBRANCH  23  24
ENDBRANCH   1  23
TORSDOF 4
ENDMDL
MODEL 8
REMARK VINA RESULT:      -7.7      4.187      7.516
REMARK  Name = 
REMARK  6 active torsions:
REMARK  status: ('A' for Active; 'I' for Inactive)
REMARK    1  A    between atoms: C_1  and  C_2
REMARK    2  A    between atoms: N_4  and  C_5
REMARK    3  A    between atoms: C_5  and  C_6
REMARK    4  A    between atoms: C_6  and  N_7
REMARK    5  A    between atoms: C_11  and  C_12
REMARK    6  A    between atoms: C_16  and  C_17
REMARK                            x       y       z     vdW  Elec       q    Type
REMARK                         _______ _______ _______ _____ _____    ______ ____
ROOT
ATOM      1  N   UNL     1       0.391  12.315  18.152  0.00  0.00    +0.000 N 
ATOM      2  C   UNL     1       0.343  11.469  19.245  0.00  0.00    +0.000 A 
ATOM      3  N   UNL     1      -0.292  11.872  20.318  0.00  0.00    +0.000 NA
ATOM      4  C   UNL     1      -0.309  11.055  21.410  0.00  0.00    +0.000 A 
ATOM      5  C   UNL     1      -0.840  11.147  22.685  0.00  0.00    +0.000 A 
ATOM      6  N   UNL     1      -0.501  10.028  23.408  0.00  0.00    +0.000 NA
ATOM      7  N   UNL     1       0.187   9.216  22.619  0.00  0.00    +0.000 NA
ATOM      8  N   UNL     1       0.300   9.819  21.421  0.00  0.00    +0.000 N 
ATOM      9  C   UNL     1       0.970   9.298  20.311  0.00  0.00    +0.000 A 
ATOM     10  C   UNL     1       1.557   8.031  20.325  0.00  0.00    +0.000 A 
ATOM     11  C   UNL     1       2.238   7.592  19.190  0.00  0.00    +0.000 A 
ATOM     12  C   UNL     1       2.337   8.418  18.067  0.00  0.00    +0.000 A 
ATOM     13  C   UNL     1       1.736   9.680  18.059  0.00  0.00    +0.000 A 
ATOM     14  C   UNL     1       1.030  10.126  19.181  0.00  0.00    +0.000 A 
ATOM     15  H   UNL     1       1.026  12.086  17.400  0.00  0.00    +0.000 HD
ENDROOT
BRANCH   5  16
ATOM     16  C   UNL     1      -1.649  12.231  23.214  0.00  0.00    +0.000 A 
ATOM     17  C   UNL     1      -2.983  12.003  23.573  0.00  0.00    +0.000 A 
ATOM     18  C   UNL     1      -3.783  13.053  24.034  0.00  0.00    +0.000 A 
ATOM     19  C   UNL     1      -3.263  14.345  24.120  0.00  0.00    +0.000 A 
ATOM     20  C   UNL     1      -1.938  14.598  23.753  0.00  0.00    +0.000 A 
ATOM     21  C   UNL     1      -1.369  15.985  23.797  0.00  0.00    +0.000 C 
ATOM     22  C   UNL     1      -1.134  13.532  23.322  0.00  0.00    +0.000 A 
ENDBRANCH   5  16
BRANCH   1  23
ATOM     23  C   UNL     1       0.238  13.758  18.313  0.00  0.00    +0.000 C 
BRANCH  23  24
ATOM     24  C   UNL     1       1.593  14.407  18.632  0.00  0.00    +0.000 C 
BRANCH  24  28
ATOM     25  C   UNL     1       1.928  15.538  22.217  0.00  0.00    +0.000 C 
ATOM     26  C   UNL     1       2.063  14.615  21.039  0.00  0.00    +0.000 C 
ATOM     27  O   UNL     1       2.551  13.494  21.120  0.00  0.00    +0.000 OA
ATOM     28  N   UNL     1       1.587  15.156  19.869  0.00  0.00    +0.000 N 
ATOM     29  H   UNL     1       1.295  16.125  19.841  0.00  0.00    +0.000 HD
ENDBRANCH  24  28
ENDBRANCH  23  24
ENDBRANCH   1  23
TORSDOF 4
ENDMDL
MODEL 9
REMARK VINA RESULT:      -7.6      3.660      8.356
REMARK  Name = 
REMARK  6 active torsions:
REMARK  status: ('A' for Active; 'I' for Inactive)
REMARK    1  A    between atoms: C_1  and  C_2
REMARK    2  A    between atoms: N_4  and  C_5
REMARK    3  A    between atoms: C_5  and  C_6
REMARK    4  A    between atoms: C_6  and  N_7
REMARK    5  A    between atoms: C_11  and  C_12
REMARK    6  A    between atoms: C_16  and  C_17
REMARK                            x       y       z     vdW  Elec       q    Type
REMARK                         _______ _______ _______ _____ _____    ______ ____
ROOT
ATOM      1  N   UNL     1      -1.820  11.369  18.150  0.00  0.00    +0.000 N 
ATOM      2  C   UNL     1      -1.246  11.085  19.376  0.00  0.00    +0.000 A 
ATOM      3  N   UNL     1      -0.460  10.040  19.469  0.00  0.00    +0.000 NA
ATOM      4  C   UNL     1       0.077   9.736  20.685  0.00  0.00    +0.000 A 
ATOM      5  C   UNL     1       0.905   8.733  21.159  0.00  0.00    +0.000 A 
ATOM      6  N   UNL     1       1.088   8.887  22.514  0.00  0.00    +0.000 NA
ATOM      7  N   UNL     1       0.440   9.976  22.900  0.00  0.00    +0.000 NA
ATOM      8  N   UNL     1      -0.160  10.494  21.811  0.00  0.00    +0.000 N 
ATOM      9  C   UNL     1      -0.958  11.641  21.795  0.00  0.00    +0.000 A 
ATOM     10  C   UNL     1      -1.167  12.417  22.936  0.00  0.00    +0.000 A 
ATOM     11  C   UNL     1      -2.003  13.531  22.851  0.00  0.00    +0.000 A 
ATOM     12  C   UNL     1      -2.627  13.848  21.641  0.00  0.00    +0.000 A 
ATOM     13  C   UNL     1      -2.403  13.070  20.501  0.00  0.00    +0.000 A 
ATOM     14  C   UNL     1      -1.549  11.964  20.566  0.00  0.00    +0.000 A 
ATOM     15  H   UNL     1      -2.560  12.056  18.119  0.00  0.00    +0.000 HD
ENDROOT
BRANCH   5  16
ATOM     16  C   UNL     1       1.520   7.672  20.380  0.00  0.00    +0.000 A 
ATOM     17  C   UNL     1       1.458   6.346  20.825  0.00  0.00    +0.000 A 
ATOM     18  C   UNL     1       2.093   5.328  20.107  0.00  0.00    +0.000 A 
ATOM     19  C   UNL     1       2.814   5.628  18.952  0.00  0.00    +0.000 A 
ATOM     20  C   UNL     1       2.901   6.948  18.498  0.00  0.00    +0.000 A 
ATOM     21  C   UNL     1       3.705   7.301  17.283  0.00  0.00    +0.000 C 
ATOM     22  C   UNL     1       2.234   7.958  19.207  0.00  0.00    +0.000 A 
ENDBRANCH   5  16
BRANCH   1  23
ATOM     23  C   UNL     1      -2.008  10.323  17.150  0.00  0.00    +0.000 C 
BRANCH  23  24
ATOM     24  C   UNL     1      -3.474   9.864  17.125  0.00  0.00    +0.000 C 
BRANCH  24  28
ATOM     25  C   UNL     1      -6.040  12.631  17.075  0.00  0.00    +0.000 C 
ATOM     26  C   UNL     1      -5.114  11.615  17.679  0.00  0.00    +0.000 C 
ATOM     27  O   UNL     1      -5.015  11.434  18.887  0.00  0.00    +0.000 OA
ATOM     28  N   UNL     1      -4.392  10.915  16.743  0.00  0.00    +0.000 N 
ATOM     29  H   UNL     1      -4.435  11.182  15.767  0.00  0.00    +0.000 HD
ENDBRANCH  24  28
ENDBRANCH  23  24
ENDBRANCH   1  23
TORSDOF 4
ENDMDL
