MODEL 1
REMARK VINA RESULT:      -8.1      0.000      0.000
REMARK  Name = 
REMARK  3 active torsions:
REMARK  status: ('A' for Active; 'I' for Inactive)
REMARK    1  A    between atoms: C_5  and  C_6
REMARK    2  A    between atoms: C_6  and  C_8
REMARK    3  A    between atoms: C_6  and  C_15
REMARK                            x       y       z     vdW  Elec       q    Type
REMARK                         _______ _______ _______ _____ _____    ______ ____
ROOT
ATOM      1  C   UNL     1       3.702   5.431  18.838  0.00  0.00    +0.000 C 
ATOM      2  F   UNL     1       4.385   5.353  20.037  0.00  0.00    +0.000 F 
ENDROOT
BRANCH   1   7
ATOM      3  F   UNL     1       7.617   5.233  14.711  0.00  0.00    +0.000 F 
ATOM      4  C   UNL     1       6.680   5.297  15.666  0.00  0.00    +0.000 A 
ATOM      5  C   UNL     1       6.924   6.038  16.813  0.00  0.00    +0.000 A 
ATOM      6  C   UNL     1       5.956   6.085  17.822  0.00  0.00    +0.000 A 
ATOM      7  C   UNL     1       4.734   5.396  17.683  0.00  0.00    +0.000 A 
ATOM      8  C   UNL     1       4.502   4.684  16.487  0.00  0.00    +0.000 A 
ATOM      9  C   UNL     1       5.481   4.620  15.492  0.00  0.00    +0.000 A 
ENDBRANCH   1   7
BRANCH   1  10
ATOM     10  C   UNL     1       2.955   6.795  18.812  0.00  0.00    +0.000 A 
ATOM     11  C   UNL     1       2.956   7.638  17.682  0.00  0.00    +0.000 A 
ATOM     12  C   UNL     1       2.224   8.828  17.675  0.00  0.00    +0.000 A 
ATOM     13  C   UNL     1       1.499   9.203  18.802  0.00  0.00    +0.000 A 
ATOM     14 CL   UNL     1       0.580  10.655  18.781  0.00  0.00    +0.000 Cl
ATOM     15  C   UNL     1       1.510   8.402  19.943  0.00  0.00    +0.000 A 
ATOM     16  C   UNL     1       2.235   7.208  19.948  0.00  0.00    +0.000 A 
ENDBRANCH   1  10
BRANCH   1  17
ATOM     17  C   UNL     1       2.723   4.259  18.833  0.00  0.00    +0.000 A 
ATOM     18  C   UNL     1       1.599   4.145  18.037  0.00  0.00    +0.000 A 
ATOM     19  N   UNL     1       0.703   3.138  18.126  0.00  0.00    +0.000 NA
ATOM     20  C   UNL     1       0.978   2.187  19.028  0.00  0.00    +0.000 A 
ATOM     21  N   UNL     1       2.064   2.145  19.809  0.00  0.00    +0.000 NA
ATOM     22  C   UNL     1       2.921   3.178  19.679  0.00  0.00    +0.000 A 
ENDBRANCH   1  17
TORSDOF 3
ENDMDL
MODEL 2
REMARK VINA RESULT:      -8.0      0.077      1.033
REMARK  Name = 
REMARK  3 active torsions:
REMARK  status: ('A' for Active; 'I' for Inactive)
REMARK    1  A    between atoms: C_5  and  C_6
REMARK    2  A    between atoms: C_6  and  C_8
REMARK    3  A    between atoms: C_6  and  C_15
REMARK                            x       y       z     vdW  Elec       q    Type
REMARK                         _______ _______ _______ _____ _____    ______ ____
ROOT
ATOM      1  C   UNL     1       3.705   5.387  18.871  0.00  0.00    +0.000 C 
ATOM      2  F   UNL     1       4.341   5.302  20.094  0.00  0.00    +0.000 F 
ENDROOT
BRANCH   1   7
ATOM      3  F   UNL     1       7.522   5.276  14.649  0.00  0.00    +0.000 F 
ATOM      4  C   UNL     1       6.641   5.286  15.658  0.00  0.00    +0.000 A 
ATOM      5  C   UNL     1       5.472   4.547  15.551  0.00  0.00    +0.000 A 
ATOM      6  C   UNL     1       4.540   4.575  16.594  0.00  0.00    +0.000 A 
ATOM      7  C   UNL     1       4.779   5.339  17.755  0.00  0.00    +0.000 A 
ATOM      8  C   UNL     1       5.994   6.048  17.847  0.00  0.00    +0.000 A 
ATOM      9  C   UNL     1       6.912   6.036  16.794  0.00  0.00    +0.000 A 
ENDBRANCH   1   7
BRANCH   1  10
ATOM     10  C   UNL     1       2.975   6.758  18.816  0.00  0.00    +0.000 A 
ATOM     11  C   UNL     1       3.004   7.588  17.677  0.00  0.00    +0.000 A 
ATOM     12  C   UNL     1       2.286   8.785  17.644  0.00  0.00    +0.000 A 
ATOM     13  C   UNL     1       1.546   9.182  18.753  0.00  0.00    +0.000 A 
ATOM     14 CL   UNL     1       0.644  10.645  18.700  0.00  0.00    +0.000 Cl
ATOM     15  C   UNL     1       1.529   8.395  19.903  0.00  0.00    +0.000 A 
ATOM     16  C   UNL     1       2.240   7.193  19.935  0.00  0.00    +0.000 A 
ENDBRANCH   1  10
BRANCH   1  17
ATOM     17  C   UNL     1       2.714   4.225  18.829  0.00  0.00    +0.000 A 
ATOM     18  C   UNL     1       1.602   4.137  18.014  0.00  0.00    +0.000 A 
ATOM     19  N   UNL     1       0.694   3.138  18.071  0.00  0.00    +0.000 NA
ATOM     20  C   UNL     1       0.946   2.168  18.960  0.00  0.00    +0.000 A 
ATOM     21  N   UNL     1       2.018   2.101  19.758  0.00  0.00    +0.000 NA
ATOM     22  C   UNL     1       2.888   3.127  19.659  0.00  0.00    +0.000 A 
ENDBRANCH   1  17
TORSDOF 3
ENDMDL
MODEL 3
REMARK VINA RESULT:      -8.0      0.090      1.006
REMARK  Name = 
REMARK  3 active torsions:
REMARK  status: ('A' for Active; 'I' for Inactive)
REMARK    1  A    between atoms: C_5  and  C_6
REMARK    2  A    between atoms: C_6  and  C_8
REMARK    3  A    between atoms: C_6  and  C_15
REMARK                            x       y       z     vdW  Elec       q    Type
REMARK                         _______ _______ _______ _____ _____    ______ ____
ROOT
ATOM      1  C   UNL     1       3.728   5.467  18.877  0.00  0.00    +0.000 C 
ATOM      2  F   UNL     1       4.443   5.435  20.058  0.00  0.00    +0.000 F 
ENDROOT
BRANCH   1   7
ATOM      3  F   UNL     1       7.534   5.182  14.654  0.00  0.00    +0.000 F 
ATOM      4  C   UNL     1       6.622   5.265  15.631  0.00  0.00    +0.000 A 
ATOM      5  C   UNL     1       6.884   6.050  16.744  0.00  0.00    +0.000 A 
ATOM      6  C   UNL     1       5.942   6.118  17.777  0.00  0.00    +0.000 A 
ATOM      7  C   UNL     1       4.728   5.406  17.695  0.00  0.00    +0.000 A 
ATOM      8  C   UNL     1       4.477   4.649  16.533  0.00  0.00    +0.000 A 
ATOM      9  C   UNL     1       5.430   4.564  15.514  0.00  0.00    +0.000 A 
ENDBRANCH   1   7
BRANCH   1  10
ATOM     10  C   UNL     1       2.964   6.820  18.828  0.00  0.00    +0.000 A 
ATOM     11  C   UNL     1       2.962   7.648  17.686  0.00  0.00    +0.000 A 
ATOM     12  C   UNL     1       2.215   8.828  17.659  0.00  0.00    +0.000 A 
ATOM     13  C   UNL     1       1.478   9.209  18.776  0.00  0.00    +0.000 A 
ATOM     14 CL   UNL     1       0.541  10.650  18.730  0.00  0.00    +0.000 Cl
ATOM     15  C   UNL     1       1.492   8.424  19.927  0.00  0.00    +0.000 A 
ATOM     16  C   UNL     1       2.231   7.239  19.953  0.00  0.00    +0.000 A 
ENDBRANCH   1  10
BRANCH   1  17
ATOM     17  C   UNL     1       2.763   4.284  18.935  0.00  0.00    +0.000 A 
ATOM     18  C   UNL     1       2.875   3.187  19.769  0.00  0.00    +0.000 A 
ATOM     19  N   UNL     1       2.055   2.114  19.727  0.00  0.00    +0.000 NA
ATOM     20  C   UNL     1       1.058   2.172  18.835  0.00  0.00    +0.000 A 
ATOM     21  N   UNL     1       0.801   3.202  18.019  0.00  0.00    +0.000 NA
ATOM     22  C   UNL     1       1.654   4.244  18.103  0.00  0.00    +0.000 A 
ENDBRANCH   1  17
TORSDOF 3
ENDMDL
MODEL 4
REMARK VINA RESULT:      -7.9      0.135      1.441
REMARK  Name = 
REMARK  3 active torsions:
REMARK  status: ('A' for Active; 'I' for Inactive)
REMARK    1  A    between atoms: C_5  and  C_6
REMARK    2  A    between atoms: C_6  and  C_8
REMARK    3  A    between atoms: C_6  and  C_15
REMARK                            x       y       z     vdW  Elec       q    Type
REMARK                         _______ _______ _______ _____ _____    ______ ____
ROOT
ATOM      1  C   UNL     1       3.751   5.412  18.907  0.00  0.00    +0.000 C 
ATOM      2  F   UNL     1       4.427   5.376  20.111  0.00  0.00    +0.000 F 
ENDROOT
BRANCH   1   7
ATOM      3  F   UNL     1       7.433   5.214  14.570  0.00  0.00    +0.000 F 
ATOM      4  C   UNL     1       6.585   5.246  15.606  0.00  0.00    +0.000 A 
ATOM      5  C   UNL     1       5.425   4.485  15.563  0.00  0.00    +0.000 A 
ATOM      6  C   UNL     1       4.527   4.536  16.634  0.00  0.00    +0.000 A 
ATOM      7  C   UNL     1       4.789   5.343  17.759  0.00  0.00    +0.000 A 
ATOM      8  C   UNL     1       5.995   6.073  17.788  0.00  0.00    +0.000 A 
ATOM      9  C   UNL     1       6.879   6.039  16.706  0.00  0.00    +0.000 A 
ENDBRANCH   1   7
BRANCH   1  10
ATOM     10  C   UNL     1       3.000   6.771  18.832  0.00  0.00    +0.000 A 
ATOM     11  C   UNL     1       3.018   7.585  17.680  0.00  0.00    +0.000 A 
ATOM     12  C   UNL     1       2.282   8.771  17.629  0.00  0.00    +0.000 A 
ATOM     13  C   UNL     1       1.535   9.172  18.732  0.00  0.00    +0.000 A 
ATOM     14 CL   UNL     1       0.610  10.619  18.657  0.00  0.00    +0.000 Cl
ATOM     15  C   UNL     1       1.528   8.401  19.893  0.00  0.00    +0.000 A 
ATOM     16  C   UNL     1       2.257   7.210  19.943  0.00  0.00    +0.000 A 
ENDBRANCH   1  10
BRANCH   1  17
ATOM     17  C   UNL     1       2.776   4.237  18.935  0.00  0.00    +0.000 A 
ATOM     18  C   UNL     1       2.894   3.104  19.718  0.00  0.00    +0.000 A 
ATOM     19  N   UNL     1       2.064   2.041  19.647  0.00  0.00    +0.000 NA
ATOM     20  C   UNL     1       1.049   2.147  18.779  0.00  0.00    +0.000 A 
ATOM     21  N   UNL     1       0.785   3.213  18.015  0.00  0.00    +0.000 NA
ATOM     22  C   UNL     1       1.650   4.242  18.126  0.00  0.00    +0.000 A 
ENDBRANCH   1  17
TORSDOF 3
ENDMDL
MODEL 5
REMARK VINA RESULT:      -7.9      0.098      1.034
REMARK  Name = 
REMARK  3 active torsions:
REMARK  status: ('A' for Active; 'I' for Inactive)
REMARK    1  A    between atoms: C_5  and  C_6
REMARK    2  A    between atoms: C_6  and  C_8
REMARK    3  A    between atoms: C_6  and  C_15
REMARK                            x       y       z     vdW  Elec       q    Type
REMARK                         _______ _______ _______ _____ _____    ______ ____
ROOT
ATOM      1  C   UNL     1       3.662   5.395  18.871  0.00  0.00    +0.000 C 
ATOM      2  F   UNL     1       4.349   5.329  20.067  0.00  0.00    +0.000 F 
ENDROOT
BRANCH   1   7
ATOM      3  F   UNL     1       7.571   5.280  14.734  0.00  0.00    +0.000 F 
ATOM      4  C   UNL     1       6.635   5.323  15.691  0.00  0.00    +0.000 A 
ATOM      5  C   UNL     1       6.860   6.078  16.833  0.00  0.00    +0.000 A 
ATOM      6  C   UNL     1       5.894   6.105  17.844  0.00  0.00    +0.000 A 
ATOM      7  C   UNL     1       4.691   5.381  17.712  0.00  0.00    +0.000 A 
ATOM      8  C   UNL     1       4.477   4.655  16.522  0.00  0.00    +0.000 A 
ATOM      9  C   UNL     1       5.455   4.612  15.525  0.00  0.00    +0.000 A 
ENDBRANCH   1   7
BRANCH   1  10
ATOM     10  C   UNL     1       2.889   6.743  18.848  0.00  0.00    +0.000 A 
ATOM     11  C   UNL     1       2.159   7.218  19.957  0.00  0.00    +0.000 A 
ATOM     12  C   UNL     1       1.526   8.463  19.919  0.00  0.00    +0.000 A 
ATOM     13  C   UNL     1       1.595   9.241  18.767  0.00  0.00    +0.000 A 
ATOM     14 CL   UNL     1       0.836  10.783  18.733  0.00  0.00    +0.000 Cl
ATOM     15  C   UNL     1       2.282   8.779  17.647  0.00  0.00    +0.000 A 
ATOM     16  C   UNL     1       2.923   7.538  17.686  0.00  0.00    +0.000 A 
ENDBRANCH   1  10
BRANCH   1  17
ATOM     17  C   UNL     1       2.706   4.204  18.866  0.00  0.00    +0.000 A 
ATOM     18  C   UNL     1       1.569   4.080  18.090  0.00  0.00    +0.000 A 
ATOM     19  N   UNL     1       0.694   3.054  18.182  0.00  0.00    +0.000 NA
ATOM     20  C   UNL     1       1.006   2.095  19.062  0.00  0.00    +0.000 A 
ATOM     21  N   UNL     1       2.108   2.062  19.822  0.00  0.00    +0.000 NA
ATOM     22  C   UNL     1       2.942   3.114  19.690  0.00  0.00    +0.000 A 
ENDBRANCH   1  17
TORSDOF 3
ENDMDL
MODEL 6
REMARK VINA RESULT:      -7.8      0.124      1.441
REMARK  Name = 
REMARK  3 active torsions:
REMARK  status: ('A' for Active; 'I' for Inactive)
REMARK    1  A    between atoms: C_5  and  C_6
REMARK    2  A    between atoms: C_6  and  C_8
REMARK    3  A    between atoms: C_6  and  C_15
REMARK                            x       y       z     vdW  Elec       q    Type
REMARK                         _______ _______ _______ _____ _____    ______ ____
ROOT
ATOM      1  C   UNL     1       3.697   5.424  18.908  0.00  0.00    +0.000 C 
ATOM      2  F   UNL     1       4.415   5.402  20.087  0.00  0.00    +0.000 F 
ENDROOT
BRANCH   1   7
ATOM      3  F   UNL     1       7.498   5.231  14.675  0.00  0.00    +0.000 F 
ATOM      4  C   UNL     1       6.587   5.292  15.654  0.00  0.00    +0.000 A 
ATOM      5  C   UNL     1       6.833   6.081  16.768  0.00  0.00    +0.000 A 
ATOM      6  C   UNL     1       5.893   6.127  17.803  0.00  0.00    +0.000 A 
ATOM      7  C   UNL     1       4.695   5.388  17.724  0.00  0.00    +0.000 A 
ATOM      8  C   UNL     1       4.458   4.626  16.561  0.00  0.00    +0.000 A 
ATOM      9  C   UNL     1       5.410   4.564  15.540  0.00  0.00    +0.000 A 
ENDBRANCH   1   7
BRANCH   1  10
ATOM     10  C   UNL     1       2.906   6.762  18.865  0.00  0.00    +0.000 A 
ATOM     11  C   UNL     1       2.165   7.241  19.965  0.00  0.00    +0.000 A 
ATOM     12  C   UNL     1       1.517   8.476  19.910  0.00  0.00    +0.000 A 
ATOM     13  C   UNL     1       1.581   9.242  18.750  0.00  0.00    +0.000 A 
ATOM     14 CL   UNL     1       0.802  10.774  18.693  0.00  0.00    +0.000 Cl
ATOM     15  C   UNL     1       2.279   8.775  17.638  0.00  0.00    +0.000 A 
ATOM     16  C   UNL     1       2.935   7.543  17.695  0.00  0.00    +0.000 A 
ENDBRANCH   1  10
BRANCH   1  17
ATOM     17  C   UNL     1       2.756   4.222  18.964  0.00  0.00    +0.000 A 
ATOM     18  C   UNL     1       2.919   3.101  19.756  0.00  0.00    +0.000 A 
ATOM     19  N   UNL     1       2.118   2.014  19.710  0.00  0.00    +0.000 NA
ATOM     20  C   UNL     1       1.085   2.083  18.859  0.00  0.00    +0.000 A 
ATOM     21  N   UNL     1       0.779   3.134  18.089  0.00  0.00    +0.000 NA
ATOM     22  C   UNL     1       1.616   4.188  18.175  0.00  0.00    +0.000 A 
ENDBRANCH   1  17
TORSDOF 3
ENDMDL
MODEL 7
REMARK VINA RESULT:      -7.8      0.144      1.463
REMARK  Name = 
REMARK  3 active torsions:
REMARK  status: ('A' for Active; 'I' for Inactive)
REMARK    1  A    between atoms: C_5  and  C_6
REMARK    2  A    between atoms: C_6  and  C_8
REMARK    3  A    between atoms: C_6  and  C_15
REMARK                            x       y       z     vdW  Elec       q    Type
REMARK                         _______ _______ _______ _____ _____    ______ ____
ROOT
ATOM      1  C   UNL     1       3.672   5.356  18.891  0.00  0.00    +0.000 C 
ATOM      2  F   UNL     1       4.314   5.279  20.112  0.00  0.00    +0.000 F 
ENDROOT
BRANCH   1   7
ATOM      3  F   UNL     1       7.476   5.346  14.656  0.00  0.00    +0.000 F 
ATOM      4  C   UNL     1       6.599   5.332  15.668  0.00  0.00    +0.000 A 
ATOM      5  C   UNL     1       5.444   4.571  15.561  0.00  0.00    +0.000 A 
ATOM      6  C   UNL     1       4.515   4.575  16.607  0.00  0.00    +0.000 A 
ATOM      7  C   UNL     1       4.742   5.336  17.771  0.00  0.00    +0.000 A 
ATOM      8  C   UNL     1       5.944   6.069  17.864  0.00  0.00    +0.000 A 
ATOM      9  C   UNL     1       6.858   6.081  16.807  0.00  0.00    +0.000 A 
ENDBRANCH   1   7
BRANCH   1  10
ATOM     10  C   UNL     1       2.912   6.712  18.845  0.00  0.00    +0.000 A 
ATOM     11  C   UNL     1       2.182   7.209  19.943  0.00  0.00    +0.000 A 
ATOM     12  C   UNL     1       1.562   8.460  19.884  0.00  0.00    +0.000 A 
ATOM     13  C   UNL     1       1.645   9.221  18.723  0.00  0.00    +0.000 A 
ATOM     14 CL   UNL     1       0.901  10.770  18.662  0.00  0.00    +0.000 Cl
ATOM     15  C   UNL     1       2.333   8.736  17.612  0.00  0.00    +0.000 A 
ATOM     16  C   UNL     1       2.960   7.489  17.673  0.00  0.00    +0.000 A 
ENDBRANCH   1  10
BRANCH   1  17
ATOM     17  C   UNL     1       2.706   4.174  18.847  0.00  0.00    +0.000 A 
ATOM     18  C   UNL     1       1.546   4.102  18.098  0.00  0.00    +0.000 A 
ATOM     19  N   UNL     1       0.665   3.079  18.157  0.00  0.00    +0.000 NA
ATOM     20  C   UNL     1       0.993   2.069  18.974  0.00  0.00    +0.000 A 
ATOM     21  N   UNL     1       2.116   1.986  19.699  0.00  0.00    +0.000 NA
ATOM     22  C   UNL     1       2.955   3.038  19.603  0.00  0.00    +0.000 A 
ENDBRANCH   1  17
TORSDOF 3
ENDMDL
MODEL 8
REMARK VINA RESULT:      -7.7      0.171      1.774
REMARK  Name = 
REMARK  3 active torsions:
REMARK  status: ('A' for Active; 'I' for Inactive)
REMARK    1  A    between atoms: C_5  and  C_6
REMARK    2  A    between atoms: C_6  and  C_8
REMARK    3  A    between atoms: C_6  and  C_15
REMARK                            x       y       z     vdW  Elec       q    Type
REMARK                         _______ _______ _______ _____ _____    ______ ____
ROOT
ATOM      1  C   UNL     1       3.710   5.379  18.945  0.00  0.00    +0.000 C 
ATOM      2  F   UNL     1       4.386   5.350  20.149  0.00  0.00    +0.000 F 
ENDROOT
BRANCH   1   7
ATOM      3  F   UNL     1       7.396   5.276  14.608  0.00  0.00    +0.000 F 
ATOM      4  C   UNL     1       6.547   5.285  15.644  0.00  0.00    +0.000 A 
ATOM      5  C   UNL     1       5.394   4.515  15.589  0.00  0.00    +0.000 A 
ATOM      6  C   UNL     1       4.494   4.542  16.659  0.00  0.00    +0.000 A 
ATOM      7  C   UNL     1       4.750   5.335  17.797  0.00  0.00    +0.000 A 
ATOM      8  C   UNL     1       5.949   6.075  17.838  0.00  0.00    +0.000 A 
ATOM      9  C   UNL     1       6.834   6.064  16.756  0.00  0.00    +0.000 A 
ENDBRANCH   1   7
BRANCH   1  10
ATOM     10  C   UNL     1       2.933   6.724  18.877  0.00  0.00    +0.000 A 
ATOM     11  C   UNL     1       2.176   7.218  19.958  0.00  0.00    +0.000 A 
ATOM     12  C   UNL     1       1.540   8.459  19.880  0.00  0.00    +0.000 A 
ATOM     13  C   UNL     1       1.633   9.214  18.715  0.00  0.00    +0.000 A 
ATOM     14 CL   UNL     1       0.870  10.753  18.631  0.00  0.00    +0.000 Cl
ATOM     15  C   UNL     1       2.347   8.732  17.621  0.00  0.00    +0.000 A 
ATOM     16  C   UNL     1       2.991   7.494  17.700  0.00  0.00    +0.000 A 
ENDBRANCH   1  10
BRANCH   1  17
ATOM     17  C   UNL     1       2.758   4.185  18.966  0.00  0.00    +0.000 A 
ATOM     18  C   UNL     1       2.919   3.032  19.712  0.00  0.00    +0.000 A 
ATOM     19  N   UNL     1       2.106   1.956  19.634  0.00  0.00    +0.000 NA
ATOM     20  C   UNL     1       1.064   2.068  18.800  0.00  0.00    +0.000 A 
ATOM     21  N   UNL     1       0.759   3.152  18.076  0.00  0.00    +0.000 NA
ATOM     22  C   UNL     1       1.608   4.193  18.192  0.00  0.00    +0.000 A 
ENDBRANCH   1  17
TORSDOF 3
ENDMDL
MODEL 9
REMARK VINA RESULT:      -7.7      2.521      4.834
REMARK  Name = 
REMARK  3 active torsions:
REMARK  status: ('A' for Active; 'I' for Inactive)
REMARK    1  A    between atoms: C_5  and  C_6
REMARK    2  A    between atoms: C_6  and  C_8
REMARK    3  A    between atoms: C_6  and  C_15
REMARK                            x       y       z     vdW  Elec       q    Type
REMARK                         _______ _______ _______ _____ _____    ______ ____
ROOT
ATOM      1  C   UNL     1       3.314   5.038  18.320  0.00  0.00    +0.000 C 
ATOM      2  F   UNL     1       2.875   4.610  17.082  0.00  0.00    +0.000 F 
ENDROOT
BRANCH   1   7
ATOM      3  F   UNL     1       1.062   1.818  22.439  0.00  0.00    +0.000 F 
ATOM      4  C   UNL     1       1.584   2.556  21.451  0.00  0.00    +0.000 A 
ATOM      5  C   UNL     1       2.963   2.666  21.336  0.00  0.00    +0.000 A 
ATOM      6  C   UNL     1       3.509   3.456  20.319  0.00  0.00    +0.000 A 
ATOM      7  C   UNL     1       2.677   4.134  19.406  0.00  0.00    +0.000 A 
ATOM      8  C   UNL     1       1.282   3.970  19.527  0.00  0.00    +0.000 A 
ATOM      9  C   UNL     1       0.738   3.199  20.558  0.00  0.00    +0.000 A 
ENDBRANCH   1   7
BRANCH   1  10
ATOM     10  C   UNL     1       2.813   6.497  18.515  0.00  0.00    +0.000 A 
ATOM     11  C   UNL     1       2.844   7.454  17.481  0.00  0.00    +0.000 A 
ATOM     12  C   UNL     1       2.330   8.738  17.677  0.00  0.00    +0.000 A 
ATOM     13  C   UNL     1       1.798   9.091  18.913  0.00  0.00    +0.000 A 
ATOM     14 CL   UNL     1       1.143  10.664  19.144  0.00  0.00    +0.000 Cl
ATOM     15  C   UNL     1       1.786   8.172  19.961  0.00  0.00    +0.000 A 
ATOM     16  C   UNL     1       2.292   6.885  19.764  0.00  0.00    +0.000 A 
ENDBRANCH   1  10
BRANCH   1  17
ATOM     17  C   UNL     1       4.839   4.973  18.274  0.00  0.00    +0.000 A 
ATOM     18  C   UNL     1       5.698   5.382  19.276  0.00  0.00    +0.000 A 
ATOM     19  N   UNL     1       7.044   5.399  19.163  0.00  0.00    +0.000 NA
ATOM     20  C   UNL     1       7.541   4.944  18.006  0.00  0.00    +0.000 A 
ATOM     21  N   UNL     1       6.823   4.458  16.987  0.00  0.00    +0.000 NA
ATOM     22  C   UNL     1       5.484   4.469  17.155  0.00  0.00    +0.000 A 
ENDBRANCH   1  17
TORSDOF 3
ENDMDL
