MODEL 1
REMARK VINA RESULT:      -7.2      0.000      0.000
REMARK  Name = 
REMARK  4 active torsions:
REMARK  status: ('A' for Active; 'I' for Inactive)
REMARK    1  A    between atoms: C_1  and  C_2
REMARK    2  A    between atoms: C_6  and  C_8
REMARK    3  A    between atoms: C_8  and  S_9
REMARK    4  A    between atoms: S_9  and  C_11
REMARK                            x       y       z     vdW  Elec       q    Type
REMARK                         _______ _______ _______ _____ _____    ______ ____
ROOT
ATOM      1  C   UNL     1       6.996   3.934  12.216  0.00  0.00    +0.000 C 
ATOM      2  C   UNL     1       6.807   4.310  13.629  0.00  0.00    +0.000 A 
ATOM      3  C   UNL     1       6.000   3.877  14.656  0.00  0.00    +0.000 A 
ATOM      4  C   UNL     1       6.376   4.677  15.768  0.00  0.00    +0.000 A 
ATOM      5  N   UNL     1       5.815   4.576  17.030  0.00  0.00    +0.000 N 
ATOM      6  C   UNL     1       6.151   5.398  18.091  0.00  0.00    +0.000 C 
ATOM      7  O   UNL     1       7.012   6.273  18.098  0.00  0.00    +0.000 OA
ATOM      8  N   UNL     1       7.339   5.532  15.417  0.00  0.00    +0.000 NA
ATOM      9  O   UNL     1       7.601   5.309  14.084  0.00  0.00    +0.000 OA
ATOM     10  H   UNL     1       5.013   3.956  17.119  0.00  0.00    +0.000 HD
ENDROOT
BRANCH   6  11
ATOM     11  C   UNL     1       5.374   5.114  19.366  0.00  0.00    +0.000 C 
BRANCH  11  12
ATOM     12  S   UNL     1       3.724   5.829  19.241  0.00  0.00    +0.000 S 
ATOM     13  O   UNL     1       3.447   6.155  17.724  0.00  0.00    +0.000 OA
BRANCH  12  14
ATOM     14  C   UNL     1       2.699   4.477  19.642  0.00  0.00    +0.000 A 
ATOM     15  C   UNL     1       2.152   4.341  20.901  0.00  0.00    +0.000 A 
ATOM     16  C   UNL     1       1.398   3.139  21.034  0.00  0.00    +0.000 A 
ATOM     17  C   UNL     1       1.402   2.402  19.870  0.00  0.00    +0.000 A 
ATOM     18  S   UNL     1       2.332   3.152  18.641  0.00  0.00    +0.000 S 
ENDBRANCH  12  14
ENDBRANCH  11  12
ENDBRANCH   6  11
TORSDOF 3
ENDMDL
MODEL 2
REMARK VINA RESULT:      -7.1      0.887      1.142
REMARK  Name = 
REMARK  4 active torsions:
REMARK  status: ('A' for Active; 'I' for Inactive)
REMARK    1  A    between atoms: C_1  and  C_2
REMARK    2  A    between atoms: C_6  and  C_8
REMARK    3  A    between atoms: C_8  and  S_9
REMARK    4  A    between atoms: S_9  and  C_11
REMARK                            x       y       z     vdW  Elec       q    Type
REMARK                         _______ _______ _______ _____ _____    ______ ____
ROOT
ATOM      1  C   UNL     1       7.294   4.520  12.030  0.00  0.00    +0.000 C 
ATOM      2  C   UNL     1       7.060   4.641  13.480  0.00  0.00    +0.000 A 
ATOM      3  C   UNL     1       6.207   4.054  14.385  0.00  0.00    +0.000 A 
ATOM      4  C   UNL     1       6.556   4.632  15.635  0.00  0.00    +0.000 A 
ATOM      5  N   UNL     1       5.946   4.321  16.839  0.00  0.00    +0.000 N 
ATOM      6  C   UNL     1       6.258   4.931  18.041  0.00  0.00    +0.000 C 
ATOM      7  O   UNL     1       7.136   5.768  18.234  0.00  0.00    +0.000 OA
ATOM      8  N   UNL     1       7.548   5.510  15.476  0.00  0.00    +0.000 NA
ATOM      9  O   UNL     1       7.856   5.522  14.134  0.00  0.00    +0.000 OA
ATOM     10  H   UNL     1       5.130   3.717  16.788  0.00  0.00    +0.000 HD
ENDROOT
BRANCH   6  11
ATOM     11  C   UNL     1       5.429   4.445  19.218  0.00  0.00    +0.000 C 
BRANCH  11  12
ATOM     12  S   UNL     1       3.973   5.491  19.405  0.00  0.00    +0.000 S 
ATOM     13  O   UNL     1       3.788   6.314  18.074  0.00  0.00    +0.000 OA
BRANCH  12  14
ATOM     14  C   UNL     1       2.677   4.327  19.442  0.00  0.00    +0.000 A 
ATOM     15  C   UNL     1       2.161   3.790  18.281  0.00  0.00    +0.000 A 
ATOM     16  C   UNL     1       1.072   2.907  18.531  0.00  0.00    +0.000 A 
ATOM     17  C   UNL     1       0.796   2.806  19.878  0.00  0.00    +0.000 A 
ATOM     18  S   UNL     1       1.834   3.793  20.819  0.00  0.00    +0.000 S 
ENDBRANCH  12  14
ENDBRANCH  11  12
ENDBRANCH   6  11
TORSDOF 3
ENDMDL
MODEL 3
REMARK VINA RESULT:      -7.0      1.629      1.865
REMARK  Name = 
REMARK  4 active torsions:
REMARK  status: ('A' for Active; 'I' for Inactive)
REMARK    1  A    between atoms: C_1  and  C_2
REMARK    2  A    between atoms: C_6  and  C_8
REMARK    3  A    between atoms: C_8  and  S_9
REMARK    4  A    between atoms: S_9  and  C_11
REMARK                            x       y       z     vdW  Elec       q    Type
REMARK                         _______ _______ _______ _____ _____    ______ ____
ROOT
ATOM      1  C   UNL     1       7.081   4.150  12.285  0.00  0.00    +0.000 C 
ATOM      2  C   UNL     1       6.849   4.380  13.723  0.00  0.00    +0.000 A 
ATOM      3  C   UNL     1       6.033   3.827  14.682  0.00  0.00    +0.000 A 
ATOM      4  C   UNL     1       6.359   4.525  15.876  0.00  0.00    +0.000 A 
ATOM      5  N   UNL     1       5.773   4.285  17.108  0.00  0.00    +0.000 N 
ATOM      6  C   UNL     1       6.060   5.008  18.252  0.00  0.00    +0.000 C 
ATOM      7  O   UNL     1       6.894   5.902  18.365  0.00  0.00    +0.000 OA
ATOM      8  N   UNL     1       7.304   5.437  15.634  0.00  0.00    +0.000 NA
ATOM      9  O   UNL     1       7.603   5.352  14.293  0.00  0.00    +0.000 OA
ATOM     10  H   UNL     1       4.989   3.638  17.116  0.00  0.00    +0.000 HD
ENDROOT
BRANCH   6  11
ATOM     11  C   UNL     1       5.264   4.580  19.473  0.00  0.00    +0.000 C 
BRANCH  11  12
ATOM     12  S   UNL     1       4.599   2.925  19.213  0.00  0.00    +0.000 S 
ATOM     13  O   UNL     1       5.177   1.984  20.337  0.00  0.00    +0.000 OA
BRANCH  12  14
ATOM     14  C   UNL     1       2.909   3.139  19.577  0.00  0.00    +0.000 A 
ATOM     15  C   UNL     1       1.927   2.608  18.768  0.00  0.00    +0.000 A 
ATOM     16  C   UNL     1       0.617   2.950  19.212  0.00  0.00    +0.000 A 
ATOM     17  C   UNL     1       0.651   3.733  20.345  0.00  0.00    +0.000 A 
ATOM     18  S   UNL     1       2.256   4.067  20.845  0.00  0.00    +0.000 S 
ENDBRANCH  12  14
ENDBRANCH  11  12
ENDBRANCH   6  11
TORSDOF 3
ENDMDL
MODEL 4
REMARK VINA RESULT:      -6.8      1.706      1.985
REMARK  Name = 
REMARK  4 active torsions:
REMARK  status: ('A' for Active; 'I' for Inactive)
REMARK    1  A    between atoms: C_1  and  C_2
REMARK    2  A    between atoms: C_6  and  C_8
REMARK    3  A    between atoms: C_8  and  S_9
REMARK    4  A    between atoms: S_9  and  C_11
REMARK                            x       y       z     vdW  Elec       q    Type
REMARK                         _______ _______ _______ _____ _____    ______ ____
ROOT
ATOM      1  C   UNL     1       6.744   3.804  11.894  0.00  0.00    +0.000 C 
ATOM      2  C   UNL     1       6.749   4.177  13.321  0.00  0.00    +0.000 A 
ATOM      3  C   UNL     1       6.119   3.717  14.454  0.00  0.00    +0.000 A 
ATOM      4  C   UNL     1       6.623   4.535  15.500  0.00  0.00    +0.000 A 
ATOM      5  N   UNL     1       6.257   4.416  16.831  0.00  0.00    +0.000 N 
ATOM      6  C   UNL     1       6.712   5.254  17.833  0.00  0.00    +0.000 C 
ATOM      7  O   UNL     1       7.530   6.162  17.716  0.00  0.00    +0.000 OA
ATOM      8  N   UNL     1       7.490   5.426  15.015  0.00  0.00    +0.000 NA
ATOM      9  O   UNL     1       7.563   5.208  13.657  0.00  0.00    +0.000 OA
ATOM     10  H   UNL     1       5.501   3.766  17.035  0.00  0.00    +0.000 HD
ENDROOT
BRANCH   6  11
ATOM     11  C   UNL     1       6.142   4.945  19.208  0.00  0.00    +0.000 C 
BRANCH  11  12
ATOM     12  S   UNL     1       4.768   3.791  19.047  0.00  0.00    +0.000 S 
ATOM     13  O   UNL     1       4.997   2.612  20.068  0.00  0.00    +0.000 OA
BRANCH  12  14
ATOM     14  C   UNL     1       3.427   4.716  19.666  0.00  0.00    +0.000 A 
ATOM     15  C   UNL     1       3.250   6.041  19.324  0.00  0.00    +0.000 A 
ATOM     16  C   UNL     1       2.131   6.624  19.984  0.00  0.00    +0.000 A 
ATOM     17  C   UNL     1       1.497   5.721  20.809  0.00  0.00    +0.000 A 
ATOM     18  S   UNL     1       2.270   4.191  20.796  0.00  0.00    +0.000 S 
ENDBRANCH  12  14
ENDBRANCH  11  12
ENDBRANCH   6  11
TORSDOF 3
ENDMDL
MODEL 5
REMARK VINA RESULT:      -6.5      2.075      2.763
REMARK  Name = 
REMARK  4 active torsions:
REMARK  status: ('A' for Active; 'I' for Inactive)
REMARK    1  A    between atoms: C_1  and  C_2
REMARK    2  A    between atoms: C_6  and  C_8
REMARK    3  A    between atoms: C_8  and  S_9
REMARK    4  A    between atoms: S_9  and  C_11
REMARK                            x       y       z     vdW  Elec       q    Type
REMARK                         _______ _______ _______ _____ _____    ______ ____
ROOT
ATOM      1  C   UNL     1       7.591   5.300  13.662  0.00  0.00    +0.000 C 
ATOM      2  C   UNL     1       6.881   4.816  14.860  0.00  0.00    +0.000 A 
ATOM      3  C   UNL     1       5.744   4.077  15.090  0.00  0.00    +0.000 A 
ATOM      4  C   UNL     1       5.671   3.963  16.505  0.00  0.00    +0.000 A 
ATOM      5  N   UNL     1       4.673   3.286  17.185  0.00  0.00    +0.000 N 
ATOM      6  C   UNL     1       4.583   3.227  18.564  0.00  0.00    +0.000 C 
ATOM      7  O   UNL     1       5.380   3.697  19.372  0.00  0.00    +0.000 OA
ATOM      8  N   UNL     1       6.698   4.600  17.073  0.00  0.00    +0.000 NA
ATOM      9  O   UNL     1       7.446   5.138  16.049  0.00  0.00    +0.000 OA
ATOM     10  H   UNL     1       3.896   2.946  16.624  0.00  0.00    +0.000 HD
ENDROOT
BRANCH   6  11
ATOM     11  C   UNL     1       3.380   2.453  19.076  0.00  0.00    +0.000 C 
BRANCH  11  12
ATOM     12  S   UNL     1       1.864   3.241  18.501  0.00  0.00    +0.000 S 
ATOM     13  O   UNL     1       0.651   2.583  19.263  0.00  0.00    +0.000 OA
BRANCH  12  14
ATOM     14  C   UNL     1       2.018   4.857  19.135  0.00  0.00    +0.000 A 
ATOM     15  C   UNL     1       1.676   5.153  20.438  0.00  0.00    +0.000 A 
ATOM     16  C   UNL     1       1.821   6.539  20.733  0.00  0.00    +0.000 A 
ATOM     17  C   UNL     1       2.266   7.250  19.640  0.00  0.00    +0.000 A 
ATOM     18  S   UNL     1       2.481   6.245  18.268  0.00  0.00    +0.000 S 
ENDBRANCH  12  14
ENDBRANCH  11  12
ENDBRANCH   6  11
TORSDOF 3
ENDMDL
MODEL 6
REMARK VINA RESULT:      -6.2      1.621      1.821
REMARK  Name = 
REMARK  4 active torsions:
REMARK  status: ('A' for Active; 'I' for Inactive)
REMARK    1  A    between atoms: C_1  and  C_2
REMARK    2  A    between atoms: C_6  and  C_8
REMARK    3  A    between atoms: C_8  and  S_9
REMARK    4  A    between atoms: S_9  and  C_11
REMARK                            x       y       z     vdW  Elec       q    Type
REMARK                         _______ _______ _______ _____ _____    ______ ____
ROOT
ATOM      1  C   UNL     1       7.084   3.001  11.450  0.00  0.00    +0.000 C 
ATOM      2  C   UNL     1       6.846   3.769  12.686  0.00  0.00    +0.000 A 
ATOM      3  C   UNL     1       5.929   3.714  13.710  0.00  0.00    +0.000 A 
ATOM      4  C   UNL     1       6.320   4.753  14.596  0.00  0.00    +0.000 A 
ATOM      5  N   UNL     1       5.669   5.057  15.780  0.00  0.00    +0.000 N 
ATOM      6  C   UNL     1       6.026   6.107  16.609  0.00  0.00    +0.000 C 
ATOM      7  O   UNL     1       6.979   6.866  16.462  0.00  0.00    +0.000 OA
ATOM      8  N   UNL     1       7.396   5.385  14.122  0.00  0.00    +0.000 NA
ATOM      9  O   UNL     1       7.718   4.777  12.929  0.00  0.00    +0.000 OA
ATOM     10  H   UNL     1       4.797   4.564  15.955  0.00  0.00    +0.000 HD
ENDROOT
BRANCH   6  11
ATOM     11  C   UNL     1       5.139   6.261  17.833  0.00  0.00    +0.000 C 
BRANCH  11  12
ATOM     12  S   UNL     1       5.201   4.753  18.819  0.00  0.00    +0.000 S 
ATOM     13  O   UNL     1       6.248   4.969  19.977  0.00  0.00    +0.000 OA
BRANCH  12  14
ATOM     14  C   UNL     1       3.632   4.736  19.577  0.00  0.00    +0.000 A 
ATOM     15  C   UNL     1       2.956   5.906  19.853  0.00  0.00    +0.000 A 
ATOM     16  C   UNL     1       1.723   5.671  20.526  0.00  0.00    +0.000 A 
ATOM     17  C   UNL     1       1.507   4.327  20.742  0.00  0.00    +0.000 A 
ATOM     18  S   UNL     1       2.801   3.369  20.153  0.00  0.00    +0.000 S 
ENDBRANCH  12  14
ENDBRANCH  11  12
ENDBRANCH   6  11
TORSDOF 3
ENDMDL
MODEL 7
REMARK VINA RESULT:      -6.2      1.791      2.495
REMARK  Name = 
REMARK  4 active torsions:
REMARK  status: ('A' for Active; 'I' for Inactive)
REMARK    1  A    between atoms: C_1  and  C_2
REMARK    2  A    between atoms: C_6  and  C_8
REMARK    3  A    between atoms: C_8  and  S_9
REMARK    4  A    between atoms: S_9  and  C_11
REMARK                            x       y       z     vdW  Elec       q    Type
REMARK                         _______ _______ _______ _____ _____    ______ ____
ROOT
ATOM      1  C   UNL     1       7.239   4.446  12.177  0.00  0.00    +0.000 C 
ATOM      2  C   UNL     1       6.923   4.519  13.615  0.00  0.00    +0.000 A 
ATOM      3  C   UNL     1       6.221   3.737  14.503  0.00  0.00    +0.000 A 
ATOM      4  C   UNL     1       6.356   4.402  15.751  0.00  0.00    +0.000 A 
ATOM      5  N   UNL     1       5.803   3.955  16.939  0.00  0.00    +0.000 N 
ATOM      6  C   UNL     1       5.895   4.640  18.138  0.00  0.00    +0.000 C 
ATOM      7  O   UNL     1       6.512   5.682  18.343  0.00  0.00    +0.000 OA
ATOM      8  N   UNL     1       7.087   5.510  15.607  0.00  0.00    +0.000 NA
ATOM      9  O   UNL     1       7.433   5.586  14.277  0.00  0.00    +0.000 OA
ATOM     10  H   UNL     1       5.177   3.157  16.873  0.00  0.00    +0.000 HD
ENDROOT
BRANCH   6  11
ATOM     11  C   UNL     1       5.177   3.966  19.296  0.00  0.00    +0.000 C 
BRANCH  11  12
ATOM     12  S   UNL     1       3.428   3.786  18.900  0.00  0.00    +0.000 S 
ATOM     13  O   UNL     1       2.755   2.931  20.040  0.00  0.00    +0.000 OA
BRANCH  12  14
ATOM     14  C   UNL     1       2.831   5.412  19.094  0.00  0.00    +0.000 A 
ATOM     15  C   UNL     1       2.868   6.319  18.055  0.00  0.00    +0.000 A 
ATOM     16  C   UNL     1       2.388   7.603  18.442  0.00  0.00    +0.000 A 
ATOM     17  C   UNL     1       2.005   7.627  19.765  0.00  0.00    +0.000 A 
ATOM     18  S   UNL     1       2.250   6.113  20.530  0.00  0.00    +0.000 S 
ENDBRANCH  12  14
ENDBRANCH  11  12
ENDBRANCH   6  11
TORSDOF 3
ENDMDL
MODEL 8
REMARK VINA RESULT:      -6.1      2.699      3.539
REMARK  Name = 
REMARK  4 active torsions:
REMARK  status: ('A' for Active; 'I' for Inactive)
REMARK    1  A    between atoms: C_1  and  C_2
REMARK    2  A    between atoms: C_6  and  C_8
REMARK    3  A    between atoms: C_8  and  S_9
REMARK    4  A    between atoms: S_9  and  C_11
REMARK                            x       y       z     vdW  Elec       q    Type
REMARK                         _______ _______ _______ _____ _____    ______ ____
ROOT
ATOM      1  C   UNL     1       8.045   8.064  17.709  0.00  0.00    +0.000 C 
ATOM      2  C   UNL     1       7.108   6.930  17.605  0.00  0.00    +0.000 A 
ATOM      3  C   UNL     1       7.058   5.654  18.115  0.00  0.00    +0.000 A 
ATOM      4  C   UNL     1       5.838   5.118  17.620  0.00  0.00    +0.000 A 
ATOM      5  N   UNL     1       5.377   3.841  17.894  0.00  0.00    +0.000 N 
ATOM      6  C   UNL     1       4.214   3.312  17.362  0.00  0.00    +0.000 C 
ATOM      7  O   UNL     1       3.406   3.891  16.641  0.00  0.00    +0.000 OA
ATOM      8  N   UNL     1       5.212   6.020  16.861  0.00  0.00    +0.000 NA
ATOM      9  O   UNL     1       6.006   7.145  16.845  0.00  0.00    +0.000 OA
ATOM     10  H   UNL     1       6.016   3.229  18.395  0.00  0.00    +0.000 HD
ENDROOT
BRANCH   6  11
ATOM     11  C   UNL     1       3.936   1.878  17.782  0.00  0.00    +0.000 C 
BRANCH  11  12
ATOM     12  S   UNL     1       3.787   1.792  19.577  0.00  0.00    +0.000 S 
ATOM     13  O   UNL     1       5.149   2.278  20.204  0.00  0.00    +0.000 OA
BRANCH  12  14
ATOM     14  C   UNL     1       2.621   3.042  19.916  0.00  0.00    +0.000 A 
ATOM     15  C   UNL     1       2.974   4.186  20.601  0.00  0.00    +0.000 A 
ATOM     16  C   UNL     1       1.861   5.047  20.823  0.00  0.00    +0.000 A 
ATOM     17  C   UNL     1       0.698   4.524  20.301  0.00  0.00    +0.000 A 
ATOM     18  S   UNL     1       0.956   2.994  19.572  0.00  0.00    +0.000 S 
ENDBRANCH  12  14
ENDBRANCH  11  12
ENDBRANCH   6  11
TORSDOF 3
ENDMDL
MODEL 9
REMARK VINA RESULT:      -5.9      1.684      1.882
REMARK  Name = 
REMARK  4 active torsions:
REMARK  status: ('A' for Active; 'I' for Inactive)
REMARK    1  A    between atoms: C_1  and  C_2
REMARK    2  A    between atoms: C_6  and  C_8
REMARK    3  A    between atoms: C_8  and  S_9
REMARK    4  A    between atoms: S_9  and  C_11
REMARK                            x       y       z     vdW  Elec       q    Type
REMARK                         _______ _______ _______ _____ _____    ______ ____
ROOT
ATOM      1  C   UNL     1       7.198   3.667  12.249  0.00  0.00    +0.000 C 
ATOM      2  C   UNL     1       6.667   4.358  13.438  0.00  0.00    +0.000 A 
ATOM      3  C   UNL     1       5.439   4.446  14.051  0.00  0.00    +0.000 A 
ATOM      4  C   UNL     1       5.663   5.271  15.186  0.00  0.00    +0.000 A 
ATOM      5  N   UNL     1       4.686   5.623  16.102  0.00  0.00    +0.000 N 
ATOM      6  C   UNL     1       4.904   6.472  17.173  0.00  0.00    +0.000 C 
ATOM      7  O   UNL     1       5.973   6.977  17.503  0.00  0.00    +0.000 OA
ATOM      8  N   UNL     1       6.941   5.651  15.235  0.00  0.00    +0.000 NA
ATOM      9  O   UNL     1       7.565   5.090  14.143  0.00  0.00    +0.000 OA
ATOM     10  H   UNL     1       3.733   5.351  15.872  0.00  0.00    +0.000 HD
ENDROOT
BRANCH   6  11
ATOM     11  C   UNL     1       3.669   6.736  18.018  0.00  0.00    +0.000 C 
BRANCH  11  12
ATOM     12  S   UNL     1       3.689   5.666  19.468  0.00  0.00    +0.000 S 
ATOM     13  O   UNL     1       2.481   6.076  20.395  0.00  0.00    +0.000 OA
BRANCH  12  14
ATOM     14  C   UNL     1       3.279   4.112  18.794  0.00  0.00    +0.000 A 
ATOM     15  C   UNL     1       4.185   3.072  18.785  0.00  0.00    +0.000 A 
ATOM     16  C   UNL     1       3.670   1.913  18.135  0.00  0.00    +0.000 A 
ATOM     17  C   UNL     1       2.389   2.116  17.670  0.00  0.00    +0.000 A 
ATOM     18  S   UNL     1       1.832   3.703  17.999  0.00  0.00    +0.000 S 
ENDBRANCH  12  14
ENDBRANCH  11  12
ENDBRANCH   6  11
TORSDOF 3
ENDMDL
