MODEL 1
REMARK VINA RESULT:      -5.5      0.000      0.000
REMARK  Name = 
REMARK  13 active torsions:
REMARK  status: ('A' for Active; 'I' for Inactive)
REMARK    1  A    between atoms: C_1  and  N_2
REMARK    2  A    between atoms: N_2  and  C_3
REMARK    3  A    between atoms: C_3  and  N_8
REMARK    4  A    between atoms: C_4  and  N_5
REMARK    5  A    between atoms: N_8  and  C_9
REMARK    6  A    between atoms: C_9  and  C_10
REMARK    7  A    between atoms: C_10  and  S_11
REMARK    8  A    between atoms: S_11  and  C_12
REMARK    9  A    between atoms: C_12  and  C_13
REMARK   10  A    between atoms: C_16  and  C_17
REMARK   11  A    between atoms: C_17  and  N_18
REMARK   12  A    between atoms: N_18  and  C_19
REMARK   13  A    between atoms: N_18  and  C_20
REMARK                            x       y       z     vdW  Elec       q    Type
REMARK                         _______ _______ _______ _____ _____    ______ ____
ROOT
ATOM      1  C   UNL     1       4.412   3.357  18.078  0.00  0.00    +0.000 C 
ENDROOT
BRANCH   1   2
ATOM      2  C   UNL     1       5.505   4.077  18.862  0.00  0.00    +0.000 C 
BRANCH   2   3
ATOM      3  N   UNL     1       6.722   4.250  18.091  0.00  0.00    +0.000 N 
ATOM      4  H   UNL     1       7.403   3.497  18.085  0.00  0.00    +0.000 HD
BRANCH   3   5
ATOM      5  C   UNL     1       7.177   5.446  17.553  0.00  0.00    +0.000 C 
ATOM      6  C   UNL     1       7.546   6.419  18.403  0.00  0.00    +0.000 C 
BRANCH   5   8
ATOM      7  C   UNL     1       6.704   4.547  15.232  0.00  0.00    +0.000 C 
ATOM      8  N   UNL     1       7.202   5.524  16.176  0.00  0.00    +0.000 N 
ATOM      9  H   UNL     1       7.381   6.459  15.798  0.00  0.00    +0.000 HD
ENDBRANCH   5   8
BRANCH   6  10
ATOM     10  N   UNL     1       7.981   7.739  18.014  0.00  0.00    +0.000 N 
ATOM     11  O   UNL     1       7.593   8.229  16.943  0.00  0.00    +0.000 OA
ATOM     12  O   UNL     1       8.723   8.313  18.828  0.00  0.00    +0.000 OA
ENDBRANCH   6  10
ENDBRANCH   3   5
ENDBRANCH   2   3
ENDBRANCH   1   2
BRANCH   1  13
ATOM     13  S   UNL     1       2.741   3.819  18.674  0.00  0.00    +0.000 S 
BRANCH  13  14
ATOM     14  C   UNL     1       3.164   5.212  19.783  0.00  0.00    +0.000 C 
BRANCH  14  15
ATOM     15  C   UNL     1       2.679   6.531  19.274  0.00  0.00    +0.000 A 
ATOM     16  C   UNL     1       2.997   7.135  18.071  0.00  0.00    +0.000 A 
ATOM     17  S   UNL     1       2.266   8.680  17.969  0.00  0.00    +0.000 S 
ATOM     18  C   UNL     1       1.608   8.466  19.544  0.00  0.00    +0.000 A 
ATOM     19  N   UNL     1       1.876   7.303  20.107  0.00  0.00    +0.000 NA
BRANCH  18  20
ATOM     20  C   UNL     1       0.859   9.590  20.227  0.00  0.00    +0.000 C 
BRANCH  20  21
ATOM     21  N   UNL     1       0.483  10.718  19.346  0.00  0.00    +0.000 NA
ATOM     22  C   UNL     1      -0.964  10.952  19.361  0.00  0.00    +0.000 C 
ATOM     23  C   UNL     1       1.175  11.934  19.787  0.00  0.00    +0.000 C 
ENDBRANCH  20  21
ENDBRANCH  18  20
ENDBRANCH  14  15
ENDBRANCH  13  14
ENDBRANCH   1  13
TORSDOF 10
ENDMDL
MODEL 2
REMARK VINA RESULT:      -5.4      1.772      2.440
REMARK  Name = 
REMARK  13 active torsions:
REMARK  status: ('A' for Active; 'I' for Inactive)
REMARK    1  A    between atoms: C_1  and  N_2
REMARK    2  A    between atoms: N_2  and  C_3
REMARK    3  A    between atoms: C_3  and  N_8
REMARK    4  A    between atoms: C_4  and  N_5
REMARK    5  A    between atoms: N_8  and  C_9
REMARK    6  A    between atoms: C_9  and  C_10
REMARK    7  A    between atoms: C_10  and  S_11
REMARK    8  A    between atoms: S_11  and  C_12
REMARK    9  A    between atoms: C_12  and  C_13
REMARK   10  A    between atoms: C_16  and  C_17
REMARK   11  A    between atoms: C_17  and  N_18
REMARK   12  A    between atoms: N_18  and  C_19
REMARK   13  A    between atoms: N_18  and  C_20
REMARK                            x       y       z     vdW  Elec       q    Type
REMARK                         _______ _______ _______ _____ _____    ______ ____
ROOT
ATOM      1  C   UNL     1       2.213   3.709  18.333  0.00  0.00    +0.000 C 
ENDROOT
BRANCH   1   2
ATOM      2  C   UNL     1       3.285   2.630  18.445  0.00  0.00    +0.000 C 
BRANCH   2   3
ATOM      3  N   UNL     1       4.323   2.770  17.440  0.00  0.00    +0.000 N 
ATOM      4  H   UNL     1       4.557   1.964  16.869  0.00  0.00    +0.000 HD
BRANCH   3   5
ATOM      5  C   UNL     1       5.216   3.828  17.339  0.00  0.00    +0.000 C 
ATOM      6  C   UNL     1       5.224   4.539  16.198  0.00  0.00    +0.000 C 
BRANCH   5   8
ATOM      7  C   UNL     1       6.159   5.273  19.194  0.00  0.00    +0.000 C 
ATOM      8  N   UNL     1       6.024   4.049  18.434  0.00  0.00    +0.000 N 
ATOM      9  H   UNL     1       6.386   3.203  18.884  0.00  0.00    +0.000 HD
ENDBRANCH   5   8
BRANCH   6  10
ATOM     10  N   UNL     1       6.128   5.626  15.906  0.00  0.00    +0.000 N 
ATOM     11  O   UNL     1       5.690   6.778  15.768  0.00  0.00    +0.000 OA
ATOM     12  O   UNL     1       7.327   5.310  15.833  0.00  0.00    +0.000 OA
ENDBRANCH   6  10
ENDBRANCH   3   5
ENDBRANCH   2   3
ENDBRANCH   1   2
BRANCH   1  13
ATOM     13  S   UNL     1       1.609   4.230  19.983  0.00  0.00    +0.000 S 
BRANCH  13  14
ATOM     14  C   UNL     1       2.735   5.633  20.315  0.00  0.00    +0.000 C 
BRANCH  14  15
ATOM     15  C   UNL     1       2.375   6.865  19.548  0.00  0.00    +0.000 A 
ATOM     16  C   UNL     1       2.697   7.160  18.236  0.00  0.00    +0.000 A 
ATOM     17  S   UNL     1       2.138   8.725  17.823  0.00  0.00    +0.000 S 
ATOM     18  C   UNL     1       1.541   8.927  19.424  0.00  0.00    +0.000 A 
ATOM     19  N   UNL     1       1.705   7.884  20.216  0.00  0.00    +0.000 NA
BRANCH  18  20
ATOM     20  C   UNL     1       0.957  10.250  19.869  0.00  0.00    +0.000 C 
BRANCH  20  21
ATOM     21  N   UNL     1      -0.483  10.216  20.211  0.00  0.00    +0.000 NA
ATOM     22  C   UNL     1      -0.790  11.111  21.331  0.00  0.00    +0.000 C 
ATOM     23  C   UNL     1      -1.273  10.615  19.042  0.00  0.00    +0.000 C 
ENDBRANCH  20  21
ENDBRANCH  18  20
ENDBRANCH  14  15
ENDBRANCH  13  14
ENDBRANCH   1  13
TORSDOF 10
ENDMDL
MODEL 3
REMARK VINA RESULT:      -5.4      1.810      2.477
REMARK  Name = 
REMARK  13 active torsions:
REMARK  status: ('A' for Active; 'I' for Inactive)
REMARK    1  A    between atoms: C_1  and  N_2
REMARK    2  A    between atoms: N_2  and  C_3
REMARK    3  A    between atoms: C_3  and  N_8
REMARK    4  A    between atoms: C_4  and  N_5
REMARK    5  A    between atoms: N_8  and  C_9
REMARK    6  A    between atoms: C_9  and  C_10
REMARK    7  A    between atoms: C_10  and  S_11
REMARK    8  A    between atoms: S_11  and  C_12
REMARK    9  A    between atoms: C_12  and  C_13
REMARK   10  A    between atoms: C_16  and  C_17
REMARK   11  A    between atoms: C_17  and  N_18
REMARK   12  A    between atoms: N_18  and  C_19
REMARK   13  A    between atoms: N_18  and  C_20
REMARK                            x       y       z     vdW  Elec       q    Type
REMARK                         _______ _______ _______ _____ _____    ______ ____
ROOT
ATOM      1  C   UNL     1       3.132   3.875  18.731  0.00  0.00    +0.000 C 
ENDROOT
BRANCH   1   2
ATOM      2  C   UNL     1       4.319   3.337  19.522  0.00  0.00    +0.000 C 
BRANCH   2   3
ATOM      3  N   UNL     1       5.562   3.403  18.776  0.00  0.00    +0.000 N 
ATOM      4  H   UNL     1       6.197   2.613  18.821  0.00  0.00    +0.000 HD
BRANCH   3   5
ATOM      5  C   UNL     1       6.099   4.544  18.197  0.00  0.00    +0.000 C 
ATOM      6  C   UNL     1       6.160   4.601  16.855  0.00  0.00    +0.000 C 
BRANCH   5   8
ATOM      7  C   UNL     1       7.867   5.705  19.590  0.00  0.00    +0.000 C 
ATOM      8  N   UNL     1       6.531   5.523  19.067  0.00  0.00    +0.000 N 
ATOM      9  H   UNL     1       5.900   6.323  19.167  0.00  0.00    +0.000 HD
ENDBRANCH   5   8
BRANCH   6  10
ATOM     10  N   UNL     1       6.744   5.682  16.097  0.00  0.00    +0.000 N 
ATOM     11  O   UNL     1       7.483   5.435  15.133  0.00  0.00    +0.000 OA
ATOM     12  O   UNL     1       6.429   6.823  16.475  0.00  0.00    +0.000 OA
ENDBRANCH   6  10
ENDBRANCH   3   5
ENDBRANCH   2   3
ENDBRANCH   1   2
BRANCH   1  13
ATOM     13  S   UNL     1       2.327   5.277  19.595  0.00  0.00    +0.000 S 
BRANCH  13  14
ATOM     14  C   UNL     1       2.689   6.634  18.422  0.00  0.00    +0.000 C 
BRANCH  14  15
ATOM     15  C   UNL     1       1.997   7.911  18.775  0.00  0.00    +0.000 A 
ATOM     16  C   UNL     1       1.636   8.935  17.918  0.00  0.00    +0.000 A 
ATOM     17  S   UNL     1       0.943  10.231  18.797  0.00  0.00    +0.000 S 
ATOM     18  C   UNL     1       1.203   9.368  20.262  0.00  0.00    +0.000 A 
ATOM     19  N   UNL     1       1.736   8.169  20.117  0.00  0.00    +0.000 NA
BRANCH  18  20
ATOM     20  C   UNL     1       0.907  10.011  21.600  0.00  0.00    +0.000 C 
BRANCH  20  21
ATOM     21  N   UNL     1      -0.352  10.785  21.657  0.00  0.00    +0.000 NA
ATOM     22  C   UNL     1      -1.015  10.637  22.957  0.00  0.00    +0.000 C 
ATOM     23  C   UNL     1      -0.067  12.203  21.419  0.00  0.00    +0.000 C 
ENDBRANCH  20  21
ENDBRANCH  18  20
ENDBRANCH  14  15
ENDBRANCH  13  14
ENDBRANCH   1  13
TORSDOF 10
ENDMDL
MODEL 4
REMARK VINA RESULT:      -5.4      2.051      2.929
REMARK  Name = 
REMARK  13 active torsions:
REMARK  status: ('A' for Active; 'I' for Inactive)
REMARK    1  A    between atoms: C_1  and  N_2
REMARK    2  A    between atoms: N_2  and  C_3
REMARK    3  A    between atoms: C_3  and  N_8
REMARK    4  A    between atoms: C_4  and  N_5
REMARK    5  A    between atoms: N_8  and  C_9
REMARK    6  A    between atoms: C_9  and  C_10
REMARK    7  A    between atoms: C_10  and  S_11
REMARK    8  A    between atoms: S_11  and  C_12
REMARK    9  A    between atoms: C_12  and  C_13
REMARK   10  A    between atoms: C_16  and  C_17
REMARK   11  A    between atoms: C_17  and  N_18
REMARK   12  A    between atoms: N_18  and  C_19
REMARK   13  A    between atoms: N_18  and  C_20
REMARK                            x       y       z     vdW  Elec       q    Type
REMARK                         _______ _______ _______ _____ _____    ______ ____
ROOT
ATOM      1  C   UNL     1       4.655   5.322  19.306  0.00  0.00    +0.000 C 
ENDROOT
BRANCH   1   2
ATOM      2  C   UNL     1       5.416   4.101  18.803  0.00  0.00    +0.000 C 
BRANCH   2   3
ATOM      3  N   UNL     1       6.653   4.453  18.132  0.00  0.00    +0.000 N 
ATOM      4  H   UNL     1       7.509   4.485  18.678  0.00  0.00    +0.000 HD
BRANCH   3   5
ATOM      5  C   UNL     1       6.758   4.999  16.860  0.00  0.00    +0.000 C 
ATOM      6  C   UNL     1       6.738   4.160  15.810  0.00  0.00    +0.000 C 
BRANCH   5   8
ATOM      7  C   UNL     1       7.601   7.232  17.708  0.00  0.00    +0.000 C 
ATOM      8  N   UNL     1       6.881   6.371  16.795  0.00  0.00    +0.000 N 
ATOM      9  H   UNL     1       6.632   6.787  15.893  0.00  0.00    +0.000 HD
ENDBRANCH   5   8
BRANCH   6  10
ATOM     10  N   UNL     1       6.898   4.554  14.431  0.00  0.00    +0.000 N 
ATOM     11  O   UNL     1       6.205   4.026  13.550  0.00  0.00    +0.000 OA
ATOM     12  O   UNL     1       7.740   5.446  14.231  0.00  0.00    +0.000 OA
ENDBRANCH   6  10
ENDBRANCH   3   5
ENDBRANCH   2   3
ENDBRANCH   1   2
BRANCH   1  13
ATOM     13  S   UNL     1       2.950   5.377  18.635  0.00  0.00    +0.000 S 
BRANCH  13  14
ATOM     14  C   UNL     1       2.896   7.100  18.023  0.00  0.00    +0.000 C 
BRANCH  14  15
ATOM     15  C   UNL     1       2.147   8.020  18.933  0.00  0.00    +0.000 A 
ATOM     16  C   UNL     1       1.761   7.778  20.239  0.00  0.00    +0.000 A 
ATOM     17  S   UNL     1       0.852   9.096  20.845  0.00  0.00    +0.000 S 
ATOM     18  C   UNL     1       0.994   9.886  19.322  0.00  0.00    +0.000 A 
ATOM     19  N   UNL     1       1.706   9.236  18.422  0.00  0.00    +0.000 NA
BRANCH  18  20
ATOM     20  C   UNL     1       0.266  11.186  19.056  0.00  0.00    +0.000 C 
BRANCH  20  21
ATOM     21  N   UNL     1       0.955  12.400  19.544  0.00  0.00    +0.000 NA
ATOM     22  C   UNL     1       1.467  13.210  18.435  0.00  0.00    +0.000 C 
ATOM     23  C   UNL     1       0.022  13.205  20.340  0.00  0.00    +0.000 C 
ENDBRANCH  20  21
ENDBRANCH  18  20
ENDBRANCH  14  15
ENDBRANCH  13  14
ENDBRANCH   1  13
TORSDOF 10
ENDMDL
MODEL 5
REMARK VINA RESULT:      -5.3      1.962      2.613
REMARK  Name = 
REMARK  13 active torsions:
REMARK  status: ('A' for Active; 'I' for Inactive)
REMARK    1  A    between atoms: C_1  and  N_2
REMARK    2  A    between atoms: N_2  and  C_3
REMARK    3  A    between atoms: C_3  and  N_8
REMARK    4  A    between atoms: C_4  and  N_5
REMARK    5  A    between atoms: N_8  and  C_9
REMARK    6  A    between atoms: C_9  and  C_10
REMARK    7  A    between atoms: C_10  and  S_11
REMARK    8  A    between atoms: S_11  and  C_12
REMARK    9  A    between atoms: C_12  and  C_13
REMARK   10  A    between atoms: C_16  and  C_17
REMARK   11  A    between atoms: C_17  and  N_18
REMARK   12  A    between atoms: N_18  and  C_19
REMARK   13  A    between atoms: N_18  and  C_20
REMARK                            x       y       z     vdW  Elec       q    Type
REMARK                         _______ _______ _______ _____ _____    ______ ____
ROOT
ATOM      1  C   UNL     1       3.077   3.689  18.341  0.00  0.00    +0.000 C 
ENDROOT
BRANCH   1   2
ATOM      2  C   UNL     1       4.245   3.812  19.312  0.00  0.00    +0.000 C 
BRANCH   2   3
ATOM      3  N   UNL     1       5.522   3.520  18.688  0.00  0.00    +0.000 N 
ATOM      4  H   UNL     1       6.040   2.706  19.002  0.00  0.00    +0.000 HD
BRANCH   3   5
ATOM      5  C   UNL     1       6.240   4.382  17.871  0.00  0.00    +0.000 C 
ATOM      6  C   UNL     1       5.694   4.735  16.694  0.00  0.00    +0.000 C 
BRANCH   5   8
ATOM      7  C   UNL     1       7.775   6.048  19.004  0.00  0.00    +0.000 C 
ATOM      8  N   UNL     1       7.465   4.796  18.349  0.00  0.00    +0.000 N 
ATOM      9  H   UNL     1       8.163   4.054  18.452  0.00  0.00    +0.000 HD
ENDBRANCH   5   8
BRANCH   6  10
ATOM     10  N   UNL     1       6.330   5.569  15.702  0.00  0.00    +0.000 N 
ATOM     11  O   UNL     1       7.520   5.382  15.405  0.00  0.00    +0.000 OA
ATOM     12  O   UNL     1       5.598   6.430  15.187  0.00  0.00    +0.000 OA
ENDBRANCH   6  10
ENDBRANCH   3   5
ENDBRANCH   2   3
ENDBRANCH   1   2
BRANCH   1  13
ATOM     13  S   UNL     1       2.157   5.267  18.189  0.00  0.00    +0.000 S 
BRANCH  13  14
ATOM     14  C   UNL     1       2.800   6.160  19.651  0.00  0.00    +0.000 C 
BRANCH  14  15
ATOM     15  C   UNL     1       2.080   7.444  19.914  0.00  0.00    +0.000 A 
ATOM     16  C   UNL     1       1.425   7.816  21.074  0.00  0.00    +0.000 A 
ATOM     17  S   UNL     1       0.680   9.344  20.872  0.00  0.00    +0.000 S 
ATOM     18  C   UNL     1       1.240   9.395  19.246  0.00  0.00    +0.000 A 
ATOM     19  N   UNL     1       1.972   8.362  18.875  0.00  0.00    +0.000 NA
BRANCH  18  20
ATOM     20  C   UNL     1       0.825  10.520  18.321  0.00  0.00    +0.000 C 
BRANCH  20  21
ATOM     21  N   UNL     1       0.176  11.670  18.987  0.00  0.00    +0.000 NA
ATOM     22  C   UNL     1       1.009  12.874  18.913  0.00  0.00    +0.000 C 
ATOM     23  C   UNL     1      -1.118  11.938  18.350  0.00  0.00    +0.000 C 
ENDBRANCH  20  21
ENDBRANCH  18  20
ENDBRANCH  14  15
ENDBRANCH  13  14
ENDBRANCH   1  13
TORSDOF 10
ENDMDL
MODEL 6
REMARK VINA RESULT:      -5.2      2.043      2.700
REMARK  Name = 
REMARK  13 active torsions:
REMARK  status: ('A' for Active; 'I' for Inactive)
REMARK    1  A    between atoms: C_1  and  N_2
REMARK    2  A    between atoms: N_2  and  C_3
REMARK    3  A    between atoms: C_3  and  N_8
REMARK    4  A    between atoms: C_4  and  N_5
REMARK    5  A    between atoms: N_8  and  C_9
REMARK    6  A    between atoms: C_9  and  C_10
REMARK    7  A    between atoms: C_10  and  S_11
REMARK    8  A    between atoms: S_11  and  C_12
REMARK    9  A    between atoms: C_12  and  C_13
REMARK   10  A    between atoms: C_16  and  C_17
REMARK   11  A    between atoms: C_17  and  N_18
REMARK   12  A    between atoms: N_18  and  C_19
REMARK   13  A    between atoms: N_18  and  C_20
REMARK                            x       y       z     vdW  Elec       q    Type
REMARK                         _______ _______ _______ _____ _____    ______ ____
ROOT
ATOM      1  C   UNL     1       3.176   3.030  19.118  0.00  0.00    +0.000 C 
ENDROOT
BRANCH   1   2
ATOM      2  C   UNL     1       3.872   2.844  17.775  0.00  0.00    +0.000 C 
BRANCH   2   3
ATOM      3  N   UNL     1       5.111   3.594  17.680  0.00  0.00    +0.000 N 
ATOM      4  H   UNL     1       5.647   3.754  18.527  0.00  0.00    +0.000 HD
BRANCH   3   5
ATOM      5  C   UNL     1       5.524   4.340  16.584  0.00  0.00    +0.000 C 
ATOM      6  C   UNL     1       6.173   3.700  15.596  0.00  0.00    +0.000 C 
BRANCH   5   8
ATOM      7  C   UNL     1       5.986   6.734  17.268  0.00  0.00    +0.000 C 
ATOM      8  N   UNL     1       5.230   5.686  16.618  0.00  0.00    +0.000 N 
ATOM      9  H   UNL     1       4.540   5.997  15.928  0.00  0.00    +0.000 HD
ENDBRANCH   5   8
BRANCH   6  10
ATOM     10  N   UNL     1       6.724   4.333  14.421  0.00  0.00    +0.000 N 
ATOM     11  O   UNL     1       6.344   3.986  13.293  0.00  0.00    +0.000 OA
ATOM     12  O   UNL     1       7.556   5.229  14.645  0.00  0.00    +0.000 OA
ENDBRANCH   6  10
ENDBRANCH   3   5
ENDBRANCH   2   3
ENDBRANCH   1   2
BRANCH   1  13
ATOM     13  S   UNL     1       1.905   4.349  19.040  0.00  0.00    +0.000 S 
BRANCH  13  14
ATOM     14  C   UNL     1       2.831   5.739  19.786  0.00  0.00    +0.000 C 
BRANCH  14  15
ATOM     15  C   UNL     1       2.390   7.074  19.277  0.00  0.00    +0.000 A 
ATOM     16  C   UNL     1       2.611   7.608  18.021  0.00  0.00    +0.000 A 
ATOM     17  S   UNL     1       1.990   9.202  17.934  0.00  0.00    +0.000 S 
ATOM     18  C   UNL     1       1.504   9.095  19.581  0.00  0.00    +0.000 A 
ATOM     19  N   UNL     1       1.748   7.935  20.161  0.00  0.00    +0.000 NA
BRANCH  18  20
ATOM     20  C   UNL     1       0.924  10.298  20.294  0.00  0.00    +0.000 C 
BRANCH  20  21
ATOM     21  N   UNL     1      -0.545  10.275  20.465  0.00  0.00    +0.000 NA
ATOM     22  C   UNL     1      -1.008  11.403  21.279  0.00  0.00    +0.000 C 
ATOM     23  C   UNL     1      -1.192  10.331  19.150  0.00  0.00    +0.000 C 
ENDBRANCH  20  21
ENDBRANCH  18  20
ENDBRANCH  14  15
ENDBRANCH  13  14
ENDBRANCH   1  13
TORSDOF 10
ENDMDL
MODEL 7
REMARK VINA RESULT:      -5.2      2.048      2.693
REMARK  Name = 
REMARK  13 active torsions:
REMARK  status: ('A' for Active; 'I' for Inactive)
REMARK    1  A    between atoms: C_1  and  N_2
REMARK    2  A    between atoms: N_2  and  C_3
REMARK    3  A    between atoms: C_3  and  N_8
REMARK    4  A    between atoms: C_4  and  N_5
REMARK    5  A    between atoms: N_8  and  C_9
REMARK    6  A    between atoms: C_9  and  C_10
REMARK    7  A    between atoms: C_10  and  S_11
REMARK    8  A    between atoms: S_11  and  C_12
REMARK    9  A    between atoms: C_12  and  C_13
REMARK   10  A    between atoms: C_16  and  C_17
REMARK   11  A    between atoms: C_17  and  N_18
REMARK   12  A    between atoms: N_18  and  C_19
REMARK   13  A    between atoms: N_18  and  C_20
REMARK                            x       y       z     vdW  Elec       q    Type
REMARK                         _______ _______ _______ _____ _____    ______ ____
ROOT
ATOM      1  C   UNL     1       3.901   2.213  18.988  0.00  0.00    +0.000 C 
ENDROOT
BRANCH   1   2
ATOM      2  C   UNL     1       4.750   3.367  19.508  0.00  0.00    +0.000 C 
BRANCH   2   3
ATOM      3  N   UNL     1       5.907   3.629  18.671  0.00  0.00    +0.000 N 
ATOM      4  H   UNL     1       6.751   3.088  18.827  0.00  0.00    +0.000 HD
BRANCH   3   5
ATOM      5  C   UNL     1       6.068   4.725  17.833  0.00  0.00    +0.000 C 
ATOM      6  C   UNL     1       5.510   4.671  16.611  0.00  0.00    +0.000 C 
BRANCH   5   8
ATOM      7  C   UNL     1       7.770   5.734  19.414  0.00  0.00    +0.000 C 
ATOM      8  N   UNL     1       6.801   5.776  18.340  0.00  0.00    +0.000 N 
ATOM      9  H   UNL     1       6.827   6.612  17.749  0.00  0.00    +0.000 HD
ENDBRANCH   5   8
BRANCH   6  10
ATOM     10  N   UNL     1       5.634   5.691  15.598  0.00  0.00    +0.000 N 
ATOM     11  O   UNL     1       5.114   6.803  15.769  0.00  0.00    +0.000 OA
ATOM     12  O   UNL     1       6.301   5.366  14.601  0.00  0.00    +0.000 OA
ENDBRANCH   6  10
ENDBRANCH   3   5
ENDBRANCH   2   3
ENDBRANCH   1   2
BRANCH   1  13
ATOM     13  S   UNL     1       2.375   2.817  18.170  0.00  0.00    +0.000 S 
BRANCH  13  14
ATOM     14  C   UNL     1       1.609   3.742  19.550  0.00  0.00    +0.000 C 
BRANCH  14  15
ATOM     15  C   UNL     1       1.788   5.222  19.431  0.00  0.00    +0.000 A 
ATOM     16  C   UNL     1       2.336   5.918  18.370  0.00  0.00    +0.000 A 
ATOM     17  S   UNL     1       2.406   7.591  18.729  0.00  0.00    +0.000 S 
ATOM     18  C   UNL     1       1.742   7.278  20.286  0.00  0.00    +0.000 A 
ATOM     19  N   UNL     1       1.445   6.015  20.522  0.00  0.00    +0.000 NA
BRANCH  18  20
ATOM     20  C   UNL     1       1.609   8.389  21.305  0.00  0.00    +0.000 C 
BRANCH  20  21
ATOM     21  N   UNL     1       0.220   8.790  21.616  0.00  0.00    +0.000 NA
ATOM     22  C   UNL     1       0.127   9.429  22.933  0.00  0.00    +0.000 C 
ATOM     23  C   UNL     1      -0.262   9.723  20.592  0.00  0.00    +0.000 C 
ENDBRANCH  20  21
ENDBRANCH  18  20
ENDBRANCH  14  15
ENDBRANCH  13  14
ENDBRANCH   1  13
TORSDOF 10
ENDMDL
MODEL 8
REMARK VINA RESULT:      -5.2      1.753      2.491
REMARK  Name = 
REMARK  13 active torsions:
REMARK  status: ('A' for Active; 'I' for Inactive)
REMARK    1  A    between atoms: C_1  and  N_2
REMARK    2  A    between atoms: N_2  and  C_3
REMARK    3  A    between atoms: C_3  and  N_8
REMARK    4  A    between atoms: C_4  and  N_5
REMARK    5  A    between atoms: N_8  and  C_9
REMARK    6  A    between atoms: C_9  and  C_10
REMARK    7  A    between atoms: C_10  and  S_11
REMARK    8  A    between atoms: S_11  and  C_12
REMARK    9  A    between atoms: C_12  and  C_13
REMARK   10  A    between atoms: C_16  and  C_17
REMARK   11  A    between atoms: C_17  and  N_18
REMARK   12  A    between atoms: N_18  and  C_19
REMARK   13  A    between atoms: N_18  and  C_20
REMARK                            x       y       z     vdW  Elec       q    Type
REMARK                         _______ _______ _______ _____ _____    ______ ____
ROOT
ATOM      1  C   UNL     1       3.551   4.733  19.785  0.00  0.00    +0.000 C 
ENDROOT
BRANCH   1   2
ATOM      2  C   UNL     1       4.178   3.359  19.575  0.00  0.00    +0.000 C 
BRANCH   2   3
ATOM      3  N   UNL     1       5.371   3.411  18.751  0.00  0.00    +0.000 N 
ATOM      4  H   UNL     1       5.911   2.561  18.625  0.00  0.00    +0.000 HD
BRANCH   3   5
ATOM      5  C   UNL     1       6.002   4.567  18.311  0.00  0.00    +0.000 C 
ATOM      6  C   UNL     1       6.012   4.815  16.990  0.00  0.00    +0.000 C 
BRANCH   5   8
ATOM      7  C   UNL     1       7.979   5.620  19.493  0.00  0.00    +0.000 C 
ATOM      8  N   UNL     1       6.571   5.359  19.285  0.00  0.00    +0.000 N 
ATOM      9  H   UNL     1       5.925   5.998  19.757  0.00  0.00    +0.000 HD
ENDBRANCH   5   8
BRANCH   6  10
ATOM     10  N   UNL     1       6.674   5.933  16.361  0.00  0.00    +0.000 N 
ATOM     11  O   UNL     1       7.589   5.735  15.548  0.00  0.00    +0.000 OA
ATOM     12  O   UNL     1       6.241   7.052  16.683  0.00  0.00    +0.000 OA
ENDBRANCH   6  10
ENDBRANCH   3   5
ENDBRANCH   2   3
ENDBRANCH   1   2
BRANCH   1  13
ATOM     13  S   UNL     1       2.344   5.131  18.463  0.00  0.00    +0.000 S 
BRANCH  13  14
ATOM     14  C   UNL     1       2.740   6.894  18.181  0.00  0.00    +0.000 C 
BRANCH  14  15
ATOM     15  C   UNL     1       2.077   7.806  19.163  0.00  0.00    +0.000 A 
ATOM     16  C   UNL     1       1.712   7.515  20.464  0.00  0.00    +0.000 A 
ATOM     17  S   UNL     1       0.907   8.851  21.170  0.00  0.00    +0.000 S 
ATOM     18  C   UNL     1       1.059   9.716  19.691  0.00  0.00    +0.000 A 
ATOM     19  N   UNL     1       1.703   9.075  18.734  0.00  0.00    +0.000 NA
BRANCH  18  20
ATOM     20  C   UNL     1       0.410  11.072  19.520  0.00  0.00    +0.000 C 
BRANCH  20  21
ATOM     21  N   UNL     1      -0.526  11.179  18.379  0.00  0.00    +0.000 NA
ATOM     22  C   UNL     1      -1.702  10.325  18.567  0.00  0.00    +0.000 C 
ATOM     23  C   UNL     1      -0.959  12.573  18.230  0.00  0.00    +0.000 C 
ENDBRANCH  20  21
ENDBRANCH  18  20
ENDBRANCH  14  15
ENDBRANCH  13  14
ENDBRANCH   1  13
TORSDOF 10
ENDMDL
MODEL 9
REMARK VINA RESULT:      -5.2      2.185      3.144
REMARK  Name = 
REMARK  13 active torsions:
REMARK  status: ('A' for Active; 'I' for Inactive)
REMARK    1  A    between atoms: C_1  and  N_2
REMARK    2  A    between atoms: N_2  and  C_3
REMARK    3  A    between atoms: C_3  and  N_8
REMARK    4  A    between atoms: C_4  and  N_5
REMARK    5  A    between atoms: N_8  and  C_9
REMARK    6  A    between atoms: C_9  and  C_10
REMARK    7  A    between atoms: C_10  and  S_11
REMARK    8  A    between atoms: S_11  and  C_12
REMARK    9  A    between atoms: C_12  and  C_13
REMARK   10  A    between atoms: C_16  and  C_17
REMARK   11  A    between atoms: C_17  and  N_18
REMARK   12  A    between atoms: N_18  and  C_19
REMARK   13  A    between atoms: N_18  and  C_20
REMARK                            x       y       z     vdW  Elec       q    Type
REMARK                         _______ _______ _______ _____ _____    ______ ____
ROOT
ATOM      1  C   UNL     1       1.650   4.008  19.020  0.00  0.00    +0.000 C 
ENDROOT
BRANCH   1   2
ATOM      2  C   UNL     1       2.529   4.268  17.802  0.00  0.00    +0.000 C 
BRANCH   2   3
ATOM      3  N   UNL     1       3.800   3.571  17.873  0.00  0.00    +0.000 N 
ATOM      4  H   UNL     1       3.886   2.783  18.507  0.00  0.00    +0.000 HD
BRANCH   3   5
ATOM      5  C   UNL     1       5.002   4.023  17.346  0.00  0.00    +0.000 C 
ATOM      6  C   UNL     1       5.055   4.278  16.027  0.00  0.00    +0.000 C 
BRANCH   5   8
ATOM      7  C   UNL     1       6.226   5.214  19.216  0.00  0.00    +0.000 C 
ATOM      8  N   UNL     1       6.043   4.164  18.238  0.00  0.00    +0.000 N 
ATOM      9  H   UNL     1       6.616   3.325  18.373  0.00  0.00    +0.000 HD
ENDBRANCH   5   8
BRANCH   6  10
ATOM     10  N   UNL     1       6.237   4.692  15.311  0.00  0.00    +0.000 N 
ATOM     11  O   UNL     1       6.646   4.024  14.349  0.00  0.00    +0.000 OA
ATOM     12  O   UNL     1       6.762   5.743  15.718  0.00  0.00    +0.000 OA
ENDBRANCH   6  10
ENDBRANCH   3   5
ENDBRANCH   2   3
ENDBRANCH   1   2
BRANCH   1  13
ATOM     13  S   UNL     1       2.103   5.098  20.423  0.00  0.00    +0.000 S 
BRANCH  13  14
ATOM     14  C   UNL     1       2.647   6.589  19.514  0.00  0.00    +0.000 C 
BRANCH  14  15
ATOM     15  C   UNL     1       1.885   7.818  19.897  0.00  0.00    +0.000 A 
ATOM     16  C   UNL     1       1.323   8.107  21.127  0.00  0.00    +0.000 A 
ATOM     17  S   UNL     1       0.478   9.594  21.060  0.00  0.00    +0.000 S 
ATOM     18  C   UNL     1       0.877   9.739  19.392  0.00  0.00    +0.000 A 
ATOM     19  N   UNL     1       1.628   8.766  18.912  0.00  0.00    +0.000 NA
BRANCH  18  20
ATOM     20  C   UNL     1       0.314  10.870  18.559  0.00  0.00    +0.000 C 
BRANCH  20  21
ATOM     21  N   UNL     1       0.684  12.228  19.016  0.00  0.00    +0.000 NA
ATOM     22  C   UNL     1       2.040  12.587  18.592  0.00  0.00    +0.000 C 
ATOM     23  C   UNL     1      -0.267  13.203  18.472  0.00  0.00    +0.000 C 
ENDBRANCH  20  21
ENDBRANCH  18  20
ENDBRANCH  14  15
ENDBRANCH  13  14
ENDBRANCH   1  13
TORSDOF 10
ENDMDL
