MODEL 1
REMARK VINA RESULT:      -8.3      0.000      0.000
REMARK  Name = 
REMARK  7 active torsions:
REMARK  status: ('A' for Active; 'I' for Inactive)
REMARK    1  A    between atoms: C_1  and  O_2
REMARK    2  A    between atoms: O_2  and  C_3
REMARK    3  A    between atoms: C_14  and  N_15
REMARK    4  A    between atoms: N_15  and  C_16
REMARK    5  A    between atoms: N_15  and  C_23
REMARK    6  A    between atoms: C_16  and  C_17
REMARK    7  A    between atoms: C_23  and  C_24
REMARK                            x       y       z     vdW  Elec       q    Type
REMARK                         _______ _______ _______ _____ _____    ______ ____
ROOT
ATOM      1  C   UNL     1      -1.174  10.067  18.459  0.00  0.00    +0.000 C 
ATOM      2  C   UNL     1      -1.212  11.559  18.157  0.00  0.00    +0.000 C 
ATOM      3  C   UNL     1      -0.118  12.355  18.836  0.00  0.00    +0.000 A 
ATOM      4  C   UNL     1       0.247  13.569  18.227  0.00  0.00    +0.000 A 
ATOM      5  C   UNL     1       1.360  14.265  18.673  0.00  0.00    +0.000 A 
ATOM      6  C   UNL     1       2.067  13.791  19.777  0.00  0.00    +0.000 A 
ATOM      7  C   UNL     1       1.677  12.611  20.443  0.00  0.00    +0.000 A 
ATOM      8  C   UNL     1       0.603  11.834  19.960  0.00  0.00    +0.000 A 
ATOM      9  C   UNL     1       0.582  10.297  20.121  0.00  0.00    +0.000 C 
ATOM     10  C   UNL     1       1.762  10.018  19.069  0.00  0.00    +0.000 C 
ATOM     11  C   UNL     1       1.997   8.640  19.392  0.00  0.00    +0.000 C 
ATOM     12  C   UNL     1       2.276   7.253  19.684  0.00  0.00    +0.000 C 
ATOM     13  C   UNL     1       1.146   7.492  20.984  0.00  0.00    +0.000 C 
ATOM     14  C   UNL     1       0.801   9.231  21.419  0.00  0.00    +0.000 C 
ATOM     15  O   UNL     1      -0.750   9.847  19.784  0.00  0.00    +0.000 OA
ENDROOT
BRANCH   1  17
ATOM     16  C   UNL     1      -2.965   9.754  16.939  0.00  0.00    +0.000 C 
ATOM     17  O   UNL     1      -2.492   9.537  18.264  0.00  0.00    +0.000 OA
ENDBRANCH   1  17
BRANCH  12  18
ATOM     18  N   UNL     1       2.314   6.834  18.253  0.00  0.00    +0.000 NA
BRANCH  18  19
ATOM     19  C   UNL     1       2.252   5.406  17.930  0.00  0.00    +0.000 C 
BRANCH  19  20
ATOM     20  C   UNL     1       2.208   4.433  19.061  0.00  0.00    +0.000 A 
ATOM     21  C   UNL     1       1.032   4.119  19.740  0.00  0.00    +0.000 A 
ATOM     22  C   UNL     1       1.062   3.199  20.783  0.00  0.00    +0.000 A 
ATOM     23  C   UNL     1       2.265   2.575  21.132  0.00  0.00    +0.000 A 
ATOM     24  C   UNL     1       3.428   2.846  20.422  0.00  0.00    +0.000 A 
ATOM     25  C   UNL     1       3.398   3.757  19.378  0.00  0.00    +0.000 A 
ENDBRANCH  19  20
ENDBRANCH  18  19
BRANCH  18  26
ATOM     26  C   UNL     1       3.560   7.336  17.523  0.00  0.00    +0.000 C 
BRANCH  26  27
ATOM     27  C   UNL     1       4.733   6.370  17.350  0.00  0.00    +0.000 A 
ATOM     28  C   UNL     1       5.606   6.164  18.433  0.00  0.00    +0.000 A 
ATOM     29  C   UNL     1       6.726   5.333  18.311  0.00  0.00    +0.000 A 
ATOM     30  C   UNL     1       6.984   4.683  17.111  0.00  0.00    +0.000 A 
ATOM     31  C   UNL     1       6.109   4.835  16.042  0.00  0.00    +0.000 A 
ATOM     32  C   UNL     1       4.984   5.660  16.167  0.00  0.00    +0.000 A 
ENDBRANCH  26  27
ENDBRANCH  18  26
ENDBRANCH  12  18
TORSDOF 6
ENDMDL
MODEL 2
REMARK VINA RESULT:      -8.2      0.142      1.209
REMARK  Name = 
REMARK  7 active torsions:
REMARK  status: ('A' for Active; 'I' for Inactive)
REMARK    1  A    between atoms: C_1  and  O_2
REMARK    2  A    between atoms: O_2  and  C_3
REMARK    3  A    between atoms: C_14  and  N_15
REMARK    4  A    between atoms: N_15  and  C_16
REMARK    5  A    between atoms: N_15  and  C_23
REMARK    6  A    between atoms: C_16  and  C_17
REMARK    7  A    between atoms: C_23  and  C_24
REMARK                            x       y       z     vdW  Elec       q    Type
REMARK                         _______ _______ _______ _____ _____    ______ ____
ROOT
ATOM      1  C   UNL     1      -1.183  10.020  18.456  0.00  0.00    +0.000 C 
ATOM      2  C   UNL     1      -1.230  11.512  18.161  0.00  0.00    +0.000 C 
ATOM      3  C   UNL     1      -0.140  12.312  18.839  0.00  0.00    +0.000 A 
ATOM      4  C   UNL     1       0.215  13.532  18.234  0.00  0.00    +0.000 A 
ATOM      5  C   UNL     1       1.326  14.233  18.679  0.00  0.00    +0.000 A 
ATOM      6  C   UNL     1       2.040  13.758  19.778  0.00  0.00    +0.000 A 
ATOM      7  C   UNL     1       1.660  12.573  20.440  0.00  0.00    +0.000 A 
ATOM      8  C   UNL     1       0.589  11.791  19.958  0.00  0.00    +0.000 A 
ATOM      9  C   UNL     1       0.578  10.253  20.113  0.00  0.00    +0.000 C 
ATOM     10  C   UNL     1       1.756   9.987  19.055  0.00  0.00    +0.000 C 
ATOM     11  C   UNL     1       2.001   8.608  19.372  0.00  0.00    +0.000 C 
ATOM     12  C   UNL     1       2.290   7.222  19.657  0.00  0.00    +0.000 C 
ATOM     13  C   UNL     1       1.163   7.449  20.961  0.00  0.00    +0.000 C 
ATOM     14  C   UNL     1       0.809   9.183  21.405  0.00  0.00    +0.000 C 
ATOM     15  O   UNL     1      -0.752   9.796  19.779  0.00  0.00    +0.000 OA
ENDROOT
BRANCH   1  17
ATOM     16  C   UNL     1      -3.060   9.877  17.018  0.00  0.00    +0.000 C 
ATOM     17  O   UNL     1      -2.498   9.482  18.264  0.00  0.00    +0.000 OA
ENDBRANCH   1  17
BRANCH  12  18
ATOM     18  N   UNL     1       2.325   6.809  18.224  0.00  0.00    +0.000 NA
BRANCH  18  19
ATOM     19  C   UNL     1       2.337   5.381  17.897  0.00  0.00    +0.000 C 
BRANCH  19  20
ATOM     20  C   UNL     1       2.299   4.404  19.024  0.00  0.00    +0.000 A 
ATOM     21  C   UNL     1       3.444   3.781  19.521  0.00  0.00    +0.000 A 
ATOM     22  C   UNL     1       3.338   2.883  20.577  0.00  0.00    +0.000 A 
ATOM     23  C   UNL     1       2.089   2.623  21.153  0.00  0.00    +0.000 A 
ATOM     24  C   UNL     1       0.954   3.282  20.695  0.00  0.00    +0.000 A 
ATOM     25  C   UNL     1       1.060   4.183  19.648  0.00  0.00    +0.000 A 
ENDBRANCH  19  20
ENDBRANCH  18  19
BRANCH  18  26
ATOM     26  C   UNL     1       3.528   7.382  17.473  0.00  0.00    +0.000 C 
BRANCH  26  27
ATOM     27  C   UNL     1       4.761   6.493  17.302  0.00  0.00    +0.000 A 
ATOM     28  C   UNL     1       5.078   6.014  16.018  0.00  0.00    +0.000 A 
ATOM     29  C   UNL     1       6.163   5.154  15.815  0.00  0.00    +0.000 A 
ATOM     30  C   UNL     1       6.958   4.769  16.887  0.00  0.00    +0.000 A 
ATOM     31  C   UNL     1       6.691   5.268  18.157  0.00  0.00    +0.000 A 
ATOM     32  C   UNL     1       5.611   6.136  18.359  0.00  0.00    +0.000 A 
ENDBRANCH  26  27
ENDBRANCH  18  26
ENDBRANCH  12  18
TORSDOF 6
ENDMDL
MODEL 3
REMARK VINA RESULT:      -7.6      4.031      9.022
REMARK  Name = 
REMARK  7 active torsions:
REMARK  status: ('A' for Active; 'I' for Inactive)
REMARK    1  A    between atoms: C_1  and  O_2
REMARK    2  A    between atoms: O_2  and  C_3
REMARK    3  A    between atoms: C_14  and  N_15
REMARK    4  A    between atoms: N_15  and  C_16
REMARK    5  A    between atoms: N_15  and  C_23
REMARK    6  A    between atoms: C_16  and  C_17
REMARK    7  A    between atoms: C_23  and  C_24
REMARK                            x       y       z     vdW  Elec       q    Type
REMARK                         _______ _______ _______ _____ _____    ______ ____
ROOT
ATOM      1  C   UNL     1       0.267  10.281  18.885  0.00  0.00    +0.000 C 
ATOM      2  C   UNL     1      -0.496   9.711  17.697  0.00  0.00    +0.000 C 
ATOM      3  C   UNL     1      -1.875  10.303  17.506  0.00  0.00    +0.000 A 
ATOM      4  C   UNL     1      -2.408  10.249  16.205  0.00  0.00    +0.000 A 
ATOM      5  C   UNL     1      -3.577  10.932  15.902  0.00  0.00    +0.000 A 
ATOM      6  C   UNL     1      -4.258  11.606  16.914  0.00  0.00    +0.000 A 
ATOM      7  C   UNL     1      -3.775  11.615  18.239  0.00  0.00    +0.000 A 
ATOM      8  C   UNL     1      -2.545  11.006  18.561  0.00  0.00    +0.000 A 
ATOM      9  C   UNL     1      -1.637  11.560  19.683  0.00  0.00    +0.000 C 
ATOM     10  C   UNL     1      -1.212  12.890  18.890  0.00  0.00    +0.000 C 
ATOM     11  C   UNL     1      -0.612  13.594  19.988  0.00  0.00    +0.000 C 
ATOM     12  C   UNL     1      -0.004  14.345  21.061  0.00  0.00    +0.000 C 
ATOM     13  C   UNL     1      -0.583  13.041  22.054  0.00  0.00    +0.000 C 
ATOM     14  C   UNL     1      -1.874  11.992  21.303  0.00  0.00    +0.000 C 
ATOM     15  O   UNL     1      -0.618  10.568  19.942  0.00  0.00    +0.000 OA
ENDROOT
BRANCH   1  17
ATOM     16  C   UNL     1       2.013   8.830  18.207  0.00  0.00    +0.000 C 
ATOM     17  O   UNL     1       1.240   9.313  19.300  0.00  0.00    +0.000 OA
ENDBRANCH   1  17
BRANCH  12  18
ATOM     18  N   UNL     1       1.194  14.742  20.265  0.00  0.00    +0.000 NA
BRANCH  18  19
ATOM     19  C   UNL     1       2.510  14.235  20.663  0.00  0.00    +0.000 C 
BRANCH  19  20
ATOM     20  C   UNL     1       3.701  14.688  19.885  0.00  0.00    +0.000 A 
ATOM     21  C   UNL     1       4.773  15.360  20.470  0.00  0.00    +0.000 A 
ATOM     22  C   UNL     1       5.853  15.751  19.687  0.00  0.00    +0.000 A 
ATOM     23  C   UNL     1       5.873  15.449  18.320  0.00  0.00    +0.000 A 
ATOM     24  C   UNL     1       4.830  14.733  17.744  0.00  0.00    +0.000 A 
ATOM     25  C   UNL     1       3.756  14.338  18.525  0.00  0.00    +0.000 A 
ENDBRANCH  19  20
ENDBRANCH  18  19
BRANCH  18  26
ATOM     26  C   UNL     1       1.377  16.258  20.187  0.00  0.00    +0.000 C 
BRANCH  26  27
ATOM     27  C   UNL     1       0.892  16.980  18.929  0.00  0.00    +0.000 A 
ATOM     28  C   UNL     1       1.835  17.338  17.948  0.00  0.00    +0.000 A 
ATOM     29  C   UNL     1       1.453  18.048  16.804  0.00  0.00    +0.000 A 
ATOM     30  C   UNL     1       0.123  18.398  16.612  0.00  0.00    +0.000 A 
ATOM     31  C   UNL     1      -0.834  18.014  17.546  0.00  0.00    +0.000 A 
ATOM     32  C   UNL     1      -0.453  17.296  18.687  0.00  0.00    +0.000 A 
ENDBRANCH  26  27
ENDBRANCH  18  26
ENDBRANCH  12  18
TORSDOF 6
ENDMDL
MODEL 4
REMARK VINA RESULT:      -7.5      1.013      1.337
REMARK  Name = 
REMARK  7 active torsions:
REMARK  status: ('A' for Active; 'I' for Inactive)
REMARK    1  A    between atoms: C_1  and  O_2
REMARK    2  A    between atoms: O_2  and  C_3
REMARK    3  A    between atoms: C_14  and  N_15
REMARK    4  A    between atoms: N_15  and  C_16
REMARK    5  A    between atoms: N_15  and  C_23
REMARK    6  A    between atoms: C_16  and  C_17
REMARK    7  A    between atoms: C_23  and  C_24
REMARK                            x       y       z     vdW  Elec       q    Type
REMARK                         _______ _______ _______ _____ _____    ______ ____
ROOT
ATOM      1  C   UNL     1      -1.141  10.100  18.152  0.00  0.00    +0.000 C 
ATOM      2  C   UNL     1      -1.136  11.585  17.819  0.00  0.00    +0.000 C 
ATOM      3  C   UNL     1      -0.356  12.435  18.798  0.00  0.00    +0.000 A 
ATOM      4  C   UNL     1       0.140  13.659  18.312  0.00  0.00    +0.000 A 
ATOM      5  C   UNL     1       1.019  14.408  19.079  0.00  0.00    +0.000 A 
ATOM      6  C   UNL     1       1.345  13.977  20.364  0.00  0.00    +0.000 A 
ATOM      7  C   UNL     1       0.806  12.786  20.894  0.00  0.00    +0.000 A 
ATOM      8  C   UNL     1      -0.021  11.958  20.107  0.00  0.00    +0.000 A 
ATOM      9  C   UNL     1      -0.034  10.423  20.289  0.00  0.00    +0.000 C 
ATOM     10  C   UNL     1       1.435  10.187  19.684  0.00  0.00    +0.000 C 
ATOM     11  C   UNL     1       1.606   8.823  20.099  0.00  0.00    +0.000 C 
ATOM     12  C   UNL     1       1.828   7.454  20.499  0.00  0.00    +0.000 C 
ATOM     13  C   UNL     1       0.327   7.655  21.354  0.00  0.00    +0.000 C 
ATOM     14  C   UNL     1      -0.208   9.380  21.612  0.00  0.00    +0.000 C 
ATOM     15  O   UNL     1      -1.164   9.911  19.547  0.00  0.00    +0.000 OA
ENDROOT
BRANCH   1  17
ATOM     16  C   UNL     1      -2.629  10.119  16.308  0.00  0.00    +0.000 C 
ATOM     17  O   UNL     1      -2.302   9.509  17.552  0.00  0.00    +0.000 OA
ENDBRANCH   1  17
BRANCH  12  18
ATOM     18  N   UNL     1       2.347   7.023  19.168  0.00  0.00    +0.000 NA
BRANCH  18  19
ATOM     19  C   UNL     1       1.561   6.074  18.374  0.00  0.00    +0.000 C 
BRANCH  19  20
ATOM     20  C   UNL     1       1.566   4.641  18.789  0.00  0.00    +0.000 A 
ATOM     21  C   UNL     1       1.187   4.224  20.065  0.00  0.00    +0.000 A 
ATOM     22  C   UNL     1       1.211   2.870  20.384  0.00  0.00    +0.000 A 
ATOM     23  C   UNL     1       1.591   1.930  19.419  0.00  0.00    +0.000 A 
ATOM     24  C   UNL     1       1.918   2.338  18.131  0.00  0.00    +0.000 A 
ATOM     25  C   UNL     1       1.888   3.685  17.811  0.00  0.00    +0.000 A 
ENDBRANCH  19  20
ENDBRANCH  18  19
BRANCH  18  26
ATOM     26  C   UNL     1       3.737   6.391  19.252  0.00  0.00    +0.000 C 
BRANCH  26  27
ATOM     27  C   UNL     1       4.455   6.053  17.944  0.00  0.00    +0.000 A 
ATOM     28  C   UNL     1       4.467   7.009  16.912  0.00  0.00    +0.000 A 
ATOM     29  C   UNL     1       5.063   6.730  15.677  0.00  0.00    +0.000 A 
ATOM     30  C   UNL     1       5.668   5.500  15.456  0.00  0.00    +0.000 A 
ATOM     31  C   UNL     1       5.709   4.558  16.478  0.00  0.00    +0.000 A 
ATOM     32  C   UNL     1       5.121   4.840  17.718  0.00  0.00    +0.000 A 
ENDBRANCH  26  27
ENDBRANCH  18  26
ENDBRANCH  12  18
TORSDOF 6
ENDMDL
MODEL 5
REMARK VINA RESULT:      -7.4      5.984      8.849
REMARK  Name = 
REMARK  7 active torsions:
REMARK  status: ('A' for Active; 'I' for Inactive)
REMARK    1  A    between atoms: C_1  and  O_2
REMARK    2  A    between atoms: O_2  and  C_3
REMARK    3  A    between atoms: C_14  and  N_15
REMARK    4  A    between atoms: N_15  and  C_16
REMARK    5  A    between atoms: N_15  and  C_23
REMARK    6  A    between atoms: C_16  and  C_17
REMARK    7  A    between atoms: C_23  and  C_24
REMARK                            x       y       z     vdW  Elec       q    Type
REMARK                         _______ _______ _______ _____ _____    ______ ____
ROOT
ATOM      1  C   UNL     1      -6.223  12.416  21.478  0.00  0.00    +0.000 C 
ATOM      2  C   UNL     1      -7.320  13.466  21.590  0.00  0.00    +0.000 C 
ATOM      3  C   UNL     1      -6.952  14.655  22.450  0.00  0.00    +0.000 A 
ATOM      4  C   UNL     1      -7.636  15.857  22.188  0.00  0.00    +0.000 A 
ATOM      5  C   UNL     1      -7.231  17.036  22.796  0.00  0.00    +0.000 A 
ATOM      6  C   UNL     1      -6.193  17.005  23.725  0.00  0.00    +0.000 A 
ATOM      7  C   UNL     1      -5.539  15.799  24.051  0.00  0.00    +0.000 A 
ATOM      8  C   UNL     1      -5.867  14.600  23.386  0.00  0.00    +0.000 A 
ATOM      9  C   UNL     1      -4.809  13.503  23.127  0.00  0.00    +0.000 C 
ATOM     10  C   UNL     1      -3.990  14.341  22.028  0.00  0.00    +0.000 C 
ATOM     11  C   UNL     1      -2.825  13.504  21.966  0.00  0.00    +0.000 C 
ATOM     12  C   UNL     1      -1.631  12.699  21.871  0.00  0.00    +0.000 C 
ATOM     13  C   UNL     1      -2.340  11.823  23.196  0.00  0.00    +0.000 C 
ATOM     14  C   UNL     1      -3.677  12.688  24.086  0.00  0.00    +0.000 C 
ATOM     15  O   UNL     1      -5.514  12.319  22.691  0.00  0.00    +0.000 OA
ENDROOT
BRANCH   1  17
ATOM     16  C   UNL     1      -7.151  11.057  19.774  0.00  0.00    +0.000 C 
ATOM     17  O   UNL     1      -6.836  11.159  21.158  0.00  0.00    +0.000 OA
ENDBRANCH   1  17
BRANCH  12  18
ATOM     18  N   UNL     1      -1.600  12.704  20.380  0.00  0.00    +0.000 NA
BRANCH  18  19
ATOM     19  C   UNL     1      -1.198  13.929  19.683  0.00  0.00    +0.000 C 
BRANCH  19  20
ATOM     20  C   UNL     1       0.199  14.014  19.165  0.00  0.00    +0.000 A 
ATOM     21  C   UNL     1       0.896  15.219  19.071  0.00  0.00    +0.000 A 
ATOM     22  C   UNL     1       2.198  15.226  18.582  0.00  0.00    +0.000 A 
ATOM     23  C   UNL     1       2.813  14.025  18.209  0.00  0.00    +0.000 A 
ATOM     24  C   UNL     1       2.140  12.818  18.352  0.00  0.00    +0.000 A 
ATOM     25  C   UNL     1       0.845  12.808  18.845  0.00  0.00    +0.000 A 
ENDBRANCH  19  20
ENDBRANCH  18  19
BRANCH  18  26
ATOM     26  C   UNL     1      -2.949  12.338  19.760  0.00  0.00    +0.000 C 
BRANCH  26  27
ATOM     27  C   UNL     1      -2.951  11.507  18.475  0.00  0.00    +0.000 A 
ATOM     28  C   UNL     1      -1.910  10.586  18.264  0.00  0.00    +0.000 A 
ATOM     29  C   UNL     1      -1.833   9.840  17.082  0.00  0.00    +0.000 A 
ATOM     30  C   UNL     1      -2.803   9.991  16.099  0.00  0.00    +0.000 A 
ATOM     31  C   UNL     1      -3.866  10.862  16.306  0.00  0.00    +0.000 A 
ATOM     32  C   UNL     1      -3.947  11.602  17.493  0.00  0.00    +0.000 A 
ENDBRANCH  26  27
ENDBRANCH  18  26
ENDBRANCH  12  18
TORSDOF 6
ENDMDL
MODEL 6
REMARK VINA RESULT:      -7.4      3.345      6.934
REMARK  Name = 
REMARK  7 active torsions:
REMARK  status: ('A' for Active; 'I' for Inactive)
REMARK    1  A    between atoms: C_1  and  O_2
REMARK    2  A    between atoms: O_2  and  C_3
REMARK    3  A    between atoms: C_14  and  N_15
REMARK    4  A    between atoms: N_15  and  C_16
REMARK    5  A    between atoms: N_15  and  C_23
REMARK    6  A    between atoms: C_16  and  C_17
REMARK    7  A    between atoms: C_23  and  C_24
REMARK                            x       y       z     vdW  Elec       q    Type
REMARK                         _______ _______ _______ _____ _____    ______ ____
ROOT
ATOM      1  C   UNL     1      -1.411  16.283  20.252  0.00  0.00    +0.000 C 
ATOM      2  C   UNL     1      -1.646  17.413  19.260  0.00  0.00    +0.000 C 
ATOM      3  C   UNL     1      -0.453  17.721  18.380  0.00  0.00    +0.000 A 
ATOM      4  C   UNL     1      -0.726  18.330  17.142  0.00  0.00    +0.000 A 
ATOM      5  C   UNL     1       0.282  18.475  16.199  0.00  0.00    +0.000 A 
ATOM      6  C   UNL     1       1.580  18.082  16.520  0.00  0.00    +0.000 A 
ATOM      7  C   UNL     1       1.886  17.530  17.782  0.00  0.00    +0.000 A 
ATOM      8  C   UNL     1       0.869  17.289  18.728  0.00  0.00    +0.000 A 
ATOM      9  C   UNL     1       0.953  16.108  19.721  0.00  0.00    +0.000 C 
ATOM     10  C   UNL     1       0.729  14.965  18.616  0.00  0.00    +0.000 C 
ATOM     11  C   UNL     1       1.095  13.834  19.421  0.00  0.00    +0.000 C 
ATOM     12  C   UNL     1       1.459  12.665  20.187  0.00  0.00    +0.000 C 
ATOM     13  C   UNL     1       1.914  13.829  21.397  0.00  0.00    +0.000 C 
ATOM     14  C   UNL     1       2.126  15.541  20.803  0.00  0.00    +0.000 C 
ATOM     15  O   UNL     1      -0.080  16.305  20.713  0.00  0.00    +0.000 OA
ENDROOT
BRANCH   1  17
ATOM     16  C   UNL     1      -3.554  15.780  21.128  0.00  0.00    +0.000 C 
ATOM     17  O   UNL     1      -2.320  16.453  21.349  0.00  0.00    +0.000 OA
ENDBRANCH   1  17
BRANCH  12  18
ATOM     18  N   UNL     1       0.281  11.862  19.747  0.00  0.00    +0.000 NA
BRANCH  18  19
ATOM     19  C   UNL     1      -1.066  12.383  19.996  0.00  0.00    +0.000 C 
BRANCH  19  20
ATOM     20  C   UNL     1      -2.140  12.045  19.016  0.00  0.00    +0.000 A 
ATOM     21  C   UNL     1      -1.869  11.553  17.739  0.00  0.00    +0.000 A 
ATOM     22  C   UNL     1      -2.918  11.256  16.877  0.00  0.00    +0.000 A 
ATOM     23  C   UNL     1      -4.242  11.427  17.300  0.00  0.00    +0.000 A 
ATOM     24  C   UNL     1      -4.516  11.867  18.589  0.00  0.00    +0.000 A 
ATOM     25  C   UNL     1      -3.471  12.157  19.451  0.00  0.00    +0.000 A 
ENDBRANCH  19  20
ENDBRANCH  18  19
BRANCH  18  26
ATOM     26  C   UNL     1       0.264  10.458  20.352  0.00  0.00    +0.000 C 
BRANCH  26  27
ATOM     27  C   UNL     1       1.057   9.358  19.644  0.00  0.00    +0.000 A 
ATOM     28  C   UNL     1       1.469   8.236  20.386  0.00  0.00    +0.000 A 
ATOM     29  C   UNL     1       2.243   7.227  19.801  0.00  0.00    +0.000 A 
ATOM     30  C   UNL     1       2.606   7.315  18.463  0.00  0.00    +0.000 A 
ATOM     31  C   UNL     1       2.171   8.391  17.699  0.00  0.00    +0.000 A 
ATOM     32  C   UNL     1       1.389   9.396  18.282  0.00  0.00    +0.000 A 
ENDBRANCH  26  27
ENDBRANCH  18  26
ENDBRANCH  12  18
TORSDOF 6
ENDMDL
MODEL 7
REMARK VINA RESULT:      -7.3      4.641      9.049
REMARK  Name = 
REMARK  7 active torsions:
REMARK  status: ('A' for Active; 'I' for Inactive)
REMARK    1  A    between atoms: C_1  and  O_2
REMARK    2  A    between atoms: O_2  and  C_3
REMARK    3  A    between atoms: C_14  and  N_15
REMARK    4  A    between atoms: N_15  and  C_16
REMARK    5  A    between atoms: N_15  and  C_23
REMARK    6  A    between atoms: C_16  and  C_17
REMARK    7  A    between atoms: C_23  and  C_24
REMARK                            x       y       z     vdW  Elec       q    Type
REMARK                         _______ _______ _______ _____ _____    ______ ____
ROOT
ATOM      1  C   UNL     1       0.196  10.580  19.162  0.00  0.00    +0.000 C 
ATOM      2  C   UNL     1      -0.446   9.906  17.958  0.00  0.00    +0.000 C 
ATOM      3  C   UNL     1      -1.848  10.389  17.654  0.00  0.00    +0.000 A 
ATOM      4  C   UNL     1      -2.290  10.241  16.327  0.00  0.00    +0.000 A 
ATOM      5  C   UNL     1      -3.481  10.824  15.920  0.00  0.00    +0.000 A 
ATOM      6  C   UNL     1      -4.271  11.490  16.855  0.00  0.00    +0.000 A 
ATOM      7  C   UNL     1      -3.877  11.591  18.205  0.00  0.00    +0.000 A 
ATOM      8  C   UNL     1      -2.631  11.086  18.631  0.00  0.00    +0.000 A 
ATOM      9  C   UNL     1      -1.839  11.752  19.780  0.00  0.00    +0.000 C 
ATOM     10  C   UNL     1      -1.457  13.074  18.952  0.00  0.00    +0.000 C 
ATOM     11  C   UNL     1      -0.979  13.866  20.051  0.00  0.00    +0.000 C 
ATOM     12  C   UNL     1      -0.495  14.705  21.121  0.00  0.00    +0.000 C 
ATOM     13  C   UNL     1      -1.047  13.406  22.138  0.00  0.00    +0.000 C 
ATOM     14  C   UNL     1      -2.210  12.236  21.360  0.00  0.00    +0.000 C 
ATOM     15  O   UNL     1      -0.773  10.849  20.148  0.00  0.00    +0.000 OA
ENDROOT
BRANCH   1  17
ATOM     16  C   UNL     1       0.727   8.928  20.775  0.00  0.00    +0.000 C 
ATOM     17  O   UNL     1       1.205   9.704  19.682  0.00  0.00    +0.000 OA
ENDBRANCH   1  17
BRANCH  12  18
ATOM     18  N   UNL     1       0.722  15.152  20.383  0.00  0.00    +0.000 NA
BRANCH  18  19
ATOM     19  C   UNL     1       2.041  14.756  20.884  0.00  0.00    +0.000 C 
BRANCH  19  20
ATOM     20  C   UNL     1       3.182  14.745  19.921  0.00  0.00    +0.000 A 
ATOM     21  C   UNL     1       3.110  14.125  18.674  0.00  0.00    +0.000 A 
ATOM     22  C   UNL     1       4.210  14.157  17.824  0.00  0.00    +0.000 A 
ATOM     23  C   UNL     1       5.376  14.829  18.211  0.00  0.00    +0.000 A 
ATOM     24  C   UNL     1       5.431  15.493  19.431  0.00  0.00    +0.000 A 
ATOM     25  C   UNL     1       4.333  15.468  20.276  0.00  0.00    +0.000 A 
ENDBRANCH  19  20
ENDBRANCH  18  19
BRANCH  18  26
ATOM     26  C   UNL     1       0.806  16.673  20.248  0.00  0.00    +0.000 C 
BRANCH  26  27
ATOM     27  C   UNL     1       0.722  17.278  18.846  0.00  0.00    +0.000 A 
ATOM     28  C   UNL     1      -0.514  17.778  18.398  0.00  0.00    +0.000 A 
ATOM     29  C   UNL     1      -0.658  18.293  17.104  0.00  0.00    +0.000 A 
ATOM     30  C   UNL     1       0.431  18.330  16.243  0.00  0.00    +0.000 A 
ATOM     31  C   UNL     1       1.673  17.884  16.681  0.00  0.00    +0.000 A 
ATOM     32  C   UNL     1       1.820  17.378  17.979  0.00  0.00    +0.000 A 
ENDBRANCH  26  27
ENDBRANCH  18  26
ENDBRANCH  12  18
TORSDOF 6
ENDMDL
MODEL 8
REMARK VINA RESULT:      -7.3      5.809      8.262
REMARK  Name = 
REMARK  7 active torsions:
REMARK  status: ('A' for Active; 'I' for Inactive)
REMARK    1  A    between atoms: C_1  and  O_2
REMARK    2  A    between atoms: O_2  and  C_3
REMARK    3  A    between atoms: C_14  and  N_15
REMARK    4  A    between atoms: N_15  and  C_16
REMARK    5  A    between atoms: N_15  and  C_23
REMARK    6  A    between atoms: C_16  and  C_17
REMARK    7  A    between atoms: C_23  and  C_24
REMARK                            x       y       z     vdW  Elec       q    Type
REMARK                         _______ _______ _______ _____ _____    ______ ____
ROOT
ATOM      1  C   UNL     1      -4.485  13.038  21.424  0.00  0.00    +0.000 C 
ATOM      2  C   UNL     1      -5.252  14.163  22.105  0.00  0.00    +0.000 C 
ATOM      3  C   UNL     1      -4.557  14.737  23.320  0.00  0.00    +0.000 A 
ATOM      4  C   UNL     1      -4.893  16.058  23.672  0.00  0.00    +0.000 A 
ATOM      5  C   UNL     1      -4.171  16.724  24.650  0.00  0.00    +0.000 A 
ATOM      6  C   UNL     1      -3.161  16.049  25.334  0.00  0.00    +0.000 A 
ATOM      7  C   UNL     1      -2.854  14.704  25.042  0.00  0.00    +0.000 A 
ATOM      8  C   UNL     1      -3.510  14.027  23.994  0.00  0.00    +0.000 A 
ATOM      9  C   UNL     1      -2.795  12.935  23.165  0.00  0.00    +0.000 C 
ATOM     10  C   UNL     1      -1.802  13.945  22.409  0.00  0.00    +0.000 C 
ATOM     11  C   UNL     1      -0.910  12.968  21.851  0.00  0.00    +0.000 C 
ATOM     12  C   UNL     1       0.018  12.026  21.272  0.00  0.00    +0.000 C 
ATOM     13  C   UNL     1      -0.876  10.859  22.201  0.00  0.00    +0.000 C 
ATOM     14  C   UNL     1      -1.909  11.542  23.541  0.00  0.00    +0.000 C 
ATOM     15  O   UNL     1      -3.805  12.260  22.380  0.00  0.00    +0.000 OA
ENDROOT
BRANCH   1  17
ATOM     16  C   UNL     1      -6.602  12.951  20.362  0.00  0.00    +0.000 C 
ATOM     17  O   UNL     1      -5.423  12.229  20.701  0.00  0.00    +0.000 OA
ENDBRANCH   1  17
BRANCH  12  18
ATOM     18  N   UNL     1       0.018  12.669  19.926  0.00  0.00    +0.000 NA
BRANCH  18  19
ATOM     19  C   UNL     1      -0.008  11.819  18.733  0.00  0.00    +0.000 C 
BRANCH  19  20
ATOM     20  C   UNL     1      -1.332  11.326  18.252  0.00  0.00    +0.000 A 
ATOM     21  C   UNL     1      -2.522  12.015  18.483  0.00  0.00    +0.000 A 
ATOM     22  C   UNL     1      -3.721  11.500  18.002  0.00  0.00    +0.000 A 
ATOM     23  C   UNL     1      -3.728  10.306  17.270  0.00  0.00    +0.000 A 
ATOM     24  C   UNL     1      -2.537   9.646  16.993  0.00  0.00    +0.000 A 
ATOM     25  C   UNL     1      -1.341  10.162  17.465  0.00  0.00    +0.000 A 
ENDBRANCH  19  20
ENDBRANCH  18  19
BRANCH  18  26
ATOM     26  C   UNL     1       1.220  13.590  19.711  0.00  0.00    +0.000 C 
BRANCH  26  27
ATOM     27  C   UNL     1       0.966  14.987  19.142  0.00  0.00    +0.000 A 
ATOM     28  C   UNL     1      -0.356  15.463  19.081  0.00  0.00    +0.000 A 
ATOM     29  C   UNL     1      -0.649  16.711  18.519  0.00  0.00    +0.000 A 
ATOM     30  C   UNL     1       0.373  17.510  18.022  0.00  0.00    +0.000 A 
ATOM     31  C   UNL     1       1.692  17.079  18.114  0.00  0.00    +0.000 A 
ATOM     32  C   UNL     1       1.986  15.834  18.685  0.00  0.00    +0.000 A 
ENDBRANCH  26  27
ENDBRANCH  18  26
ENDBRANCH  12  18
TORSDOF 6
ENDMDL
MODEL 9
REMARK VINA RESULT:      -7.3      3.660      6.406
REMARK  Name = 
REMARK  7 active torsions:
REMARK  status: ('A' for Active; 'I' for Inactive)
REMARK    1  A    between atoms: C_1  and  O_2
REMARK    2  A    between atoms: O_2  and  C_3
REMARK    3  A    between atoms: C_14  and  N_15
REMARK    4  A    between atoms: N_15  and  C_16
REMARK    5  A    between atoms: N_15  and  C_23
REMARK    6  A    between atoms: C_16  and  C_17
REMARK    7  A    between atoms: C_23  and  C_24
REMARK                            x       y       z     vdW  Elec       q    Type
REMARK                         _______ _______ _______ _____ _____    ______ ____
ROOT
ATOM      1  C   UNL     1      -4.386  12.929  21.013  0.00  0.00    +0.000 C 
ATOM      2  C   UNL     1      -5.044  14.299  20.919  0.00  0.00    +0.000 C 
ATOM      3  C   UNL     1      -4.140  15.447  21.311  0.00  0.00    +0.000 A 
ATOM      4  C   UNL     1      -4.452  16.707  20.768  0.00  0.00    +0.000 A 
ATOM      5  C   UNL     1      -3.574  17.769  20.922  0.00  0.00    +0.000 A 
ATOM      6  C   UNL     1      -2.419  17.597  21.683  0.00  0.00    +0.000 A 
ATOM      7  C   UNL     1      -2.121  16.360  22.291  0.00  0.00    +0.000 A 
ATOM      8  C   UNL     1      -2.949  15.238  22.081  0.00  0.00    +0.000 A 
ATOM      9  C   UNL     1      -2.373  13.803  22.055  0.00  0.00    +0.000 C 
ATOM     10  C   UNL     1      -1.598  13.977  20.660  0.00  0.00    +0.000 C 
ATOM     11  C   UNL     1      -0.799  12.786  20.725  0.00  0.00    +0.000 C 
ATOM     12  C   UNL     1       0.030  11.604  20.747  0.00  0.00    +0.000 C 
ATOM     13  C   UNL     1      -0.606  11.413  22.354  0.00  0.00    +0.000 C 
ATOM     14  C   UNL     1      -1.371  12.902  23.080  0.00  0.00    +0.000 C 
ATOM     15  O   UNL     1      -3.493  12.889  22.101  0.00  0.00    +0.000 OA
ENDROOT
BRANCH   1  17
ATOM     16  C   UNL     1      -6.492  12.141  20.268  0.00  0.00    +0.000 C 
ATOM     17  O   UNL     1      -5.417  11.946  21.179  0.00  0.00    +0.000 OA
ENDBRANCH   1  17
BRANCH  12  18
ATOM     18  N   UNL     1      -0.271  11.221  19.337  0.00  0.00    +0.000 NA
BRANCH  18  19
ATOM     19  C   UNL     1      -1.301  10.211  19.080  0.00  0.00    +0.000 C 
BRANCH  19  20
ATOM     20  C   UNL     1      -2.278  10.469  17.982  0.00  0.00    +0.000 A 
ATOM     21  C   UNL     1      -3.352  11.348  18.121  0.00  0.00    +0.000 A 
ATOM     22  C   UNL     1      -4.223  11.546  17.055  0.00  0.00    +0.000 A 
ATOM     23  C   UNL     1      -4.009  10.881  15.842  0.00  0.00    +0.000 A 
ATOM     24  C   UNL     1      -2.909  10.046  15.684  0.00  0.00    +0.000 A 
ATOM     25  C   UNL     1      -2.037   9.854  16.743  0.00  0.00    +0.000 A 
ENDBRANCH  19  20
ENDBRANCH  18  19
BRANCH  18  26
ATOM     26  C   UNL     1       0.960  10.708  18.588  0.00  0.00    +0.000 C 
BRANCH  26  27
ATOM     27  C   UNL     1       1.476   9.307  18.921  0.00  0.00    +0.000 A 
ATOM     28  C   UNL     1       2.080   8.548  17.903  0.00  0.00    +0.000 A 
ATOM     29  C   UNL     1       2.519   7.240  18.140  0.00  0.00    +0.000 A 
ATOM     30  C   UNL     1       2.376   6.674  19.401  0.00  0.00    +0.000 A 
ATOM     31  C   UNL     1       1.823   7.423  20.434  0.00  0.00    +0.000 A 
ATOM     32  C   UNL     1       1.392   8.735  20.199  0.00  0.00    +0.000 A 
ENDBRANCH  26  27
ENDBRANCH  18  26
ENDBRANCH  12  18
TORSDOF 6
ENDMDL
