MODEL 1
REMARK VINA RESULT:      -7.7      0.000      0.000
REMARK  Name = 
REMARK  2 active torsions:
REMARK  status: ('A' for Active; 'I' for Inactive)
REMARK    1  A    between atoms: C_1  and  C_2
REMARK    2  A    between atoms: N_5  and  C_6
REMARK                            x       y       z     vdW  Elec       q    Type
REMARK                         _______ _______ _______ _____ _____    ______ ____
ROOT
ATOM      1  C   UNL     1       4.333   4.506  18.723  0.00  0.00    +0.000 C 
ATOM      2  C   UNL     1       4.504   3.170  19.487  0.00  0.00    +0.000 C 
ATOM      3  C   UNL     1       3.219   2.331  19.433  0.00  0.00    +0.000 C 
ATOM      4  C   UNL     1       2.072   3.113  20.090  0.00  0.00    +0.000 C 
ATOM      5  C   UNL     1       1.851   4.441  19.348  0.00  0.00    +0.000 C 
ATOM      6  C   UNL     1       1.490   4.141  17.883  0.00  0.00    +0.000 C 
ATOM      7  C   UNL     1       2.632   3.365  17.212  0.00  0.00    +0.000 C 
ATOM      8  C   UNL     1       2.861   2.045  17.965  0.00  0.00    +0.000 C 
ATOM      9  C   UNL     1       3.917   4.207  17.261  0.00  0.00    +0.000 C 
ATOM     10  C   UNL     1       3.147   5.280  19.395  0.00  0.00    +0.000 C 
ENDROOT
BRANCH   1  15
ATOM     11  C   UNL     1       7.809   7.672  17.541  0.00  0.00    +0.000 C 
ATOM     12  C   UNL     1       7.084   6.588  18.230  0.00  0.00    +0.000 A 
ATOM     13  N   UNL     1       7.569   5.850  19.272  0.00  0.00    +0.000 NA
ATOM     14  N   UNL     1       6.610   4.983  19.593  0.00  0.00    +0.000 NA
ATOM     15  N   UNL     1       5.601   5.242  18.732  0.00  0.00    +0.000 N 
ATOM     16  N   UNL     1       5.843   6.237  17.857  0.00  0.00    +0.000 NA
ENDBRANCH   1  15
TORSDOF 1
ENDMDL
MODEL 2
REMARK VINA RESULT:      -7.7      0.148      1.863
REMARK  Name = 
REMARK  2 active torsions:
REMARK  status: ('A' for Active; 'I' for Inactive)
REMARK    1  A    between atoms: C_1  and  C_2
REMARK    2  A    between atoms: N_5  and  C_6
REMARK                            x       y       z     vdW  Elec       q    Type
REMARK                         _______ _______ _______ _____ _____    ______ ____
ROOT
ATOM      1  C   UNL     1       4.409   4.448  18.648  0.00  0.00    +0.000 C 
ATOM      2  C   UNL     1       4.010   4.081  17.196  0.00  0.00    +0.000 C 
ATOM      3  C   UNL     1       2.656   3.358  17.159  0.00  0.00    +0.000 C 
ATOM      4  C   UNL     1       2.750   2.058  17.971  0.00  0.00    +0.000 C 
ATOM      5  C   UNL     1       3.123   2.376  19.428  0.00  0.00    +0.000 C 
ATOM      6  C   UNL     1       2.037   3.279  20.036  0.00  0.00    +0.000 C 
ATOM      7  C   UNL     1       1.937   4.586  19.238  0.00  0.00    +0.000 C 
ATOM      8  C   UNL     1       1.579   4.265  17.778  0.00  0.00    +0.000 C 
ATOM      9  C   UNL     1       3.290   5.313  19.280  0.00  0.00    +0.000 C 
ATOM     10  C   UNL     1       4.481   3.112  19.464  0.00  0.00    +0.000 C 
ENDROOT
BRANCH   1  15
ATOM     11  C   UNL     1       7.762   7.758  17.506  0.00  0.00    +0.000 C 
ATOM     12  C   UNL     1       7.096   6.611  18.150  0.00  0.00    +0.000 A 
ATOM     13  N   UNL     1       7.657   5.801  19.097  0.00  0.00    +0.000 NA
ATOM     14  N   UNL     1       6.732   4.894  19.408  0.00  0.00    +0.000 NA
ATOM     15  N   UNL     1       5.666   5.203  18.635  0.00  0.00    +0.000 N 
ATOM     16  N   UNL     1       5.839   6.268  17.829  0.00  0.00    +0.000 NA
ENDBRANCH   1  15
TORSDOF 1
ENDMDL
MODEL 3
REMARK VINA RESULT:      -7.7      0.176      1.926
REMARK  Name = 
REMARK  2 active torsions:
REMARK  status: ('A' for Active; 'I' for Inactive)
REMARK    1  A    between atoms: C_1  and  C_2
REMARK    2  A    between atoms: N_5  and  C_6
REMARK                            x       y       z     vdW  Elec       q    Type
REMARK                         _______ _______ _______ _____ _____    ______ ____
ROOT
ATOM      1  C   UNL     1       4.372   4.448  18.593  0.00  0.00    +0.000 C 
ATOM      2  C   UNL     1       3.261   5.355  19.180  0.00  0.00    +0.000 C 
ATOM      3  C   UNL     1       1.916   4.616  19.241  0.00  0.00    +0.000 C 
ATOM      4  C   UNL     1       1.497   4.204  17.822  0.00  0.00    +0.000 C 
ATOM      5  C   UNL     1       2.563   3.283  17.207  0.00  0.00    +0.000 C 
ATOM      6  C   UNL     1       2.702   2.026  18.083  0.00  0.00    +0.000 C 
ATOM      7  C   UNL     1       3.128   2.423  19.503  0.00  0.00    +0.000 C 
ATOM      8  C   UNL     1       2.069   3.356  20.109  0.00  0.00    +0.000 C 
ATOM      9  C   UNL     1       4.477   3.157  19.443  0.00  0.00    +0.000 C 
ATOM     10  C   UNL     1       3.918   4.024  17.155  0.00  0.00    +0.000 C 
ENDROOT
BRANCH   1  15
ATOM     11  C   UNL     1       7.849   7.681  17.611  0.00  0.00    +0.000 C 
ATOM     12  C   UNL     1       7.136   6.535  18.206  0.00  0.00    +0.000 A 
ATOM     13  N   UNL     1       7.656   5.676  19.133  0.00  0.00    +0.000 NA
ATOM     14  N   UNL     1       6.697   4.791  19.400  0.00  0.00    +0.000 NA
ATOM     15  N   UNL     1       5.653   5.161  18.624  0.00  0.00    +0.000 N 
ATOM     16  N   UNL     1       5.873   6.246  17.857  0.00  0.00    +0.000 NA
ENDBRANCH   1  15
TORSDOF 1
ENDMDL
MODEL 4
REMARK VINA RESULT:      -7.5      2.202      4.784
REMARK  Name = 
REMARK  2 active torsions:
REMARK  status: ('A' for Active; 'I' for Inactive)
REMARK    1  A    between atoms: C_1  and  C_2
REMARK    2  A    between atoms: N_5  and  C_6
REMARK                            x       y       z     vdW  Elec       q    Type
REMARK                         _______ _______ _______ _____ _____    ______ ____
ROOT
ATOM      1  C   UNL     1       4.977   4.595  18.101  0.00  0.00    +0.000 C 
ATOM      2  C   UNL     1       4.851   3.898  16.723  0.00  0.00    +0.000 C 
ATOM      3  C   UNL     1       5.700   4.612  15.661  0.00  0.00    +0.000 C 
ATOM      4  C   UNL     1       5.214   6.061  15.510  0.00  0.00    +0.000 C 
ATOM      5  C   UNL     1       5.343   6.799  16.852  0.00  0.00    +0.000 C 
ATOM      6  C   UNL     1       6.819   6.798  17.283  0.00  0.00    +0.000 C 
ATOM      7  C   UNL     1       7.316   5.355  17.444  0.00  0.00    +0.000 C 
ATOM      8  C   UNL     1       7.171   4.615  16.105  0.00  0.00    +0.000 C 
ATOM      9  C   UNL     1       6.470   4.642  18.512  0.00  0.00    +0.000 C 
ATOM     10  C   UNL     1       4.496   6.075  17.923  0.00  0.00    +0.000 C 
ENDROOT
BRANCH   1  15
ATOM     11  C   UNL     1       1.373   3.189  21.023  0.00  0.00    +0.000 C 
ATOM     12  C   UNL     1       2.684   3.241  20.349  0.00  0.00    +0.000 A 
ATOM     13  N   UNL     1       3.730   2.394  20.588  0.00  0.00    +0.000 NA
ATOM     14  N   UNL     1       4.717   2.785  19.782  0.00  0.00    +0.000 NA
ATOM     15  N   UNL     1       4.217   3.841  19.103  0.00  0.00    +0.000 N 
ATOM     16  N   UNL     1       2.949   4.170  19.418  0.00  0.00    +0.000 NA
ENDBRANCH   1  15
TORSDOF 1
ENDMDL
MODEL 5
REMARK VINA RESULT:      -7.5      2.275      4.864
REMARK  Name = 
REMARK  2 active torsions:
REMARK  status: ('A' for Active; 'I' for Inactive)
REMARK    1  A    between atoms: C_1  and  C_2
REMARK    2  A    between atoms: N_5  and  C_6
REMARK                            x       y       z     vdW  Elec       q    Type
REMARK                         _______ _______ _______ _____ _____    ______ ____
ROOT
ATOM      1  C   UNL     1       4.645   5.142  18.403  0.00  0.00    +0.000 C 
ATOM      2  C   UNL     1       6.009   5.318  19.118  0.00  0.00    +0.000 C 
ATOM      3  C   UNL     1       7.122   5.652  18.114  0.00  0.00    +0.000 C 
ATOM      4  C   UNL     1       7.258   4.504  17.104  0.00  0.00    +0.000 C 
ATOM      5  C   UNL     1       5.931   4.308  16.353  0.00  0.00    +0.000 C 
ATOM      6  C   UNL     1       5.583   5.606  15.605  0.00  0.00    +0.000 C 
ATOM      7  C   UNL     1       5.438   6.762  16.605  0.00  0.00    +0.000 C 
ATOM      8  C   UNL     1       6.760   6.945  17.366  0.00  0.00    +0.000 C 
ATOM      9  C   UNL     1       4.319   6.430  17.606  0.00  0.00    +0.000 C 
ATOM     10  C   UNL     1       4.810   3.981  17.363  0.00  0.00    +0.000 C 
ENDROOT
BRANCH   1  15
ATOM     11  C   UNL     1       1.773   2.882  21.587  0.00  0.00    +0.000 C 
ATOM     12  C   UNL     1       2.371   3.941  20.754  0.00  0.00    +0.000 A 
ATOM     13  N   UNL     1       1.961   5.245  20.719  0.00  0.00    +0.000 NA
ATOM     14  N   UNL     1       2.754   5.861  19.843  0.00  0.00    +0.000 NA
ATOM     15  N   UNL     1       3.597   4.902  19.398  0.00  0.00    +0.000 N 
ATOM     16  N   UNL     1       3.402   3.682  19.935  0.00  0.00    +0.000 NA
ENDBRANCH   1  15
TORSDOF 1
ENDMDL
MODEL 6
REMARK VINA RESULT:      -7.5      2.266      4.922
REMARK  Name = 
REMARK  2 active torsions:
REMARK  status: ('A' for Active; 'I' for Inactive)
REMARK    1  A    between atoms: C_1  and  C_2
REMARK    2  A    between atoms: N_5  and  C_6
REMARK                            x       y       z     vdW  Elec       q    Type
REMARK                         _______ _______ _______ _____ _____    ______ ____
ROOT
ATOM      1  C   UNL     1       4.691   5.207  18.475  0.00  0.00    +0.000 C 
ATOM      2  C   UNL     1       4.377   6.500  17.682  0.00  0.00    +0.000 C 
ATOM      3  C   UNL     1       5.450   6.773  16.618  0.00  0.00    +0.000 C 
ATOM      4  C   UNL     1       6.812   6.952  17.303  0.00  0.00    +0.000 C 
ATOM      5  C   UNL     1       7.176   5.680  18.087  0.00  0.00    +0.000 C 
ATOM      6  C   UNL     1       7.249   4.495  17.109  0.00  0.00    +0.000 C 
ATOM      7  C   UNL     1       5.891   4.300  16.422  0.00  0.00    +0.000 C 
ATOM      8  C   UNL     1       5.522   5.578  15.653  0.00  0.00    +0.000 C 
ATOM      9  C   UNL     1       4.817   4.022  17.486  0.00  0.00    +0.000 C 
ATOM     10  C   UNL     1       6.092   5.402  19.151  0.00  0.00    +0.000 C 
ENDROOT
BRANCH   1  15
ATOM     11  C   UNL     1       1.749   2.875  21.542  0.00  0.00    +0.000 C 
ATOM     12  C   UNL     1       2.352   3.949  20.732  0.00  0.00    +0.000 A 
ATOM     13  N   UNL     1       1.907   5.240  20.673  0.00  0.00    +0.000 NA
ATOM     14  N   UNL     1       2.719   5.876  19.830  0.00  0.00    +0.000 NA
ATOM     15  N   UNL     1       3.607   4.940  19.426  0.00  0.00    +0.000 N 
ATOM     16  N   UNL     1       3.425   3.717  19.959  0.00  0.00    +0.000 NA
ENDBRANCH   1  15
TORSDOF 1
ENDMDL
MODEL 7
REMARK VINA RESULT:      -7.5      2.215      4.830
REMARK  Name = 
REMARK  2 active torsions:
REMARK  status: ('A' for Active; 'I' for Inactive)
REMARK    1  A    between atoms: C_1  and  C_2
REMARK    2  A    between atoms: N_5  and  C_6
REMARK                            x       y       z     vdW  Elec       q    Type
REMARK                         _______ _______ _______ _____ _____    ______ ____
ROOT
ATOM      1  C   UNL     1       4.958   4.588  17.972  0.00  0.00    +0.000 C 
ATOM      2  C   UNL     1       6.473   4.488  18.278  0.00  0.00    +0.000 C 
ATOM      3  C   UNL     1       7.298   5.301  17.269  0.00  0.00    +0.000 C 
ATOM      4  C   UNL     1       7.060   4.749  15.856  0.00  0.00    +0.000 C 
ATOM      5  C   UNL     1       5.568   4.849  15.499  0.00  0.00    +0.000 C 
ATOM      6  C   UNL     1       5.140   6.326  15.550  0.00  0.00    +0.000 C 
ATOM      7  C   UNL     1       5.366   6.888  16.960  0.00  0.00    +0.000 C 
ATOM      8  C   UNL     1       6.855   6.772  17.320  0.00  0.00    +0.000 C 
ATOM      9  C   UNL     1       4.536   6.078  17.969  0.00  0.00    +0.000 C 
ATOM     10  C   UNL     1       4.738   4.039  16.520  0.00  0.00    +0.000 C 
ENDROOT
BRANCH   1  15
ATOM     11  C   UNL     1       1.347   3.238  20.911  0.00  0.00    +0.000 C 
ATOM     12  C   UNL     1       2.665   3.289  20.253  0.00  0.00    +0.000 A 
ATOM     13  N   UNL     1       3.727   2.480  20.545  0.00  0.00    +0.000 NA
ATOM     14  N   UNL     1       4.715   2.854  19.734  0.00  0.00    +0.000 NA
ATOM     15  N   UNL     1       4.201   3.865  18.999  0.00  0.00    +0.000 N 
ATOM     16  N   UNL     1       2.922   4.179  19.281  0.00  0.00    +0.000 NA
ENDBRANCH   1  15
TORSDOF 1
ENDMDL
MODEL 8
REMARK VINA RESULT:      -7.4      2.132      2.648
REMARK  Name = 
REMARK  2 active torsions:
REMARK  status: ('A' for Active; 'I' for Inactive)
REMARK    1  A    between atoms: C_1  and  C_2
REMARK    2  A    between atoms: N_5  and  C_6
REMARK                            x       y       z     vdW  Elec       q    Type
REMARK                         _______ _______ _______ _____ _____    ______ ____
ROOT
ATOM      1  C   UNL     1       3.478   4.245  17.946  0.00  0.00    +0.000 C 
ATOM      2  C   UNL     1       3.713   4.881  19.339  0.00  0.00    +0.000 C 
ATOM      3  C   UNL     1       2.858   4.193  20.414  0.00  0.00    +0.000 C 
ATOM      4  C   UNL     1       1.373   4.352  20.062  0.00  0.00    +0.000 C 
ATOM      5  C   UNL     1       1.087   3.714  18.692  0.00  0.00    +0.000 C 
ATOM      6  C   UNL     1       1.439   2.218  18.755  0.00  0.00    +0.000 C 
ATOM      7  C   UNL     1       2.924   2.045  19.100  0.00  0.00    +0.000 C 
ATOM      8  C   UNL     1       3.210   2.697  20.462  0.00  0.00    +0.000 C 
ATOM      9  C   UNL     1       3.780   2.728  18.021  0.00  0.00    +0.000 C 
ATOM     10  C   UNL     1       1.954   4.400  17.613  0.00  0.00    +0.000 C 
ENDROOT
BRANCH   1  15
ATOM     11  C   UNL     1       6.677   4.802  14.346  0.00  0.00    +0.000 C 
ATOM     12  C   UNL     1       5.729   5.114  15.432  0.00  0.00    +0.000 A 
ATOM     13  N   UNL     1       5.410   6.371  15.866  0.00  0.00    +0.000 NA
ATOM     14  N   UNL     1       4.531   6.212  16.853  0.00  0.00    +0.000 NA
ATOM     15  N   UNL     1       4.366   4.874  16.963  0.00  0.00    +0.000 N 
ATOM     16  N   UNL     1       5.091   4.140  16.098  0.00  0.00    +0.000 NA
ENDBRANCH   1  15
TORSDOF 1
ENDMDL
MODEL 9
REMARK VINA RESULT:      -7.4      2.274      4.845
REMARK  Name = 
REMARK  2 active torsions:
REMARK  status: ('A' for Active; 'I' for Inactive)
REMARK    1  A    between atoms: C_1  and  C_2
REMARK    2  A    between atoms: N_5  and  C_6
REMARK                            x       y       z     vdW  Elec       q    Type
REMARK                         _______ _______ _______ _____ _____    ______ ____
ROOT
ATOM      1  C   UNL     1       4.583   5.211  18.392  0.00  0.00    +0.000 C 
ATOM      2  C   UNL     1       4.671   4.052  17.368  0.00  0.00    +0.000 C 
ATOM      3  C   UNL     1       5.795   4.296  16.349  0.00  0.00    +0.000 C 
ATOM      4  C   UNL     1       5.511   5.593  15.579  0.00  0.00    +0.000 C 
ATOM      5  C   UNL     1       5.437   6.778  16.557  0.00  0.00    +0.000 C 
ATOM      6  C   UNL     1       6.783   6.904  17.291  0.00  0.00    +0.000 C 
ATOM      7  C   UNL     1       7.076   5.615  18.071  0.00  0.00    +0.000 C 
ATOM      8  C   UNL     1       7.133   4.431  17.094  0.00  0.00    +0.000 C 
ATOM      9  C   UNL     1       5.954   5.374  19.094  0.00  0.00    +0.000 C 
ATOM     10  C   UNL     1       4.313   6.528  17.586  0.00  0.00    +0.000 C 
ENDROOT
BRANCH   1  15
ATOM     11  C   UNL     1       1.861   2.775  21.578  0.00  0.00    +0.000 C 
ATOM     12  C   UNL     1       2.392   3.871  20.747  0.00  0.00    +0.000 A 
ATOM     13  N   UNL     1       1.904   5.147  20.716  0.00  0.00    +0.000 NA
ATOM     14  N   UNL     1       2.656   5.812  19.840  0.00  0.00    +0.000 NA
ATOM     15  N   UNL     1       3.553   4.906  19.390  0.00  0.00    +0.000 N 
ATOM     16  N   UNL     1       3.434   3.675  19.924  0.00  0.00    +0.000 NA
ENDBRANCH   1  15
TORSDOF 1
ENDMDL
