MODEL 1
REMARK VINA RESULT:      -8.5      0.000      0.000
REMARK  Name = 
REMARK  4 active torsions:
REMARK  status: ('A' for Active; 'I' for Inactive)
REMARK    1  A    between atoms: S_2  and  C_4
REMARK    2  A    between atoms: S_2  and  C_14
REMARK    3  A    between atoms: C_20  and  C_21
REMARK    4  A    between atoms: C_21  and  N_22
REMARK                            x       y       z     vdW  Elec       q    Type
REMARK                         _______ _______ _______ _____ _____    ______ ____
ROOT
ATOM      1  C   UNL     1       1.089  10.222  19.496  0.00  0.00    +0.000 A 
ATOM      2  N   UNL     1       1.433  11.086  18.513  0.00  0.00    +0.000 NA
ATOM      3  N   UNL     1       2.232  10.455  17.663  0.00  0.00    +0.000 N 
ATOM      4  C   UNL     1       2.386   9.193  18.084  0.00  0.00    +0.000 A 
ATOM      5  C   UNL     1       3.085   8.173  17.456  0.00  0.00    +0.000 A 
ATOM      6  C   UNL     1       3.099   6.917  18.076  0.00  0.00    +0.000 A 
ATOM      7  C   UNL     1       2.452   6.704  19.321  0.00  0.00    +0.000 A 
ATOM      8  C   UNL     1       1.728   7.767  19.925  0.00  0.00    +0.000 A 
ATOM      9  C   UNL     1       1.710   9.004  19.258  0.00  0.00    +0.000 A 
ATOM     10  H   UNL     1       2.637  10.884  16.801  0.00  0.00    +0.000 HD
ENDROOT
BRANCH   1  12
ATOM     11  O   UNL     1       0.546  11.424  21.863  0.00  0.00    +0.000 OA
ATOM     12  S   UNL     1      -0.135  10.631  20.735  0.00  0.00    +0.000 S 
ATOM     13  O   UNL     1      -0.505   9.354  21.500  0.00  0.00    +0.000 OA
BRANCH  12  14
ATOM     14  C   UNL     1      -1.695  11.434  20.271  0.00  0.00    +0.000 A 
ATOM     15  C   UNL     1      -2.249  12.380  21.146  0.00  0.00    +0.000 A 
ATOM     16  C   UNL     1      -3.448  13.026  20.839  0.00  0.00    +0.000 A 
ATOM     17  C   UNL     1      -4.122  12.736  19.655  0.00  0.00    +0.000 A 
ATOM     18  C   UNL     1      -3.593  11.803  18.759  0.00  0.00    +0.000 A 
ATOM     19  C   UNL     1      -4.280  11.525  17.564  0.00  0.00    +0.000 A 
ATOM     20  C   UNL     1      -3.762  10.606  16.652  0.00  0.00    +0.000 A 
ATOM     21  C   UNL     1      -2.563   9.953  16.924  0.00  0.00    +0.000 A 
ATOM     22  C   UNL     1      -1.871  10.211  18.112  0.00  0.00    +0.000 A 
ATOM     23  C   UNL     1      -2.370  11.140  19.050  0.00  0.00    +0.000 A 
ENDBRANCH  12  14
ENDBRANCH   1  12
BRANCH   7  24
ATOM     24  C   UNL     1       2.577   5.335  19.958  0.00  0.00    +0.000 C 
BRANCH  24  25
ATOM     25  N   UNL     1       1.437   4.499  19.515  0.00  0.00    +0.000 NA
ATOM     26  C   UNL     1       1.486   4.049  18.111  0.00  0.00    +0.000 C 
ATOM     27  C   UNL     1       2.357   2.795  17.947  0.00  0.00    +0.000 C 
ATOM     28  N   UNL     1       1.880   1.726  18.833  0.00  0.00    +0.000 NA
ATOM     29  C   UNL     1       1.905   2.155  20.236  0.00  0.00    +0.000 C 
ATOM     30  C   UNL     1       1.038   3.406  20.423  0.00  0.00    +0.000 C 
ATOM     31  H   UNL     1       2.511   0.897  18.727  0.00  0.00    +0.000 HD
ENDBRANCH  24  25
ENDBRANCH   7  24
TORSDOF 4
ENDMDL
MODEL 2
REMARK VINA RESULT:      -8.2      3.239      4.785
REMARK  Name = 
REMARK  4 active torsions:
REMARK  status: ('A' for Active; 'I' for Inactive)
REMARK    1  A    between atoms: S_2  and  C_4
REMARK    2  A    between atoms: S_2  and  C_14
REMARK    3  A    between atoms: C_20  and  C_21
REMARK    4  A    between atoms: C_21  and  N_22
REMARK                            x       y       z     vdW  Elec       q    Type
REMARK                         _______ _______ _______ _____ _____    ______ ____
ROOT
ATOM      1  C   UNL     1       1.413   8.460  19.583  0.00  0.00    +0.000 A 
ATOM      2  N   UNL     1       1.035   8.413  20.882  0.00  0.00    +0.000 NA
ATOM      3  N   UNL     1       1.462   7.269  21.400  0.00  0.00    +0.000 N 
ATOM      4  C   UNL     1       2.123   6.594  20.451  0.00  0.00    +0.000 A 
ATOM      5  C   UNL     1       2.787   5.385  20.582  0.00  0.00    +0.000 A 
ATOM      6  C   UNL     1       3.429   4.869  19.449  0.00  0.00    +0.000 A 
ATOM      7  C   UNL     1       3.369   5.541  18.200  0.00  0.00    +0.000 A 
ATOM      8  C   UNL     1       2.696   6.788  18.107  0.00  0.00    +0.000 A 
ATOM      9  C   UNL     1       2.092   7.290  19.273  0.00  0.00    +0.000 A 
ATOM     10  H   UNL     1       1.317   6.979  22.393  0.00  0.00    +0.000 HD
ENDROOT
BRANCH   1  12
ATOM     11  O   UNL     1      -0.121   9.805  17.799  0.00  0.00    +0.000 OA
ATOM     12  S   UNL     1       1.196   9.928  18.583  0.00  0.00    +0.000 S 
ATOM     13  O   UNL     1       2.198   9.882  17.422  0.00  0.00    +0.000 OA
BRANCH  12  14
ATOM     14  C   UNL     1       1.324  11.581  19.321  0.00  0.00    +0.000 A 
ATOM     15  C   UNL     1       2.244  12.489  18.777  0.00  0.00    +0.000 A 
ATOM     16  C   UNL     1       2.385  13.773  19.306  0.00  0.00    +0.000 A 
ATOM     17  C   UNL     1       1.614  14.175  20.394  0.00  0.00    +0.000 A 
ATOM     18  C   UNL     1       0.682  13.297  20.956  0.00  0.00    +0.000 A 
ATOM     19  C   UNL     1      -0.095  13.718  22.049  0.00  0.00    +0.000 A 
ATOM     20  C   UNL     1      -1.037  12.860  22.614  0.00  0.00    +0.000 A 
ATOM     21  C   UNL     1      -1.208  11.576  22.101  0.00  0.00    +0.000 A 
ATOM     22  C   UNL     1      -0.437  11.138  21.020  0.00  0.00    +0.000 A 
ATOM     23  C   UNL     1       0.520  11.987  20.426  0.00  0.00    +0.000 A 
ENDBRANCH  12  14
ENDBRANCH   1  12
BRANCH   7  24
ATOM     24  C   UNL     1       4.028   4.877  17.007  0.00  0.00    +0.000 C 
BRANCH  24  25
ATOM     25  N   UNL     1       5.128   5.746  16.528  0.00  0.00    +0.000 NA
ATOM     26  C   UNL     1       6.254   5.924  17.466  0.00  0.00    +0.000 C 
ATOM     27  C   UNL     1       7.251   4.760  17.381  0.00  0.00    +0.000 C 
ATOM     28  N   UNL     1       7.728   4.600  16.002  0.00  0.00    +0.000 NA
ATOM     29  C   UNL     1       6.610   4.348  15.085  0.00  0.00    +0.000 C 
ATOM     30  C   UNL     1       5.601   5.501  15.152  0.00  0.00    +0.000 C 
ATOM     31  H   UNL     1       8.379   3.779  15.966  0.00  0.00    +0.000 HD
ENDBRANCH  24  25
ENDBRANCH   7  24
TORSDOF 4
ENDMDL
MODEL 3
REMARK VINA RESULT:      -8.2      2.616      3.444
REMARK  Name = 
REMARK  4 active torsions:
REMARK  status: ('A' for Active; 'I' for Inactive)
REMARK    1  A    between atoms: S_2  and  C_4
REMARK    2  A    between atoms: S_2  and  C_14
REMARK    3  A    between atoms: C_20  and  C_21
REMARK    4  A    between atoms: C_21  and  N_22
REMARK                            x       y       z     vdW  Elec       q    Type
REMARK                         _______ _______ _______ _____ _____    ______ ____
ROOT
ATOM      1  C   UNL     1       0.972   9.010  20.237  0.00  0.00    +0.000 A 
ATOM      2  N   UNL     1       0.485   8.495  21.391  0.00  0.00    +0.000 NA
ATOM      3  N   UNL     1       0.968   7.268  21.536  0.00  0.00    +0.000 N 
ATOM      4  C   UNL     1       1.770   7.002  20.497  0.00  0.00    +0.000 A 
ATOM      5  C   UNL     1       2.528   5.861  20.287  0.00  0.00    +0.000 A 
ATOM      6  C   UNL     1       3.313   5.806  19.128  0.00  0.00    +0.000 A 
ATOM      7  C   UNL     1       3.303   6.865  18.182  0.00  0.00    +0.000 A 
ATOM      8  C   UNL     1       2.529   8.027  18.441  0.00  0.00    +0.000 A 
ATOM      9  C   UNL     1       1.780   8.060  19.630  0.00  0.00    +0.000 A 
ATOM     10  H   UNL     1       0.763   6.644  22.348  0.00  0.00    +0.000 HD
ENDROOT
BRANCH   1  12
ATOM     11  O   UNL     1       1.498  11.011  18.488  0.00  0.00    +0.000 OA
ATOM     12  S   UNL     1       0.711  10.719  19.776  0.00  0.00    +0.000 S 
ATOM     13  O   UNL     1       1.478  11.614  20.759  0.00  0.00    +0.000 OA
BRANCH  12  14
ATOM     14  C   UNL     1      -0.965  11.401  19.645  0.00  0.00    +0.000 A 
ATOM     15  C   UNL     1      -1.405  12.295  20.632  0.00  0.00    +0.000 A 
ATOM     16  C   UNL     1      -2.686  12.848  20.581  0.00  0.00    +0.000 A 
ATOM     17  C   UNL     1      -3.557  12.515  19.545  0.00  0.00    +0.000 A 
ATOM     18  C   UNL     1      -3.146  11.632  18.542  0.00  0.00    +0.000 A 
ATOM     19  C   UNL     1      -4.032  11.310  17.499  0.00  0.00    +0.000 A 
ATOM     20  C   UNL     1      -3.637  10.441  16.483  0.00  0.00    +0.000 A 
ATOM     21  C   UNL     1      -2.361   9.882  16.501  0.00  0.00    +0.000 A 
ATOM     22  C   UNL     1      -1.470  10.184  17.535  0.00  0.00    +0.000 A 
ATOM     23  C   UNL     1      -1.843  11.064  18.574  0.00  0.00    +0.000 A 
ENDBRANCH  12  14
ENDBRANCH   1  12
BRANCH   7  24
ATOM     24  C   UNL     1       4.125   6.693  16.920  0.00  0.00    +0.000 C 
BRANCH  24  25
ATOM     25  N   UNL     1       5.027   5.531  17.095  0.00  0.00    +0.000 NA
ATOM     26  C   UNL     1       5.160   4.646  15.921  0.00  0.00    +0.000 C 
ATOM     27  C   UNL     1       6.189   5.185  14.918  0.00  0.00    +0.000 C 
ATOM     28  N   UNL     1       7.484   5.391  15.579  0.00  0.00    +0.000 NA
ATOM     29  C   UNL     1       7.359   6.331  16.699  0.00  0.00    +0.000 C 
ATOM     30  C   UNL     1       6.336   5.810  17.717  0.00  0.00    +0.000 C 
ATOM     31  H   UNL     1       8.155   5.791  14.882  0.00  0.00    +0.000 HD
ENDBRANCH  24  25
ENDBRANCH   7  24
TORSDOF 4
ENDMDL
MODEL 4
REMARK VINA RESULT:      -8.1      2.590      3.261
REMARK  Name = 
REMARK  4 active torsions:
REMARK  status: ('A' for Active; 'I' for Inactive)
REMARK    1  A    between atoms: S_2  and  C_4
REMARK    2  A    between atoms: S_2  and  C_14
REMARK    3  A    between atoms: C_20  and  C_21
REMARK    4  A    between atoms: C_21  and  N_22
REMARK                            x       y       z     vdW  Elec       q    Type
REMARK                         _______ _______ _______ _____ _____    ______ ____
ROOT
ATOM      1  C   UNL     1       0.801   9.980  20.415  0.00  0.00    +0.000 A 
ATOM      2  N   UNL     1       0.677  10.967  19.496  0.00  0.00    +0.000 NA
ATOM      3  N   UNL     1       1.194  10.540  18.352  0.00  0.00    +0.000 N 
ATOM      4  C   UNL     1       1.630   9.286  18.526  0.00  0.00    +0.000 A 
ATOM      5  C   UNL     1       2.177   8.442  17.571  0.00  0.00    +0.000 A 
ATOM      6  C   UNL     1       2.551   7.155  17.978  0.00  0.00    +0.000 A 
ATOM      7  C   UNL     1       2.411   6.741  19.329  0.00  0.00    +0.000 A 
ATOM      8  C   UNL     1       1.828   7.626  20.275  0.00  0.00    +0.000 A 
ATOM      9  C   UNL     1       1.434   8.897  19.823  0.00  0.00    +0.000 A 
ATOM     10  H   UNL     1       1.219  11.098  17.469  0.00  0.00    +0.000 HD
ENDROOT
BRANCH   1  12
ATOM     11  O   UNL     1       1.125   9.814  23.100  0.00  0.00    +0.000 OA
ATOM     12  S   UNL     1       0.051  10.091  22.035  0.00  0.00    +0.000 S 
ATOM     13  O   UNL     1      -0.847   8.865  22.244  0.00  0.00    +0.000 OA
BRANCH  12  14
ATOM     14  C   UNL     1      -0.927  11.544  22.508  0.00  0.00    +0.000 A 
ATOM     15  C   UNL     1      -2.150  11.344  23.166  0.00  0.00    +0.000 A 
ATOM     16  C   UNL     1      -2.944  12.426  23.551  0.00  0.00    +0.000 A 
ATOM     17  C   UNL     1      -2.536  13.731  23.282  0.00  0.00    +0.000 A 
ATOM     18  C   UNL     1      -1.319  13.965  22.633  0.00  0.00    +0.000 A 
ATOM     19  C   UNL     1      -0.916  15.287  22.373  0.00  0.00    +0.000 A 
ATOM     20  C   UNL     1       0.299  15.539  21.739  0.00  0.00    +0.000 A 
ATOM     21  C   UNL     1       1.118  14.481  21.353  0.00  0.00    +0.000 A 
ATOM     22  C   UNL     1       0.728  13.160  21.595  0.00  0.00    +0.000 A 
ATOM     23  C   UNL     1      -0.495  12.876  22.239  0.00  0.00    +0.000 A 
ENDBRANCH  12  14
ENDBRANCH   1  12
BRANCH   7  24
ATOM     24  C   UNL     1       2.908   5.358  19.700  0.00  0.00    +0.000 C 
BRANCH  24  25
ATOM     25  N   UNL     1       2.837   4.491  18.501  0.00  0.00    +0.000 NA
ATOM     26  C   UNL     1       3.915   3.491  18.375  0.00  0.00    +0.000 C 
ATOM     27  C   UNL     1       3.619   2.230  19.199  0.00  0.00    +0.000 C 
ATOM     28  N   UNL     1       2.320   1.664  18.813  0.00  0.00    +0.000 NA
ATOM     29  C   UNL     1       1.242   2.639  19.013  0.00  0.00    +0.000 C 
ATOM     30  C   UNL     1       1.516   3.908  18.196  0.00  0.00    +0.000 C 
ATOM     31  H   UNL     1       2.129   0.828  19.414  0.00  0.00    +0.000 HD
ENDBRANCH  24  25
ENDBRANCH   7  24
TORSDOF 4
ENDMDL
MODEL 5
REMARK VINA RESULT:      -8.1      2.843      4.197
REMARK  Name = 
REMARK  4 active torsions:
REMARK  status: ('A' for Active; 'I' for Inactive)
REMARK    1  A    between atoms: S_2  and  C_4
REMARK    2  A    between atoms: S_2  and  C_14
REMARK    3  A    between atoms: C_20  and  C_21
REMARK    4  A    between atoms: C_21  and  N_22
REMARK                            x       y       z     vdW  Elec       q    Type
REMARK                         _______ _______ _______ _____ _____    ______ ____
ROOT
ATOM      1  C   UNL     1       1.341   8.358  19.683  0.00  0.00    +0.000 A 
ATOM      2  N   UNL     1       1.000   8.291  20.991  0.00  0.00    +0.000 NA
ATOM      3  N   UNL     1       1.481   7.161  21.491  0.00  0.00    +0.000 N 
ATOM      4  C   UNL     1       2.140   6.514  20.520  0.00  0.00    +0.000 A 
ATOM      5  C   UNL     1       2.850   5.329  20.627  0.00  0.00    +0.000 A 
ATOM      6  C   UNL     1       3.479   4.841  19.475  0.00  0.00    +0.000 A 
ATOM      7  C   UNL     1       3.362   5.517  18.231  0.00  0.00    +0.000 A 
ATOM      8  C   UNL     1       2.643   6.740  18.164  0.00  0.00    +0.000 A 
ATOM      9  C   UNL     1       2.053   7.214  19.348  0.00  0.00    +0.000 A 
ATOM     10  H   UNL     1       1.373   6.860  22.485  0.00  0.00    +0.000 HD
ENDROOT
BRANCH   1  12
ATOM     11  O   UNL     1       1.831   9.701  17.381  0.00  0.00    +0.000 OA
ATOM     12  S   UNL     1       1.047   9.822  18.698  0.00  0.00    +0.000 S 
ATOM     13  O   UNL     1       1.791  11.001  19.338  0.00  0.00    +0.000 OA
BRANCH  12  14
ATOM     14  C   UNL     1      -0.643  10.391  18.360  0.00  0.00    +0.000 A 
ATOM     15  C   UNL     1      -1.263   9.981  17.171  0.00  0.00    +0.000 A 
ATOM     16  C   UNL     1      -2.561  10.391  16.860  0.00  0.00    +0.000 A 
ATOM     17  C   UNL     1      -3.265  11.223  17.728  0.00  0.00    +0.000 A 
ATOM     18  C   UNL     1      -2.677  11.644  18.924  0.00  0.00    +0.000 A 
ATOM     19  C   UNL     1      -3.400  12.479  19.794  0.00  0.00    +0.000 A 
ATOM     20  C   UNL     1      -2.836  12.899  20.998  0.00  0.00    +0.000 A 
ATOM     21  C   UNL     1      -1.547  12.498  21.341  0.00  0.00    +0.000 A 
ATOM     22  C   UNL     1      -0.809  11.676  20.483  0.00  0.00    +0.000 A 
ATOM     23  C   UNL     1      -1.358  11.233  19.261  0.00  0.00    +0.000 A 
ENDBRANCH  12  14
ENDBRANCH   1  12
BRANCH   7  24
ATOM     24  C   UNL     1       4.013   4.883  17.018  0.00  0.00    +0.000 C 
BRANCH  24  25
ATOM     25  N   UNL     1       5.114   5.760  16.557  0.00  0.00    +0.000 NA
ATOM     26  C   UNL     1       6.230   5.934  17.508  0.00  0.00    +0.000 C 
ATOM     27  C   UNL     1       7.233   4.776  17.425  0.00  0.00    +0.000 C 
ATOM     28  N   UNL     1       7.724   4.628  16.049  0.00  0.00    +0.000 NA
ATOM     29  C   UNL     1       6.617   4.379  15.119  0.00  0.00    +0.000 C 
ATOM     30  C   UNL     1       5.602   5.527  15.184  0.00  0.00    +0.000 C 
ATOM     31  H   UNL     1       8.378   3.811  16.013  0.00  0.00    +0.000 HD
ENDBRANCH  24  25
ENDBRANCH   7  24
TORSDOF 4
ENDMDL
MODEL 6
REMARK VINA RESULT:      -8.1      3.645      8.721
REMARK  Name = 
REMARK  4 active torsions:
REMARK  status: ('A' for Active; 'I' for Inactive)
REMARK    1  A    between atoms: S_2  and  C_4
REMARK    2  A    between atoms: S_2  and  C_14
REMARK    3  A    between atoms: C_20  and  C_21
REMARK    4  A    between atoms: C_21  and  N_22
REMARK                            x       y       z     vdW  Elec       q    Type
REMARK                         _______ _______ _______ _____ _____    ______ ____
ROOT
ATOM      1  C   UNL     1      -2.348  11.767  18.456  0.00  0.00    +0.000 A 
ATOM      2  N   UNL     1      -2.185  11.470  17.145  0.00  0.00    +0.000 NA
ATOM      3  N   UNL     1      -3.379  11.458  16.568  0.00  0.00    +0.000 N 
ATOM      4  C   UNL     1      -4.300  11.760  17.493  0.00  0.00    +0.000 A 
ATOM      5  C   UNL     1      -5.663  11.921  17.305  0.00  0.00    +0.000 A 
ATOM      6  C   UNL     1      -6.439  12.256  18.421  0.00  0.00    +0.000 A 
ATOM      7  C   UNL     1      -5.856  12.388  19.709  0.00  0.00    +0.000 A 
ATOM      8  C   UNL     1      -4.452  12.235  19.860  0.00  0.00    +0.000 A 
ATOM      9  C   UNL     1      -3.702  11.932  18.711  0.00  0.00    +0.000 A 
ATOM     10  H   UNL     1      -3.544  11.268  15.554  0.00  0.00    +0.000 HD
ENDROOT
BRANCH   1  12
ATOM     11  O   UNL     1      -1.336  13.185  20.532  0.00  0.00    +0.000 OA
ATOM     12  S   UNL     1      -0.959  12.071  19.541  0.00  0.00    +0.000 S 
ATOM     13  O   UNL     1       0.137  12.789  18.745  0.00  0.00    +0.000 OA
BRANCH  12  14
ATOM     14  C   UNL     1      -0.154  10.706  20.426  0.00  0.00    +0.000 A 
ATOM     15  C   UNL     1      -0.336  10.606  21.813  0.00  0.00    +0.000 A 
ATOM     16  C   UNL     1       0.262   9.577  22.543  0.00  0.00    +0.000 A 
ATOM     17  C   UNL     1       1.059   8.630  21.904  0.00  0.00    +0.000 A 
ATOM     18  C   UNL     1       1.255   8.698  20.522  0.00  0.00    +0.000 A 
ATOM     19  C   UNL     1       2.057   7.732  19.888  0.00  0.00    +0.000 A 
ATOM     20  C   UNL     1       2.254   7.776  18.509  0.00  0.00    +0.000 A 
ATOM     21  C   UNL     1       1.662   8.784  17.751  0.00  0.00    +0.000 A 
ATOM     22  C   UNL     1       0.869   9.759  18.367  0.00  0.00    +0.000 A 
ATOM     23  C   UNL     1       0.650   9.735  19.760  0.00  0.00    +0.000 A 
ENDBRANCH  12  14
ENDBRANCH   1  12
BRANCH   7  24
ATOM     24  C   UNL     1      -6.778  12.680  20.876  0.00  0.00    +0.000 C 
BRANCH  24  25
ATOM     25  N   UNL     1      -6.031  13.465  21.886  0.00  0.00    +0.000 NA
ATOM     26  C   UNL     1      -6.492  14.854  22.081  0.00  0.00    +0.000 C 
ATOM     27  C   UNL     1      -7.690  14.924  23.037  0.00  0.00    +0.000 C 
ATOM     28  N   UNL     1      -7.356  14.290  24.319  0.00  0.00    +0.000 NA
ATOM     29  C   UNL     1      -6.971  12.887  24.126  0.00  0.00    +0.000 C 
ATOM     30  C   UNL     1      -5.772  12.792  23.174  0.00  0.00    +0.000 C 
ATOM     31  H   UNL     1      -8.200  14.322  24.938  0.00  0.00    +0.000 HD
ENDBRANCH  24  25
ENDBRANCH   7  24
TORSDOF 4
ENDMDL
MODEL 7
REMARK VINA RESULT:      -8.0      2.948      3.847
REMARK  Name = 
REMARK  4 active torsions:
REMARK  status: ('A' for Active; 'I' for Inactive)
REMARK    1  A    between atoms: S_2  and  C_4
REMARK    2  A    between atoms: S_2  and  C_14
REMARK    3  A    between atoms: C_20  and  C_21
REMARK    4  A    between atoms: C_21  and  N_22
REMARK                            x       y       z     vdW  Elec       q    Type
REMARK                         _______ _______ _______ _____ _____    ______ ____
ROOT
ATOM      1  C   UNL     1       1.438   8.290  19.619  0.00  0.00    +0.000 A 
ATOM      2  N   UNL     1       1.068   8.218  20.920  0.00  0.00    +0.000 NA
ATOM      3  N   UNL     1       1.499   7.066  21.414  0.00  0.00    +0.000 N 
ATOM      4  C   UNL     1       2.155   6.409  20.449  0.00  0.00    +0.000 A 
ATOM      5  C   UNL     1       2.821   5.198  20.554  0.00  0.00    +0.000 A 
ATOM      6  C   UNL     1       3.456   4.703  19.408  0.00  0.00    +0.000 A 
ATOM      7  C   UNL     1       3.388   5.397  18.171  0.00  0.00    +0.000 A 
ATOM      8  C   UNL     1       2.714   6.646  18.106  0.00  0.00    +0.000 A 
ATOM      9  C   UNL     1       2.117   7.126  19.284  0.00  0.00    +0.000 A 
ATOM     10  H   UNL     1       1.361   6.757  22.402  0.00  0.00    +0.000 HD
ENDROOT
BRANCH   1  12
ATOM     11  O   UNL     1       1.068   9.384  17.169  0.00  0.00    +0.000 OA
ATOM     12  S   UNL     1       1.215   9.775  18.648  0.00  0.00    +0.000 S 
ATOM     13  O   UNL     1       2.551  10.527  18.589  0.00  0.00    +0.000 OA
BRANCH  12  14
ATOM     14  C   UNL     1      -0.053  10.994  19.093  0.00  0.00    +0.000 A 
ATOM     15  C   UNL     1       0.314  12.078  19.904  0.00  0.00    +0.000 A 
ATOM     16  C   UNL     1      -0.622  13.044  20.279  0.00  0.00    +0.000 A 
ATOM     17  C   UNL     1      -1.946  12.945  19.856  0.00  0.00    +0.000 A 
ATOM     18  C   UNL     1      -2.342  11.880  19.041  0.00  0.00    +0.000 A 
ATOM     19  C   UNL     1      -3.680  11.795  18.616  0.00  0.00    +0.000 A 
ATOM     20  C   UNL     1      -4.091  10.747  17.793  0.00  0.00    +0.000 A 
ATOM     21  C   UNL     1      -3.178   9.774  17.394  0.00  0.00    +0.000 A 
ATOM     22  C   UNL     1      -1.846   9.838  17.815  0.00  0.00    +0.000 A 
ATOM     23  C   UNL     1      -1.402  10.890  18.644  0.00  0.00    +0.000 A 
ENDBRANCH  12  14
ENDBRANCH   1  12
BRANCH   7  24
ATOM     24  C   UNL     1       4.041   4.756  16.963  0.00  0.00    +0.000 C 
BRANCH  24  25
ATOM     25  N   UNL     1       5.110   5.655  16.468  0.00  0.00    +0.000 NA
ATOM     26  C   UNL     1       6.242   5.866  17.392  0.00  0.00    +0.000 C 
ATOM     27  C   UNL     1       7.271   4.732  17.297  0.00  0.00    +0.000 C 
ATOM     28  N   UNL     1       7.735   4.580  15.912  0.00  0.00    +0.000 NA
ATOM     29  C   UNL     1       6.613   4.295  15.010  0.00  0.00    +0.000 C 
ATOM     30  C   UNL     1       5.572   5.418  15.087  0.00  0.00    +0.000 C 
ATOM     31  H   UNL     1       8.408   3.778  15.871  0.00  0.00    +0.000 HD
ENDBRANCH  24  25
ENDBRANCH   7  24
TORSDOF 4
ENDMDL
MODEL 8
REMARK VINA RESULT:      -7.9      2.728      3.748
REMARK  Name = 
REMARK  4 active torsions:
REMARK  status: ('A' for Active; 'I' for Inactive)
REMARK    1  A    between atoms: S_2  and  C_4
REMARK    2  A    between atoms: S_2  and  C_14
REMARK    3  A    between atoms: C_20  and  C_21
REMARK    4  A    between atoms: C_21  and  N_22
REMARK                            x       y       z     vdW  Elec       q    Type
REMARK                         _______ _______ _______ _____ _____    ______ ____
ROOT
ATOM      1  C   UNL     1       0.274  10.346  20.481  0.00  0.00    +0.000 A 
ATOM      2  N   UNL     1      -0.087  11.254  19.544  0.00  0.00    +0.000 NA
ATOM      3  N   UNL     1       0.385  10.855  18.371  0.00  0.00    +0.000 N 
ATOM      4  C   UNL     1       1.029   9.693  18.546  0.00  0.00    +0.000 A 
ATOM      5  C   UNL     1       1.614   8.898  17.574  0.00  0.00    +0.000 A 
ATOM      6  C   UNL     1       2.223   7.707  17.988  0.00  0.00    +0.000 A 
ATOM      7  C   UNL     1       2.273   7.344  19.360  0.00  0.00    +0.000 A 
ATOM      8  C   UNL     1       1.645   8.174  20.326  0.00  0.00    +0.000 A 
ATOM      9  C   UNL     1       1.015   9.345  19.869  0.00  0.00    +0.000 A 
ATOM     10  H   UNL     1       0.242  11.365  17.471  0.00  0.00    +0.000 HD
ENDROOT
BRANCH   1  12
ATOM     11  O   UNL     1       0.835  10.162  23.125  0.00  0.00    +0.000 OA
ATOM     12  S   UNL     1      -0.334  10.421  22.161  0.00  0.00    +0.000 S 
ATOM     13  O   UNL     1      -1.180   9.170  22.433  0.00  0.00    +0.000 OA
BRANCH  12  14
ATOM     14  C   UNL     1      -1.304  11.843  22.736  0.00  0.00    +0.000 A 
ATOM     15  C   UNL     1      -2.535  11.606  23.365  0.00  0.00    +0.000 A 
ATOM     16  C   UNL     1      -3.322  12.663  23.824  0.00  0.00    +0.000 A 
ATOM     17  C   UNL     1      -2.900  13.980  23.660  0.00  0.00    +0.000 A 
ATOM     18  C   UNL     1      -1.675  14.251  23.043  0.00  0.00    +0.000 A 
ATOM     19  C   UNL     1      -1.256  15.584  22.889  0.00  0.00    +0.000 A 
ATOM     20  C   UNL     1      -0.032  15.873  22.288  0.00  0.00    +0.000 A 
ATOM     21  C   UNL     1       0.780  14.839  21.829  0.00  0.00    +0.000 A 
ATOM     22  C   UNL     1       0.376  13.507  21.965  0.00  0.00    +0.000 A 
ATOM     23  C   UNL     1      -0.856  13.187  22.574  0.00  0.00    +0.000 A 
ENDBRANCH  12  14
ENDBRANCH   1  12
BRANCH   7  24
ATOM     24  C   UNL     1       3.015   6.076  19.730  0.00  0.00    +0.000 C 
BRANCH  24  25
ATOM     25  N   UNL     1       3.615   5.501  18.503  0.00  0.00    +0.000 NA
ATOM     26  C   UNL     1       5.030   5.848  18.265  0.00  0.00    +0.000 C 
ATOM     27  C   UNL     1       5.978   4.934  19.053  0.00  0.00    +0.000 C 
ATOM     28  N   UNL     1       5.713   3.526  18.729  0.00  0.00    +0.000 NA
ATOM     29  C   UNL     1       4.324   3.168  19.039  0.00  0.00    +0.000 C 
ATOM     30  C   UNL     1       3.358   4.069  18.260  0.00  0.00    +0.000 C 
ATOM     31  H   UNL     1       6.348   2.925  19.305  0.00  0.00    +0.000 HD
ENDBRANCH  24  25
ENDBRANCH   7  24
TORSDOF 4
ENDMDL
MODEL 9
REMARK VINA RESULT:      -7.9      3.861      9.049
REMARK  Name = 
REMARK  4 active torsions:
REMARK  status: ('A' for Active; 'I' for Inactive)
REMARK    1  A    between atoms: S_2  and  C_4
REMARK    2  A    between atoms: S_2  and  C_14
REMARK    3  A    between atoms: C_20  and  C_21
REMARK    4  A    between atoms: C_21  and  N_22
REMARK                            x       y       z     vdW  Elec       q    Type
REMARK                         _______ _______ _______ _____ _____    ______ ____
ROOT
ATOM      1  C   UNL     1       2.724   4.196  19.237  0.00  0.00    +0.000 A 
ATOM      2  N   UNL     1       2.474   3.440  20.332  0.00  0.00    +0.000 NA
ATOM      3  N   UNL     1       1.925   4.215  21.258  0.00  0.00    +0.000 N 
ATOM      4  C   UNL     1       1.805   5.452  20.758  0.00  0.00    +0.000 A 
ATOM      5  C   UNL     1       1.222   6.554  21.364  0.00  0.00    +0.000 A 
ATOM      6  C   UNL     1       1.194   7.754  20.642  0.00  0.00    +0.000 A 
ATOM      7  C   UNL     1       1.775   7.849  19.350  0.00  0.00    +0.000 A 
ATOM      8  C   UNL     1       2.345   6.694  18.753  0.00  0.00    +0.000 A 
ATOM      9  C   UNL     1       2.326   5.500  19.494  0.00  0.00    +0.000 A 
ATOM     10  H   UNL     1       1.620   3.886  22.201  0.00  0.00    +0.000 HD
ENDROOT
BRANCH   1  12
ATOM     11  O   UNL     1       2.080   3.313  16.758  0.00  0.00    +0.000 OA
ATOM     12  S   UNL     1       3.286   3.479  17.697  0.00  0.00    +0.000 S 
ATOM     13  O   UNL     1       3.634   2.006  17.940  0.00  0.00    +0.000 OA
BRANCH  12  14
ATOM     14  C   UNL     1       4.680   4.204  16.789  0.00  0.00    +0.000 A 
ATOM     15  C   UNL     1       4.705   4.084  15.392  0.00  0.00    +0.000 A 
ATOM     16  C   UNL     1       5.755   4.620  14.644  0.00  0.00    +0.000 A 
ATOM     17  C   UNL     1       6.805   5.283  15.276  0.00  0.00    +0.000 A 
ATOM     18  C   UNL     1       6.806   5.425  16.667  0.00  0.00    +0.000 A 
ATOM     19  C   UNL     1       7.868   6.102  17.293  0.00  0.00    +0.000 A 
ATOM     20  C   UNL     1       7.881   6.265  18.677  0.00  0.00    +0.000 A 
ATOM     21  C   UNL     1       6.842   5.750  19.449  0.00  0.00    +0.000 A 
ATOM     22  C   UNL     1       5.783   5.066  18.845  0.00  0.00    +0.000 A 
ATOM     23  C   UNL     1       5.743   4.891  17.445  0.00  0.00    +0.000 A 
ENDBRANCH  12  14
ENDBRANCH   1  12
BRANCH   7  24
ATOM     24  C   UNL     1       1.766   9.203  18.669  0.00  0.00    +0.000 C 
BRANCH  24  25
ATOM     25  N   UNL     1       0.927  10.130  19.464  0.00  0.00    +0.000 NA
ATOM     26  C   UNL     1       1.473  11.490  19.640  0.00  0.00    +0.000 C 
ATOM     27  C   UNL     1       1.165  12.385  18.432  0.00  0.00    +0.000 C 
ATOM     28  N   UNL     1      -0.282  12.420  18.182  0.00  0.00    +0.000 NA
ATOM     29  C   UNL     1      -0.805  11.072  17.933  0.00  0.00    +0.000 C 
ATOM     30  C   UNL     1      -0.510  10.160  19.130  0.00  0.00    +0.000 C 
ATOM     31  H   UNL     1      -0.460  13.008  17.333  0.00  0.00    +0.000 HD
ENDBRANCH  24  25
ENDBRANCH   7  24
TORSDOF 4
ENDMDL
