MODEL 1
REMARK VINA RESULT:      -8.1      0.000      0.000
REMARK  Name = 
REMARK  7 active torsions:
REMARK  status: ('A' for Active; 'I' for Inactive)
REMARK    1  A    between atoms: C_1  and  C_2
REMARK    2  A    between atoms: C_5  and  C_6
REMARK    3  A    between atoms: C_6  and  S_7
REMARK    4  A    between atoms: S_7  and  C_10
REMARK    5  A    between atoms: C_10  and  C_11
REMARK    6  A    between atoms: C_14  and  C_15
REMARK    7  A    between atoms: N_17  and  C_18
REMARK                            x       y       z     vdW  Elec       q    Type
REMARK                         _______ _______ _______ _____ _____    ______ ____
ROOT
ATOM      1  C   UNL     1       7.248   7.232  17.583  0.00  0.00    +0.000 A 
ATOM      2  C   UNL     1       8.057   6.912  18.653  0.00  0.00    +0.000 A 
ATOM      3  C   UNL     1       8.758   8.090  18.988  0.00  0.00    +0.000 A 
ATOM      4  C   UNL     1       8.340   9.075  18.113  0.00  0.00    +0.000 A 
ATOM      5  O   UNL     1       7.411   8.549  17.247  0.00  0.00    +0.000 OA
ENDROOT
BRANCH   4   6
ATOM      6  C   UNL     1       8.727  10.469  18.031  0.00  0.00    +0.000 C 
ATOM      7  O   UNL     1       8.031  11.322  17.484  0.00  0.00    +0.000 OA
ATOM      8  N   UNL     1       9.944  10.776  18.609  0.00  0.00    +0.000 N 
ATOM      9  H   UNL     1      10.413  10.045  19.130  0.00  0.00    +0.000 HD
BRANCH   8  10
ATOM     10  C   UNL     1      10.435  12.134  18.643  0.00  0.00    +0.000 C 
ATOM     11  C   UNL     1      11.063  12.516  19.981  0.00  0.00    +0.000 C 
ATOM     12  C   UNL     1      11.798  13.811  19.654  0.00  0.00    +0.000 C 
ATOM     13  C   UNL     1      12.206  13.696  18.183  0.00  0.00    +0.000 C 
ATOM     14  C   UNL     1      11.577  12.400  17.669  0.00  0.00    +0.000 C 
ENDBRANCH   8  10
ENDBRANCH   4   6
BRANCH   1  15
ATOM     15  C   UNL     1       6.243   6.460  16.820  0.00  0.00    +0.000 C 
BRANCH  15  16
ATOM     16  S   UNL     1       6.509   4.704  17.009  0.00  0.00    +0.000 S 
ATOM     17  O   UNL     1       6.381   4.439  18.435  0.00  0.00    +0.000 OA
ATOM     18  O   UNL     1       7.736   4.352  16.312  0.00  0.00    +0.000 OA
BRANCH  16  19
ATOM     19  C   UNL     1       5.113   3.968  16.166  0.00  0.00    +0.000 C 
BRANCH  19  24
ATOM     20  C   UNL     1       0.790   3.132  19.991  0.00  0.00    +0.000 C 
ATOM     21  C   UNL     1       1.893   3.330  18.994  0.00  0.00    +0.000 A 
ATOM     22  C   UNL     1       2.712   2.267  18.602  0.00  0.00    +0.000 A 
ATOM     23  C   UNL     1       3.744   2.470  17.678  0.00  0.00    +0.000 A 
ATOM     24  C   UNL     1       3.979   3.740  17.134  0.00  0.00    +0.000 A 
ATOM     25  C   UNL     1       3.145   4.799  17.516  0.00  0.00    +0.000 A 
ATOM     26  C   UNL     1       2.115   4.596  18.440  0.00  0.00    +0.000 A 
ENDBRANCH  19  24
ENDBRANCH  16  19
ENDBRANCH  15  16
ENDBRANCH   1  15
TORSDOF 6
ENDMDL
MODEL 2
REMARK VINA RESULT:      -7.9      1.462      1.858
REMARK  Name = 
REMARK  7 active torsions:
REMARK  status: ('A' for Active; 'I' for Inactive)
REMARK    1  A    between atoms: C_1  and  C_2
REMARK    2  A    between atoms: C_5  and  C_6
REMARK    3  A    between atoms: C_6  and  S_7
REMARK    4  A    between atoms: S_7  and  C_10
REMARK    5  A    between atoms: C_10  and  C_11
REMARK    6  A    between atoms: C_14  and  C_15
REMARK    7  A    between atoms: N_17  and  C_18
REMARK                            x       y       z     vdW  Elec       q    Type
REMARK                         _______ _______ _______ _____ _____    ______ ____
ROOT
ATOM      1  C   UNL     1       7.544   6.354  17.444  0.00  0.00    +0.000 A 
ATOM      2  C   UNL     1       7.992   6.073  18.717  0.00  0.00    +0.000 A 
ATOM      3  C   UNL     1       8.466   7.291  19.250  0.00  0.00    +0.000 A 
ATOM      4  C   UNL     1       8.278   8.259  18.281  0.00  0.00    +0.000 A 
ATOM      5  O   UNL     1       7.711   7.684  17.169  0.00  0.00    +0.000 OA
ENDROOT
BRANCH   4   6
ATOM      6  C   UNL     1       8.571   9.678  18.318  0.00  0.00    +0.000 C 
ATOM      7  O   UNL     1       8.057  10.483  17.545  0.00  0.00    +0.000 OA
ATOM      8  N   UNL     1       9.480  10.065  19.285  0.00  0.00    +0.000 N 
ATOM      9  H   UNL     1       9.783   9.365  19.951  0.00  0.00    +0.000 HD
BRANCH   8  10
ATOM     10  C   UNL     1       9.832  11.454  19.467  0.00  0.00    +0.000 C 
ATOM     11  C   UNL     1       9.450  11.999  20.840  0.00  0.00    +0.000 C 
ATOM     12  C   UNL     1      10.221  13.312  20.912  0.00  0.00    +0.000 C 
ATOM     13  C   UNL     1      11.481  13.099  20.068  0.00  0.00    +0.000 C 
ATOM     14  C   UNL     1      11.332  11.720  19.425  0.00  0.00    +0.000 C 
ENDBRANCH   8  10
ENDBRANCH   4   6
BRANCH   1  15
ATOM     15  C   UNL     1       6.890   5.527  16.407  0.00  0.00    +0.000 C 
BRANCH  15  16
ATOM     16  S   UNL     1       5.148   5.905  16.293  0.00  0.00    +0.000 S 
ATOM     17  O   UNL     1       4.974   6.573  15.011  0.00  0.00    +0.000 OA
ATOM     18  O   UNL     1       4.746   6.573  17.521  0.00  0.00    +0.000 OA
BRANCH  16  19
ATOM     19  C   UNL     1       4.367   4.296  16.208  0.00  0.00    +0.000 C 
BRANCH  19  24
ATOM     20  C   UNL     1       1.570   3.035  21.168  0.00  0.00    +0.000 C 
ATOM     21  C   UNL     1       2.280   3.382  19.893  0.00  0.00    +0.000 A 
ATOM     22  C   UNL     1       1.581   3.870  18.785  0.00  0.00    +0.000 A 
ATOM     23  C   UNL     1       2.256   4.178  17.599  0.00  0.00    +0.000 A 
ATOM     24  C   UNL     1       3.643   3.999  17.497  0.00  0.00    +0.000 A 
ATOM     25  C   UNL     1       4.342   3.525  18.614  0.00  0.00    +0.000 A 
ATOM     26  C   UNL     1       3.667   3.216  19.799  0.00  0.00    +0.000 A 
ENDBRANCH  19  24
ENDBRANCH  16  19
ENDBRANCH  15  16
ENDBRANCH   1  15
TORSDOF 6
ENDMDL
MODEL 3
REMARK VINA RESULT:      -7.9      1.155      1.383
REMARK  Name = 
REMARK  7 active torsions:
REMARK  status: ('A' for Active; 'I' for Inactive)
REMARK    1  A    between atoms: C_1  and  C_2
REMARK    2  A    between atoms: C_5  and  C_6
REMARK    3  A    between atoms: C_6  and  S_7
REMARK    4  A    between atoms: S_7  and  C_10
REMARK    5  A    between atoms: C_10  and  C_11
REMARK    6  A    between atoms: C_14  and  C_15
REMARK    7  A    between atoms: N_17  and  C_18
REMARK                            x       y       z     vdW  Elec       q    Type
REMARK                         _______ _______ _______ _____ _____    ______ ____
ROOT
ATOM      1  C   UNL     1       6.717   7.115  17.339  0.00  0.00    +0.000 A 
ATOM      2  C   UNL     1       7.583   6.598  18.280  0.00  0.00    +0.000 A 
ATOM      3  C   UNL     1       8.425   7.660  18.673  0.00  0.00    +0.000 A 
ATOM      4  C   UNL     1       8.030   8.776  17.960  0.00  0.00    +0.000 A 
ATOM      5  O   UNL     1       6.980   8.443  17.138  0.00  0.00    +0.000 OA
ENDROOT
BRANCH   4   6
ATOM      6  C   UNL     1       8.545  10.131  17.996  0.00  0.00    +0.000 C 
ATOM      7  O   UNL     1       7.994  11.067  17.422  0.00  0.00    +0.000 OA
ATOM      8  N   UNL     1       9.709  10.298  18.723  0.00  0.00    +0.000 N 
ATOM      9  H   UNL     1      10.048   9.505  19.253  0.00  0.00    +0.000 HD
BRANCH   8  10
ATOM     10  C   UNL     1      10.310  11.601  18.884  0.00  0.00    +0.000 C 
ATOM     11  C   UNL     1      11.035  11.772  20.216  0.00  0.00    +0.000 C 
ATOM     12  C   UNL     1      11.855  13.038  19.997  0.00  0.00    +0.000 C 
ATOM     13  C   UNL     1      12.175  13.071  18.500  0.00  0.00    +0.000 C 
ATOM     14  C   UNL     1      11.417  11.897  17.879  0.00  0.00    +0.000 C 
ENDBRANCH   8  10
ENDBRANCH   4   6
BRANCH   1  15
ATOM     15  C   UNL     1       5.577   6.532  16.600  0.00  0.00    +0.000 C 
BRANCH  15  16
ATOM     16  S   UNL     1       6.108   5.166  15.580  0.00  0.00    +0.000 S 
ATOM     17  O   UNL     1       7.523   5.394  15.324  0.00  0.00    +0.000 OA
ATOM     18  O   UNL     1       5.179   5.041  14.467  0.00  0.00    +0.000 OA
BRANCH  16  19
ATOM     19  C   UNL     1       5.944   3.743  16.654  0.00  0.00    +0.000 C 
BRANCH  19  24
ATOM     20  C   UNL     1       1.203   4.161  20.025  0.00  0.00    +0.000 C 
ATOM     21  C   UNL     1       2.413   4.069  19.143  0.00  0.00    +0.000 A 
ATOM     22  C   UNL     1       2.296   3.760  17.785  0.00  0.00    +0.000 A 
ATOM     23  C   UNL     1       3.435   3.667  16.977  0.00  0.00    +0.000 A 
ATOM     24  C   UNL     1       4.713   3.878  17.515  0.00  0.00    +0.000 A 
ATOM     25  C   UNL     1       4.826   4.204  18.872  0.00  0.00    +0.000 A 
ATOM     26  C   UNL     1       3.687   4.295  19.679  0.00  0.00    +0.000 A 
ENDBRANCH  19  24
ENDBRANCH  16  19
ENDBRANCH  15  16
ENDBRANCH   1  15
TORSDOF 6
ENDMDL
MODEL 4
REMARK VINA RESULT:      -7.7      4.389      7.271
REMARK  Name = 
REMARK  7 active torsions:
REMARK  status: ('A' for Active; 'I' for Inactive)
REMARK    1  A    between atoms: C_1  and  C_2
REMARK    2  A    between atoms: C_5  and  C_6
REMARK    3  A    between atoms: C_6  and  S_7
REMARK    4  A    between atoms: S_7  and  C_10
REMARK    5  A    between atoms: C_10  and  C_11
REMARK    6  A    between atoms: C_14  and  C_15
REMARK    7  A    between atoms: N_17  and  C_18
REMARK                            x       y       z     vdW  Elec       q    Type
REMARK                         _______ _______ _______ _____ _____    ______ ____
ROOT
ATOM      1  C   UNL     1       2.060   4.742  19.243  0.00  0.00    +0.000 A 
ATOM      2  C   UNL     1       1.839   5.036  20.573  0.00  0.00    +0.000 A 
ATOM      3  C   UNL     1       1.767   6.442  20.663  0.00  0.00    +0.000 A 
ATOM      4  C   UNL     1       1.939   6.941  19.385  0.00  0.00    +0.000 A 
ATOM      5  O   UNL     1       2.120   5.897  18.510  0.00  0.00    +0.000 OA
ENDROOT
BRANCH   4   6
ATOM      6  C   UNL     1       1.932   8.312  18.915  0.00  0.00    +0.000 C 
ATOM      7  O   UNL     1       2.545   8.675  17.914  0.00  0.00    +0.000 OA
ATOM      8  N   UNL     1       1.189   9.191  19.680  0.00  0.00    +0.000 N 
ATOM      9  H   UNL     1       0.629   8.804  20.430  0.00  0.00    +0.000 HD
BRANCH   8  10
ATOM     10  C   UNL     1       1.055  10.580  19.305  0.00  0.00    +0.000 C 
ATOM     11  C   UNL     1      -0.251  10.886  18.577  0.00  0.00    +0.000 C 
ATOM     12  C   UNL     1      -0.313  12.408  18.615  0.00  0.00    +0.000 C 
ATOM     13  C   UNL     1       0.413  12.821  19.899  0.00  0.00    +0.000 C 
ATOM     14  C   UNL     1       0.989  11.534  20.491  0.00  0.00    +0.000 C 
ENDBRANCH   8  10
ENDBRANCH   4   6
BRANCH   1  15
ATOM     15  C   UNL     1       2.171   3.466  18.504  0.00  0.00    +0.000 C 
BRANCH  15  16
ATOM     16  S   UNL     1       3.866   2.905  18.451  0.00  0.00    +0.000 S 
ATOM     17  O   UNL     1       3.797   1.451  18.416  0.00  0.00    +0.000 OA
ATOM     18  O   UNL     1       4.601   3.573  19.513  0.00  0.00    +0.000 OA
BRANCH  16  19
ATOM     19  C   UNL     1       4.457   3.484  16.863  0.00  0.00    +0.000 C 
BRANCH  19  24
ATOM     20  C   UNL     1       7.914   8.110  17.683  0.00  0.00    +0.000 C 
ATOM     21  C   UNL     1       7.020   6.928  17.450  0.00  0.00    +0.000 A 
ATOM     22  C   UNL     1       5.695   7.093  17.036  0.00  0.00    +0.000 A 
ATOM     23  C   UNL     1       4.870   5.981  16.834  0.00  0.00    +0.000 A 
ATOM     24  C   UNL     1       5.354   4.683  17.046  0.00  0.00    +0.000 A 
ATOM     25  C   UNL     1       6.687   4.520  17.445  0.00  0.00    +0.000 A 
ATOM     26  C   UNL     1       7.510   5.632  17.648  0.00  0.00    +0.000 A 
ENDBRANCH  19  24
ENDBRANCH  16  19
ENDBRANCH  15  16
ENDBRANCH   1  15
TORSDOF 6
ENDMDL
MODEL 5
REMARK VINA RESULT:      -7.6      4.463      7.279
REMARK  Name = 
REMARK  7 active torsions:
REMARK  status: ('A' for Active; 'I' for Inactive)
REMARK    1  A    between atoms: C_1  and  C_2
REMARK    2  A    between atoms: C_5  and  C_6
REMARK    3  A    between atoms: C_6  and  S_7
REMARK    4  A    between atoms: S_7  and  C_10
REMARK    5  A    between atoms: C_10  and  C_11
REMARK    6  A    between atoms: C_14  and  C_15
REMARK    7  A    between atoms: N_17  and  C_18
REMARK                            x       y       z     vdW  Elec       q    Type
REMARK                         _______ _______ _______ _____ _____    ______ ____
ROOT
ATOM      1  C   UNL     1       3.244   5.285  19.650  0.00  0.00    +0.000 A 
ATOM      2  C   UNL     1       2.280   5.410  20.628  0.00  0.00    +0.000 A 
ATOM      3  C   UNL     1       1.644   6.650  20.403  0.00  0.00    +0.000 A 
ATOM      4  C   UNL     1       2.244   7.219  19.296  0.00  0.00    +0.000 A 
ATOM      5  O   UNL     1       3.230   6.381  18.832  0.00  0.00    +0.000 OA
ENDROOT
BRANCH   4   6
ATOM      6  C   UNL     1       1.961   8.475  18.629  0.00  0.00    +0.000 C 
ATOM      7  O   UNL     1       2.425   8.763  17.528  0.00  0.00    +0.000 OA
ATOM      8  N   UNL     1       1.132   9.335  19.324  0.00  0.00    +0.000 N 
ATOM      9  H   UNL     1       0.705   8.990  20.175  0.00  0.00    +0.000 HD
BRANCH   8  10
ATOM     10  C   UNL     1       0.727  10.602  18.761  0.00  0.00    +0.000 C 
ATOM     11  C   UNL     1      -0.785  10.744  18.617  0.00  0.00    +0.000 C 
ATOM     12  C   UNL     1      -0.964  12.235  18.358  0.00  0.00    +0.000 C 
ATOM     13  C   UNL     1       0.192  12.924  19.088  0.00  0.00    +0.000 C 
ATOM     14  C   UNL     1       1.078  11.803  19.632  0.00  0.00    +0.000 C 
ENDBRANCH   8  10
ENDBRANCH   4   6
BRANCH   1  15
ATOM     15  C   UNL     1       4.194   4.202  19.313  0.00  0.00    +0.000 C 
BRANCH  15  16
ATOM     16  S   UNL     1       3.614   3.258  17.912  0.00  0.00    +0.000 S 
ATOM     17  O   UNL     1       2.454   3.978  17.406  0.00  0.00    +0.000 OA
ATOM     18  O   UNL     1       3.484   1.868  18.323  0.00  0.00    +0.000 OA
BRANCH  16  19
ATOM     19  C   UNL     1       4.941   3.404  16.721  0.00  0.00    +0.000 C 
BRANCH  19  24
ATOM     20  C   UNL     1       7.934   8.297  17.777  0.00  0.00    +0.000 C 
ATOM     21  C   UNL     1       7.166   7.043  17.482  0.00  0.00    +0.000 A 
ATOM     22  C   UNL     1       6.007   7.072  16.701  0.00  0.00    +0.000 A 
ATOM     23  C   UNL     1       5.295   5.895  16.444  0.00  0.00    +0.000 A 
ATOM     24  C   UNL     1       5.727   4.668  16.967  0.00  0.00    +0.000 A 
ATOM     25  C   UNL     1       6.898   4.640  17.735  0.00  0.00    +0.000 A 
ATOM     26  C   UNL     1       7.608   5.817  17.992  0.00  0.00    +0.000 A 
ENDBRANCH  19  24
ENDBRANCH  16  19
ENDBRANCH  15  16
ENDBRANCH   1  15
TORSDOF 6
ENDMDL
MODEL 6
REMARK VINA RESULT:      -7.6      1.031      1.519
REMARK  Name = 
REMARK  7 active torsions:
REMARK  status: ('A' for Active; 'I' for Inactive)
REMARK    1  A    between atoms: C_1  and  C_2
REMARK    2  A    between atoms: C_5  and  C_6
REMARK    3  A    between atoms: C_6  and  S_7
REMARK    4  A    between atoms: S_7  and  C_10
REMARK    5  A    between atoms: C_10  and  C_11
REMARK    6  A    between atoms: C_14  and  C_15
REMARK    7  A    between atoms: N_17  and  C_18
REMARK                            x       y       z     vdW  Elec       q    Type
REMARK                         _______ _______ _______ _____ _____    ______ ____
ROOT
ATOM      1  C   UNL     1       6.740   6.771  17.282  0.00  0.00    +0.000 A 
ATOM      2  C   UNL     1       7.596   6.246  18.227  0.00  0.00    +0.000 A 
ATOM      3  C   UNL     1       8.382   7.322  18.692  0.00  0.00    +0.000 A 
ATOM      4  C   UNL     1       7.965   8.452  18.016  0.00  0.00    +0.000 A 
ATOM      5  O   UNL     1       6.955   8.115  17.146  0.00  0.00    +0.000 OA
ENDROOT
BRANCH   4   6
ATOM      6  C   UNL     1       8.423   9.823  18.127  0.00  0.00    +0.000 C 
ATOM      7  O   UNL     1       8.031  10.718  17.382  0.00  0.00    +0.000 OA
ATOM      8  N   UNL     1       9.343  10.055  19.132  0.00  0.00    +0.000 N 
ATOM      9  H   UNL     1       9.541   9.294  19.771  0.00  0.00    +0.000 HD
BRANCH   8  10
ATOM     10  C   UNL     1       9.852  11.382  19.389  0.00  0.00    +0.000 C 
ATOM     11  C   UNL     1       9.692  11.819  20.843  0.00  0.00    +0.000 C 
ATOM     12  C   UNL     1      10.594  13.045  20.930  0.00  0.00    +0.000 C 
ATOM     13  C   UNL     1      11.718  12.806  19.917  0.00  0.00    +0.000 C 
ATOM     14  C   UNL     1      11.356  11.515  19.181  0.00  0.00    +0.000 C 
ENDBRANCH   8  10
ENDBRANCH   4   6
BRANCH   1  15
ATOM     15  C   UNL     1       5.647   6.177  16.481  0.00  0.00    +0.000 C 
BRANCH  15  16
ATOM     16  S   UNL     1       5.620   4.400  16.654  0.00  0.00    +0.000 S 
ATOM     17  O   UNL     1       5.948   4.137  18.048  0.00  0.00    +0.000 OA
ATOM     18  O   UNL     1       6.436   3.827  15.595  0.00  0.00    +0.000 OA
BRANCH  16  19
ATOM     19  C   UNL     1       3.904   3.971  16.381  0.00  0.00    +0.000 C 
BRANCH  19  24
ATOM     20  C   UNL     1       1.173   2.832  21.408  0.00  0.00    +0.000 C 
ATOM     21  C   UNL     1       1.890   3.140  20.127  0.00  0.00    +0.000 A 
ATOM     22  C   UNL     1       2.058   4.457  19.690  0.00  0.00    +0.000 A 
ATOM     23  C   UNL     1       2.720   4.727  18.486  0.00  0.00    +0.000 A 
ATOM     24  C   UNL     1       3.222   3.684  17.696  0.00  0.00    +0.000 A 
ATOM     25  C   UNL     1       3.067   2.366  18.145  0.00  0.00    +0.000 A 
ATOM     26  C   UNL     1       2.405   2.097  19.346  0.00  0.00    +0.000 A 
ENDBRANCH  19  24
ENDBRANCH  16  19
ENDBRANCH  15  16
ENDBRANCH   1  15
TORSDOF 6
ENDMDL
MODEL 7
REMARK VINA RESULT:      -7.4      1.229      1.670
REMARK  Name = 
REMARK  7 active torsions:
REMARK  status: ('A' for Active; 'I' for Inactive)
REMARK    1  A    between atoms: C_1  and  C_2
REMARK    2  A    between atoms: C_5  and  C_6
REMARK    3  A    between atoms: C_6  and  S_7
REMARK    4  A    between atoms: S_7  and  C_10
REMARK    5  A    between atoms: C_10  and  C_11
REMARK    6  A    between atoms: C_14  and  C_15
REMARK    7  A    between atoms: N_17  and  C_18
REMARK                            x       y       z     vdW  Elec       q    Type
REMARK                         _______ _______ _______ _____ _____    ______ ____
ROOT
ATOM      1  C   UNL     1       6.946   7.186  17.345  0.00  0.00    +0.000 A 
ATOM      2  C   UNL     1       7.777   6.708  18.337  0.00  0.00    +0.000 A 
ATOM      3  C   UNL     1       8.541   7.808  18.780  0.00  0.00    +0.000 A 
ATOM      4  C   UNL     1       8.136   8.907  18.045  0.00  0.00    +0.000 A 
ATOM      5  O   UNL     1       7.155   8.526  17.161  0.00  0.00    +0.000 OA
ENDROOT
BRANCH   4   6
ATOM      6  C   UNL     1       8.581  10.285  18.113  0.00  0.00    +0.000 C 
ATOM      7  O   UNL     1       8.073  11.181  17.444  0.00  0.00    +0.000 OA
ATOM      8  N   UNL     1       9.628  10.521  18.983  0.00  0.00    +0.000 N 
ATOM      9  H   UNL     1       9.928   9.757  19.576  0.00  0.00    +0.000 HD
BRANCH   8  10
ATOM     10  C   UNL     1      10.144  11.855  19.187  0.00  0.00    +0.000 C 
ATOM     11  C   UNL     1       9.921  12.379  20.603  0.00  0.00    +0.000 C 
ATOM     12  C   UNL     1      10.836  13.597  20.663  0.00  0.00    +0.000 C 
ATOM     13  C   UNL     1      12.003  13.284  19.723  0.00  0.00    +0.000 C 
ATOM     14  C   UNL     1      11.658  11.957  19.046  0.00  0.00    +0.000 C 
ENDBRANCH   8  10
ENDBRANCH   4   6
BRANCH   1  15
ATOM     15  C   UNL     1       5.882   6.551  16.538  0.00  0.00    +0.000 C 
BRANCH  15  16
ATOM     16  S   UNL     1       6.136   4.786  16.421  0.00  0.00    +0.000 S 
ATOM     17  O   UNL     1       7.441   4.618  15.797  0.00  0.00    +0.000 OA
ATOM     18  O   UNL     1       4.955   4.196  15.809  0.00  0.00    +0.000 OA
BRANCH  16  19
ATOM     19  C   UNL     1       6.247   4.258  18.128  0.00  0.00    +0.000 C 
BRANCH  19  24
ATOM     20  C   UNL     1       0.887   4.013  20.413  0.00  0.00    +0.000 C 
ATOM     21  C   UNL     1       2.274   4.085  19.846  0.00  0.00    +0.000 A 
ATOM     22  C   UNL     1       2.993   5.284  19.844  0.00  0.00    +0.000 A 
ATOM     23  C   UNL     1       4.282   5.338  19.301  0.00  0.00    +0.000 A 
ATOM     24  C   UNL     1       4.873   4.194  18.746  0.00  0.00    +0.000 A 
ATOM     25  C   UNL     1       4.156   2.991  18.764  0.00  0.00    +0.000 A 
ATOM     26  C   UNL     1       2.868   2.938  19.306  0.00  0.00    +0.000 A 
ENDBRANCH  19  24
ENDBRANCH  16  19
ENDBRANCH  15  16
ENDBRANCH   1  15
TORSDOF 6
ENDMDL
MODEL 8
REMARK VINA RESULT:      -7.4      4.496      7.501
REMARK  Name = 
REMARK  7 active torsions:
REMARK  status: ('A' for Active; 'I' for Inactive)
REMARK    1  A    between atoms: C_1  and  C_2
REMARK    2  A    between atoms: C_5  and  C_6
REMARK    3  A    between atoms: C_6  and  S_7
REMARK    4  A    between atoms: S_7  and  C_10
REMARK    5  A    between atoms: C_10  and  C_11
REMARK    6  A    between atoms: C_14  and  C_15
REMARK    7  A    between atoms: N_17  and  C_18
REMARK                            x       y       z     vdW  Elec       q    Type
REMARK                         _______ _______ _______ _____ _____    ______ ____
ROOT
ATOM      1  C   UNL     1       3.196   5.001  19.871  0.00  0.00    +0.000 A 
ATOM      2  C   UNL     1       2.262   4.924  20.883  0.00  0.00    +0.000 A 
ATOM      3  C   UNL     1       1.589   6.163  20.898  0.00  0.00    +0.000 A 
ATOM      4  C   UNL     1       2.136   6.936  19.891  0.00  0.00    +0.000 A 
ATOM      5  O   UNL     1       3.127   6.223  19.258  0.00  0.00    +0.000 OA
ENDROOT
BRANCH   4   6
ATOM      6  C   UNL     1       1.799   8.280  19.465  0.00  0.00    +0.000 C 
ATOM      7  O   UNL     1       2.252   8.786  18.441  0.00  0.00    +0.000 OA
ATOM      8  N   UNL     1       0.931   8.960  20.298  0.00  0.00    +0.000 N 
ATOM      9  H   UNL     1       0.518   8.446  21.066  0.00  0.00    +0.000 HD
BRANCH   8  10
ATOM     10  C   UNL     1       0.471  10.291  19.974  0.00  0.00    +0.000 C 
ATOM     11  C   UNL     1      -0.858  10.305  19.225  0.00  0.00    +0.000 C 
ATOM     12  C   UNL     1      -1.286  11.765  19.320  0.00  0.00    +0.000 C 
ATOM     13  C   UNL     1      -0.702  12.283  20.637  0.00  0.00    +0.000 C 
ATOM     14  C   UNL     1       0.158  11.148  21.194  0.00  0.00    +0.000 C 
ENDBRANCH   8  10
ENDBRANCH   4   6
BRANCH   1  15
ATOM     15  C   UNL     1       4.161   4.024  19.321  0.00  0.00    +0.000 C 
BRANCH  15  16
ATOM     16  S   UNL     1       3.427   3.080  17.994  0.00  0.00    +0.000 S 
ATOM     17  O   UNL     1       2.075   3.600  17.843  0.00  0.00    +0.000 OA
ATOM     18  O   UNL     1       3.636   1.667  18.272  0.00  0.00    +0.000 OA
BRANCH  16  19
ATOM     19  C   UNL     1       4.383   3.550  16.556  0.00  0.00    +0.000 C 
BRANCH  19  24
ATOM     20  C   UNL     1       8.002   7.962  17.762  0.00  0.00    +0.000 C 
ATOM     21  C   UNL     1       7.073   6.820  17.475  0.00  0.00    +0.000 A 
ATOM     22  C   UNL     1       7.442   5.500  17.750  0.00  0.00    +0.000 A 
ATOM     23  C   UNL     1       6.569   4.445  17.466  0.00  0.00    +0.000 A 
ATOM     24  C   UNL     1       5.311   4.689  16.896  0.00  0.00    +0.000 A 
ATOM     25  C   UNL     1       4.938   6.014  16.636  0.00  0.00    +0.000 A 
ATOM     26  C   UNL     1       5.812   7.068  16.919  0.00  0.00    +0.000 A 
ENDBRANCH  19  24
ENDBRANCH  16  19
ENDBRANCH  15  16
ENDBRANCH   1  15
TORSDOF 6
ENDMDL
MODEL 9
REMARK VINA RESULT:      -7.4      5.910      7.809
REMARK  Name = 
REMARK  7 active torsions:
REMARK  status: ('A' for Active; 'I' for Inactive)
REMARK    1  A    between atoms: C_1  and  C_2
REMARK    2  A    between atoms: C_5  and  C_6
REMARK    3  A    between atoms: C_6  and  S_7
REMARK    4  A    between atoms: S_7  and  C_10
REMARK    5  A    between atoms: C_10  and  C_11
REMARK    6  A    between atoms: C_14  and  C_15
REMARK    7  A    between atoms: N_17  and  C_18
REMARK                            x       y       z     vdW  Elec       q    Type
REMARK                         _______ _______ _______ _____ _____    ______ ____
ROOT
ATOM      1  C   UNL     1       2.650   7.187  19.104  0.00  0.00    +0.000 A 
ATOM      2  C   UNL     1       2.887   7.724  17.856  0.00  0.00    +0.000 A 
ATOM      3  C   UNL     1       2.075   8.874  17.757  0.00  0.00    +0.000 A 
ATOM      4  C   UNL     1       1.387   8.989  18.950  0.00  0.00    +0.000 A 
ATOM      5  O   UNL     1       1.739   7.952  19.780  0.00  0.00    +0.000 OA
ENDROOT
BRANCH   4   6
ATOM      6  C   UNL     1       0.440   9.999  19.381  0.00  0.00    +0.000 C 
ATOM      7  O   UNL     1      -0.276  10.617  18.597  0.00  0.00    +0.000 OA
ATOM      8  N   UNL     1       0.401  10.223  20.745  0.00  0.00    +0.000 N 
ATOM      9  H   UNL     1       0.942   9.606  21.338  0.00  0.00    +0.000 HD
BRANCH   8  10
ATOM     10  C   UNL     1      -0.528  11.167  21.321  0.00  0.00    +0.000 C 
ATOM     11  C   UNL     1      -0.950  10.808  22.743  0.00  0.00    +0.000 C 
ATOM     12  C   UNL     1      -1.611  12.090  23.236  0.00  0.00    +0.000 C 
ATOM     13  C   UNL     1      -0.902  13.231  22.500  0.00  0.00    +0.000 C 
ATOM     14  C   UNL     1       0.050  12.565  21.505  0.00  0.00    +0.000 C 
ENDBRANCH   8  10
ENDBRANCH   4   6
BRANCH   1  15
ATOM     15  C   UNL     1       3.227   6.030  19.823  0.00  0.00    +0.000 C 
BRANCH  15  16
ATOM     16  S   UNL     1       2.237   4.565  19.572  0.00  0.00    +0.000 S 
ATOM     17  O   UNL     1       1.470   4.812  18.360  0.00  0.00    +0.000 OA
ATOM     18  O   UNL     1       1.551   4.261  20.818  0.00  0.00    +0.000 OA
BRANCH  16  19
ATOM     19  C   UNL     1       3.445   3.288  19.232  0.00  0.00    +0.000 C 
BRANCH  19  24
ATOM     20  C   UNL     1       7.214   4.983  15.116  0.00  0.00    +0.000 C 
ATOM     21  C   UNL     1       6.248   4.569  16.186  0.00  0.00    +0.000 A 
ATOM     22  C   UNL     1       6.598   4.622  17.538  0.00  0.00    +0.000 A 
ATOM     23  C   UNL     1       5.689   4.221  18.523  0.00  0.00    +0.000 A 
ATOM     24  C   UNL     1       4.414   3.755  18.174  0.00  0.00    +0.000 A 
ATOM     25  C   UNL     1       4.060   3.718  16.819  0.00  0.00    +0.000 A 
ATOM     26  C   UNL     1       4.969   4.118  15.835  0.00  0.00    +0.000 A 
ENDBRANCH  19  24
ENDBRANCH  16  19
ENDBRANCH  15  16
ENDBRANCH   1  15
TORSDOF 6
ENDMDL
