MODEL 1
REMARK VINA RESULT:      -9.0      0.000      0.000
REMARK  Name = 
REMARK  9 active torsions:
REMARK  status: ('A' for Active; 'I' for Inactive)
REMARK    1  A    between atoms: C_1  and  N_2
REMARK    2  A    between atoms: N_2  and  C_3
REMARK    3  A    between atoms: N_2  and  C_4
REMARK    4  A    between atoms: C_7  and  C_8
REMARK    5  A    between atoms: C_8  and  C_9
REMARK    6  A    between atoms: C_8  and  C_21
REMARK    7  A    between atoms: C_9  and  N_10
REMARK    8  A    between atoms: N_10  and  S_11
REMARK    9  A    between atoms: S_11  and  C_14
REMARK                            x       y       z     vdW  Elec       q    Type
REMARK                         _______ _______ _______ _____ _____    ______ ____
ROOT
ATOM      1  C   UNL     1       3.281   6.517  17.873  0.00  0.00    +0.000 C 
ENDROOT
BRANCH   1   2
ATOM      2  C   UNL     1       2.634   5.190  18.240  0.00  0.00    +0.000 A 
ATOM      3  C   UNL     1       2.212   4.243  17.321  0.00  0.00    +0.000 A 
ATOM      4  N   UNL     1       1.097   3.669  17.873  0.00  0.00    +0.000 N 
ATOM      5  C   UNL     1       1.418   3.487  19.198  0.00  0.00    +0.000 A 
ATOM      6  C   UNL     1       0.890   2.569  20.115  0.00  0.00    +0.000 A 
ATOM      7  C   UNL     1       1.357   2.628  21.421  0.00  0.00    +0.000 A 
ATOM      8  C   UNL     1       2.230   3.645  21.803  0.00  0.00    +0.000 A 
ATOM      9  C   UNL     1       2.678   4.623  20.879  0.00  0.00    +0.000 A 
ATOM     10  C   UNL     1       2.318   4.516  19.517  0.00  0.00    +0.000 A 
ATOM     11  H   UNL     1       0.164   3.979  17.635  0.00  0.00    +0.000 HD
ENDBRANCH   1   2
BRANCH   1  15
ATOM     12  C   UNL     1       0.599   9.635  19.570  0.00  0.00    +0.000 A 
ATOM     13  C   UNL     1       1.258   8.664  20.341  0.00  0.00    +0.000 A 
ATOM     14  C   UNL     1       2.163   7.721  19.802  0.00  0.00    +0.000 A 
ATOM     15  C   UNL     1       2.470   7.695  18.440  0.00  0.00    +0.000 A 
ATOM     16  C   UNL     1       1.840   8.676  17.655  0.00  0.00    +0.000 A 
ATOM     17  C   UNL     1       0.932   9.620  18.209  0.00  0.00    +0.000 A 
BRANCH  12  19
ATOM     18  C   UNL     1      -0.452  10.656  21.577  0.00  0.00    +0.000 C 
ATOM     19  N   UNL     1      -0.319  10.524  20.127  0.00  0.00    +0.000 N 
ATOM     20  C   UNL     1      -1.226  11.329  19.312  0.00  0.00    +0.000 C 
ENDBRANCH  12  19
ENDBRANCH   1  15
BRANCH   1  21
ATOM     21  C   UNL     1       4.770   6.632  18.384  0.00  0.00    +0.000 C 
BRANCH  21  22
ATOM     22  N   UNL     1       5.535   5.355  18.356  0.00  0.00    +0.000 NA
ATOM     23  H   UNL     1       5.018   4.512  18.107  0.00  0.00    +0.000 HD
BRANCH  22  24
ATOM     24  S   UNL     1       7.034   5.364  17.560  0.00  0.00    +0.000 S 
ATOM     25  O   UNL     1       7.407   6.755  17.432  0.00  0.00    +0.000 OA
ATOM     26  O   UNL     1       7.896   4.405  18.213  0.00  0.00    +0.000 OA
BRANCH  24  27
ATOM     27  C   UNL     1       6.673   4.778  15.918  0.00  0.00    +0.000 A 
ATOM     28  C   UNL     1       5.551   3.964  15.712  0.00  0.00    +0.000 A 
ATOM     29  C   UNL     1       5.256   3.509  14.424  0.00  0.00    +0.000 A 
ATOM     30  C   UNL     1       6.068   3.885  13.356  0.00  0.00    +0.000 A 
ATOM     31  F   UNL     1       5.788   3.434  12.126  0.00  0.00    +0.000 F 
ATOM     32  C   UNL     1       7.156   4.732  13.547  0.00  0.00    +0.000 A 
ATOM     33  C   UNL     1       7.460   5.189  14.833  0.00  0.00    +0.000 A 
ENDBRANCH  24  27
ENDBRANCH  22  24
ENDBRANCH  21  22
ENDBRANCH   1  21
TORSDOF 7
ENDMDL
MODEL 2
REMARK VINA RESULT:      -8.9      0.542      1.083
REMARK  Name = 
REMARK  9 active torsions:
REMARK  status: ('A' for Active; 'I' for Inactive)
REMARK    1  A    between atoms: C_1  and  N_2
REMARK    2  A    between atoms: N_2  and  C_3
REMARK    3  A    between atoms: N_2  and  C_4
REMARK    4  A    between atoms: C_7  and  C_8
REMARK    5  A    between atoms: C_8  and  C_9
REMARK    6  A    between atoms: C_8  and  C_21
REMARK    7  A    between atoms: C_9  and  N_10
REMARK    8  A    between atoms: N_10  and  S_11
REMARK    9  A    between atoms: S_11  and  C_14
REMARK                            x       y       z     vdW  Elec       q    Type
REMARK                         _______ _______ _______ _____ _____    ______ ____
ROOT
ATOM      1  C   UNL     1       3.203   6.449  17.874  0.00  0.00    +0.000 C 
ENDROOT
BRANCH   1   2
ATOM      2  C   UNL     1       2.637   5.087  18.245  0.00  0.00    +0.000 A 
ATOM      3  C   UNL     1       2.306   4.100  17.330  0.00  0.00    +0.000 A 
ATOM      4  N   UNL     1       1.217   3.459  17.861  0.00  0.00    +0.000 N 
ATOM      5  C   UNL     1       1.513   3.318  19.198  0.00  0.00    +0.000 A 
ATOM      6  C   UNL     1       1.023   2.381  20.115  0.00  0.00    +0.000 A 
ATOM      7  C   UNL     1       1.448   2.490  21.432  0.00  0.00    +0.000 A 
ATOM      8  C   UNL     1       2.239   3.569  21.821  0.00  0.00    +0.000 A 
ATOM      9  C   UNL     1       2.645   4.563  20.893  0.00  0.00    +0.000 A 
ATOM     10  C   UNL     1       2.332   4.412  19.524  0.00  0.00    +0.000 A 
ATOM     11  H   UNL     1       0.272   3.702  17.594  0.00  0.00    +0.000 HD
ENDBRANCH   1   2
BRANCH   1  15
ATOM     12  C   UNL     1       1.040   9.969  19.525  0.00  0.00    +0.000 A 
ATOM     13  C   UNL     1       1.406   9.836  18.176  0.00  0.00    +0.000 A 
ATOM     14  C   UNL     1       2.030   8.684  17.646  0.00  0.00    +0.000 A 
ATOM     15  C   UNL     1       2.327   7.578  18.446  0.00  0.00    +0.000 A 
ATOM     16  C   UNL     1       1.945   7.681  19.794  0.00  0.00    +0.000 A 
ATOM     17  C   UNL     1       1.315   8.845  20.315  0.00  0.00    +0.000 A 
BRANCH  12  19
ATOM     18  C   UNL     1       0.984  12.450  19.654  0.00  0.00    +0.000 C 
ATOM     19  N   UNL     1       0.461  11.136  20.023  0.00  0.00    +0.000 N 
ATOM     20  C   UNL     1      -0.652  11.117  20.970  0.00  0.00    +0.000 C 
ENDBRANCH  12  19
ENDBRANCH   1  15
BRANCH   1  21
ATOM     21  C   UNL     1       4.686   6.652  18.375  0.00  0.00    +0.000 C 
BRANCH  21  22
ATOM     22  N   UNL     1       5.490   5.401  18.451  0.00  0.00    +0.000 NA
ATOM     23  H   UNL     1       5.006   4.527  18.246  0.00  0.00    +0.000 HD
BRANCH  22  24
ATOM     24  S   UNL     1       7.009   5.407  17.696  0.00  0.00    +0.000 S 
ATOM     25  O   UNL     1       7.392   6.797  17.584  0.00  0.00    +0.000 OA
ATOM     26  O   UNL     1       7.850   4.441  18.367  0.00  0.00    +0.000 OA
BRANCH  24  27
ATOM     27  C   UNL     1       6.689   4.829  16.042  0.00  0.00    +0.000 A 
ATOM     28  C   UNL     1       5.569   4.023  15.802  0.00  0.00    +0.000 A 
ATOM     29  C   UNL     1       5.306   3.575  14.505  0.00  0.00    +0.000 A 
ATOM     30  C   UNL     1       6.149   3.951  13.461  0.00  0.00    +0.000 A 
ATOM     31  F   UNL     1       5.901   3.507  12.222  0.00  0.00    +0.000 F 
ATOM     32  C   UNL     1       7.237   4.791  13.685  0.00  0.00    +0.000 A 
ATOM     33  C   UNL     1       7.508   5.240  14.980  0.00  0.00    +0.000 A 
ENDBRANCH  24  27
ENDBRANCH  22  24
ENDBRANCH  21  22
ENDBRANCH   1  21
TORSDOF 7
ENDMDL
MODEL 3
REMARK VINA RESULT:      -8.8      1.326      1.747
REMARK  Name = 
REMARK  9 active torsions:
REMARK  status: ('A' for Active; 'I' for Inactive)
REMARK    1  A    between atoms: C_1  and  N_2
REMARK    2  A    between atoms: N_2  and  C_3
REMARK    3  A    between atoms: N_2  and  C_4
REMARK    4  A    between atoms: C_7  and  C_8
REMARK    5  A    between atoms: C_8  and  C_9
REMARK    6  A    between atoms: C_8  and  C_21
REMARK    7  A    between atoms: C_9  and  N_10
REMARK    8  A    between atoms: N_10  and  S_11
REMARK    9  A    between atoms: S_11  and  C_14
REMARK                            x       y       z     vdW  Elec       q    Type
REMARK                         _______ _______ _______ _____ _____    ______ ____
ROOT
ATOM      1  C   UNL     1       3.325   6.588  17.866  0.00  0.00    +0.000 C 
ENDROOT
BRANCH   1   2
ATOM      2  C   UNL     1       3.550   5.496  18.901  0.00  0.00    +0.000 A 
ATOM      3  C   UNL     1       4.771   5.219  19.496  0.00  0.00    +0.000 A 
ATOM      4  N   UNL     1       4.783   3.863  19.691  0.00  0.00    +0.000 N 
ATOM      5  C   UNL     1       3.522   3.566  20.154  0.00  0.00    +0.000 A 
ATOM      6  C   UNL     1       3.101   2.478  20.929  0.00  0.00    +0.000 A 
ATOM      7  C   UNL     1       1.746   2.384  21.221  0.00  0.00    +0.000 A 
ATOM      8  C   UNL     1       0.849   3.287  20.654  0.00  0.00    +0.000 A 
ATOM      9  C   UNL     1       1.287   4.326  19.792  0.00  0.00    +0.000 A 
ATOM     10  C   UNL     1       2.669   4.521  19.577  0.00  0.00    +0.000 A 
ATOM     11  H   UNL     1       5.221   3.233  19.032  0.00  0.00    +0.000 HD
ENDBRANCH   1   2
BRANCH   1  15
ATOM     12  C   UNL     1       0.615   9.646  19.626  0.00  0.00    +0.000 A 
ATOM     13  C   UNL     1       1.243   8.633  20.370  0.00  0.00    +0.000 A 
ATOM     14  C   UNL     1       2.157   7.709  19.815  0.00  0.00    +0.000 A 
ATOM     15  C   UNL     1       2.506   7.746  18.463  0.00  0.00    +0.000 A 
ATOM     16  C   UNL     1       1.909   8.769  17.707  0.00  0.00    +0.000 A 
ATOM     17  C   UNL     1       0.992   9.694  18.277  0.00  0.00    +0.000 A 
BRANCH  12  19
ATOM     18  C   UNL     1      -1.168  11.355  19.360  0.00  0.00    +0.000 C 
ATOM     19  N   UNL     1      -0.312  10.517  20.197  0.00  0.00    +0.000 N 
ATOM     20  C   UNL     1      -0.449  10.681  21.642  0.00  0.00    +0.000 C 
ENDBRANCH  12  19
ENDBRANCH   1  15
BRANCH   1  21
ATOM     21  C   UNL     1       4.674   7.167  17.285  0.00  0.00    +0.000 C 
BRANCH  21  22
ATOM     22  N   UNL     1       5.145   6.504  16.038  0.00  0.00    +0.000 NA
ATOM     23  H   UNL     1       5.140   7.065  15.186  0.00  0.00    +0.000 HD
BRANCH  22  24
ATOM     24  S   UNL     1       6.585   5.611  16.128  0.00  0.00    +0.000 S 
ATOM     25  O   UNL     1       7.646   6.582  16.281  0.00  0.00    +0.000 OA
ATOM     26  O   UNL     1       6.394   4.542  17.082  0.00  0.00    +0.000 OA
BRANCH  24  27
ATOM     27  C   UNL     1       6.773   4.899  14.506  0.00  0.00    +0.000 A 
ATOM     28  C   UNL     1       5.915   3.866  14.107  0.00  0.00    +0.000 A 
ATOM     29  C   UNL     1       6.050   3.310  12.833  0.00  0.00    +0.000 A 
ATOM     30  C   UNL     1       7.023   3.802  11.965  0.00  0.00    +0.000 A 
ATOM     31  F   UNL     1       7.157   3.256  10.749  0.00  0.00    +0.000 F 
ATOM     32  C   UNL     1       7.846   4.861  12.337  0.00  0.00    +0.000 A 
ATOM     33  C   UNL     1       7.719   5.420  13.613  0.00  0.00    +0.000 A 
ENDBRANCH  24  27
ENDBRANCH  22  24
ENDBRANCH  21  22
ENDBRANCH   1  21
TORSDOF 7
ENDMDL
MODEL 4
REMARK VINA RESULT:      -8.7      1.388      1.885
REMARK  Name = 
REMARK  9 active torsions:
REMARK  status: ('A' for Active; 'I' for Inactive)
REMARK    1  A    between atoms: C_1  and  N_2
REMARK    2  A    between atoms: N_2  and  C_3
REMARK    3  A    between atoms: N_2  and  C_4
REMARK    4  A    between atoms: C_7  and  C_8
REMARK    5  A    between atoms: C_8  and  C_9
REMARK    6  A    between atoms: C_8  and  C_21
REMARK    7  A    between atoms: C_9  and  N_10
REMARK    8  A    between atoms: N_10  and  S_11
REMARK    9  A    between atoms: S_11  and  C_14
REMARK                            x       y       z     vdW  Elec       q    Type
REMARK                         _______ _______ _______ _____ _____    ______ ____
ROOT
ATOM      1  C   UNL     1       3.253   6.419  17.925  0.00  0.00    +0.000 C 
ENDROOT
BRANCH   1   2
ATOM      2  C   UNL     1       3.520   5.353  18.976  0.00  0.00    +0.000 A 
ATOM      3  C   UNL     1       4.761   5.101  19.539  0.00  0.00    +0.000 A 
ATOM      4  N   UNL     1       4.792   3.750  19.765  0.00  0.00    +0.000 N 
ATOM      5  C   UNL     1       3.549   3.453  20.274  0.00  0.00    +0.000 A 
ATOM      6  C   UNL     1       3.163   2.379  21.087  0.00  0.00    +0.000 A 
ATOM      7  C   UNL     1       1.819   2.281  21.423  0.00  0.00    +0.000 A 
ATOM      8  C   UNL     1       0.896   3.163  20.865  0.00  0.00    +0.000 A 
ATOM      9  C   UNL     1       1.297   4.185  19.966  0.00  0.00    +0.000 A 
ATOM     10  C   UNL     1       2.670   4.387  19.702  0.00  0.00    +0.000 A 
ATOM     11  H   UNL     1       5.216   3.108  19.107  0.00  0.00    +0.000 HD
ENDBRANCH   1   2
BRANCH   1  15
ATOM     12  C   UNL     1       1.029   9.911  19.555  0.00  0.00    +0.000 A 
ATOM     13  C   UNL     1       1.376   9.764  18.201  0.00  0.00    +0.000 A 
ATOM     14  C   UNL     1       2.020   8.619  17.680  0.00  0.00    +0.000 A 
ATOM     15  C   UNL     1       2.359   7.535  18.493  0.00  0.00    +0.000 A 
ATOM     16  C   UNL     1       1.997   7.651  19.846  0.00  0.00    +0.000 A 
ATOM     17  C   UNL     1       1.347   8.807  20.358  0.00  0.00    +0.000 A 
BRANCH  12  19
ATOM     18  C   UNL     1      -0.652  11.001  21.024  0.00  0.00    +0.000 C 
ATOM     19  N   UNL     1       0.430  11.071  20.044  0.00  0.00    +0.000 N 
ATOM     20  C   UNL     1       0.803  12.404  19.576  0.00  0.00    +0.000 C 
ENDBRANCH  12  19
ENDBRANCH   1  15
BRANCH   1  21
ATOM     21  C   UNL     1       4.578   7.066  17.360  0.00  0.00    +0.000 C 
BRANCH  21  22
ATOM     22  N   UNL     1       5.079   6.450  16.101  0.00  0.00    +0.000 NA
ATOM     23  H   UNL     1       5.054   7.029  15.261  0.00  0.00    +0.000 HD
BRANCH  22  24
ATOM     24  S   UNL     1       6.555   5.615  16.178  0.00  0.00    +0.000 S 
ATOM     25  O   UNL     1       7.577   6.628  16.316  0.00  0.00    +0.000 OA
ATOM     26  O   UNL     1       6.416   4.543  17.139  0.00  0.00    +0.000 OA
BRANCH  24  27
ATOM     27  C   UNL     1       6.753   4.904  14.558  0.00  0.00    +0.000 A 
ATOM     28  C   UNL     1       5.911   3.857  14.161  0.00  0.00    +0.000 A 
ATOM     29  C   UNL     1       6.054   3.301  12.887  0.00  0.00    +0.000 A 
ATOM     30  C   UNL     1       7.018   3.808  12.018  0.00  0.00    +0.000 A 
ATOM     31  F   UNL     1       7.160   3.263  10.802  0.00  0.00    +0.000 F 
ATOM     32  C   UNL     1       7.825   4.880  12.388  0.00  0.00    +0.000 A 
ATOM     33  C   UNL     1       7.690   5.439  13.663  0.00  0.00    +0.000 A 
ENDBRANCH  24  27
ENDBRANCH  22  24
ENDBRANCH  21  22
ENDBRANCH   1  21
TORSDOF 7
ENDMDL
MODEL 5
REMARK VINA RESULT:      -8.6      0.767      1.435
REMARK  Name = 
REMARK  9 active torsions:
REMARK  status: ('A' for Active; 'I' for Inactive)
REMARK    1  A    between atoms: C_1  and  N_2
REMARK    2  A    between atoms: N_2  and  C_3
REMARK    3  A    between atoms: N_2  and  C_4
REMARK    4  A    between atoms: C_7  and  C_8
REMARK    5  A    between atoms: C_8  and  C_9
REMARK    6  A    between atoms: C_8  and  C_21
REMARK    7  A    between atoms: C_9  and  N_10
REMARK    8  A    between atoms: N_10  and  S_11
REMARK    9  A    between atoms: S_11  and  C_14
REMARK                            x       y       z     vdW  Elec       q    Type
REMARK                         _______ _______ _______ _____ _____    ______ ____
ROOT
ATOM      1  C   UNL     1       3.018   6.471  17.800  0.00  0.00    +0.000 C 
ENDROOT
BRANCH   1   2
ATOM      2  C   UNL     1       2.510   5.098  18.215  0.00  0.00    +0.000 A 
ATOM      3  C   UNL     1       2.187   4.082  17.329  0.00  0.00    +0.000 A 
ATOM      4  N   UNL     1       1.137   3.416  17.906  0.00  0.00    +0.000 N 
ATOM      5  C   UNL     1       1.477   3.313  19.235  0.00  0.00    +0.000 A 
ATOM      6  C   UNL     1       1.047   2.378  20.186  0.00  0.00    +0.000 A 
ATOM      7  C   UNL     1       1.507   2.529  21.487  0.00  0.00    +0.000 A 
ATOM      8  C   UNL     1       2.271   3.643  21.830  0.00  0.00    +0.000 A 
ATOM      9  C   UNL     1       2.616   4.630  20.871  0.00  0.00    +0.000 A 
ATOM     10  C   UNL     1       2.267   4.440  19.515  0.00  0.00    +0.000 A 
ATOM     11  H   UNL     1       0.177   3.621  17.663  0.00  0.00    +0.000 HD
ENDBRANCH   1   2
BRANCH   1  15
ATOM     12  C   UNL     1       0.970   9.948  19.674  0.00  0.00    +0.000 A 
ATOM     13  C   UNL     1       1.219   9.834  18.297  0.00  0.00    +0.000 A 
ATOM     14  C   UNL     1       1.807   8.695  17.701  0.00  0.00    +0.000 A 
ATOM     15  C   UNL     1       2.184   7.583  18.459  0.00  0.00    +0.000 A 
ATOM     16  C   UNL     1       1.919   7.667  19.836  0.00  0.00    +0.000 A 
ATOM     17  C   UNL     1       1.325   8.818  20.424  0.00  0.00    +0.000 A 
BRANCH  12  19
ATOM     18  C   UNL     1      -0.561  11.021  21.310  0.00  0.00    +0.000 C 
ATOM     19  N   UNL     1       0.425  11.102  20.235  0.00  0.00    +0.000 N 
ATOM     20  C   UNL     1       0.761  12.441  19.756  0.00  0.00    +0.000 C 
ENDBRANCH  12  19
ENDBRANCH   1  15
BRANCH   1  21
ATOM     21  C   UNL     1       4.539   6.695  18.159  0.00  0.00    +0.000 C 
BRANCH  21  22
ATOM     22  N   UNL     1       5.412   6.991  16.991  0.00  0.00    +0.000 NA
ATOM     23  H   UNL     1       5.644   7.970  16.823  0.00  0.00    +0.000 HD
BRANCH  22  24
ATOM     24  S   UNL     1       6.799   6.033  16.794  0.00  0.00    +0.000 S 
ATOM     25  O   UNL     1       7.884   6.952  16.532  0.00  0.00    +0.000 OA
ATOM     26  O   UNL     1       6.854   5.089  17.889  0.00  0.00    +0.000 OA
BRANCH  24  27
ATOM     27  C   UNL     1       6.512   5.134  15.284  0.00  0.00    +0.000 A 
ATOM     28  C   UNL     1       7.456   5.212  14.250  0.00  0.00    +0.000 A 
ATOM     29  C   UNL     1       7.242   4.501  13.066  0.00  0.00    +0.000 A 
ATOM     30  C   UNL     1       6.104   3.708  12.934  0.00  0.00    +0.000 A 
ATOM     31  F   UNL     1       5.897   3.040  11.791  0.00  0.00    +0.000 F 
ATOM     32  C   UNL     1       5.188   3.589  13.974  0.00  0.00    +0.000 A 
ATOM     33  C   UNL     1       5.393   4.300  15.161  0.00  0.00    +0.000 A 
ENDBRANCH  24  27
ENDBRANCH  22  24
ENDBRANCH  21  22
ENDBRANCH   1  21
TORSDOF 7
ENDMDL
MODEL 6
REMARK VINA RESULT:      -8.6      1.397      2.126
REMARK  Name = 
REMARK  9 active torsions:
REMARK  status: ('A' for Active; 'I' for Inactive)
REMARK    1  A    between atoms: C_1  and  N_2
REMARK    2  A    between atoms: N_2  and  C_3
REMARK    3  A    between atoms: N_2  and  C_4
REMARK    4  A    between atoms: C_7  and  C_8
REMARK    5  A    between atoms: C_8  and  C_9
REMARK    6  A    between atoms: C_8  and  C_21
REMARK    7  A    between atoms: C_9  and  N_10
REMARK    8  A    between atoms: N_10  and  S_11
REMARK    9  A    between atoms: S_11  and  C_14
REMARK                            x       y       z     vdW  Elec       q    Type
REMARK                         _______ _______ _______ _____ _____    ______ ____
ROOT
ATOM      1  C   UNL     1       3.142   6.537  17.891  0.00  0.00    +0.000 C 
ENDROOT
BRANCH   1   2
ATOM      2  C   UNL     1       3.408   5.469  18.940  0.00  0.00    +0.000 A 
ATOM      3  C   UNL     1       4.639   5.247  19.537  0.00  0.00    +0.000 A 
ATOM      4  N   UNL     1       4.702   3.895  19.752  0.00  0.00    +0.000 N 
ATOM      5  C   UNL     1       3.454   3.558  20.222  0.00  0.00    +0.000 A 
ATOM      6  C   UNL     1       3.075   2.466  21.013  0.00  0.00    +0.000 A 
ATOM      7  C   UNL     1       1.725   2.327  21.308  0.00  0.00    +0.000 A 
ATOM      8  C   UNL     1       0.794   3.187  20.730  0.00  0.00    +0.000 A 
ATOM      9  C   UNL     1       1.192   4.229  19.853  0.00  0.00    +0.000 A 
ATOM     10  C   UNL     1       2.566   4.472  19.632  0.00  0.00    +0.000 A 
ATOM     11  H   UNL     1       5.164   3.272  19.102  0.00  0.00    +0.000 HD
ENDBRANCH   1   2
BRANCH   1  15
ATOM     12  C   UNL     1       1.030  10.068  19.584  0.00  0.00    +0.000 A 
ATOM     13  C   UNL     1       1.417   9.957  18.238  0.00  0.00    +0.000 A 
ATOM     14  C   UNL     1       2.024   8.803  17.694  0.00  0.00    +0.000 A 
ATOM     15  C   UNL     1       2.282   7.673  18.473  0.00  0.00    +0.000 A 
ATOM     16  C   UNL     1       1.879   7.755  19.816  0.00  0.00    +0.000 A 
ATOM     17  C   UNL     1       1.266   8.920  20.353  0.00  0.00    +0.000 A 
BRANCH  12  19
ATOM     18  C   UNL     1       1.089  12.537  19.853  0.00  0.00    +0.000 C 
ATOM     19  N   UNL     1       0.470  11.236  20.099  0.00  0.00    +0.000 N 
ATOM     20  C   UNL     1      -0.722  11.228  20.944  0.00  0.00    +0.000 C 
ENDBRANCH  12  19
ENDBRANCH   1  15
BRANCH   1  21
ATOM     21  C   UNL     1       4.468   7.156  17.297  0.00  0.00    +0.000 C 
BRANCH  21  22
ATOM     22  N   UNL     1       4.959   6.492  16.059  0.00  0.00    +0.000 NA
ATOM     23  H   UNL     1       4.959   7.049  15.204  0.00  0.00    +0.000 HD
BRANCH  22  24
ATOM     24  S   UNL     1       6.407   5.613  16.170  0.00  0.00    +0.000 S 
ATOM     25  O   UNL     1       7.451   6.593  16.375  0.00  0.00    +0.000 OA
ATOM     26  O   UNL     1       6.201   4.520  17.093  0.00  0.00    +0.000 OA
BRANCH  24  27
ATOM     27  C   UNL     1       6.650   4.942  14.538  0.00  0.00    +0.000 A 
ATOM     28  C   UNL     1       7.690   5.437  13.741  0.00  0.00    +0.000 A 
ATOM     29  C   UNL     1       7.892   4.908  12.464  0.00  0.00    +0.000 A 
ATOM     30  C   UNL     1       7.071   3.880  12.005  0.00  0.00    +0.000 A 
ATOM     31  F   UNL     1       7.261   3.385  10.775  0.00  0.00    +0.000 F 
ATOM     32  C   UNL     1       6.067   3.350  12.811  0.00  0.00    +0.000 A 
ATOM     33  C   UNL     1       5.856   3.878  14.088  0.00  0.00    +0.000 A 
ENDBRANCH  24  27
ENDBRANCH  22  24
ENDBRANCH  21  22
ENDBRANCH   1  21
TORSDOF 7
ENDMDL
MODEL 7
REMARK VINA RESULT:      -8.6      1.434      2.081
REMARK  Name = 
REMARK  9 active torsions:
REMARK  status: ('A' for Active; 'I' for Inactive)
REMARK    1  A    between atoms: C_1  and  N_2
REMARK    2  A    between atoms: N_2  and  C_3
REMARK    3  A    between atoms: N_2  and  C_4
REMARK    4  A    between atoms: C_7  and  C_8
REMARK    5  A    between atoms: C_8  and  C_9
REMARK    6  A    between atoms: C_8  and  C_21
REMARK    7  A    between atoms: C_9  and  N_10
REMARK    8  A    between atoms: N_10  and  S_11
REMARK    9  A    between atoms: S_11  and  C_14
REMARK                            x       y       z     vdW  Elec       q    Type
REMARK                         _______ _______ _______ _____ _____    ______ ____
ROOT
ATOM      1  C   UNL     1       3.193   6.878  17.638  0.00  0.00    +0.000 C 
ENDROOT
BRANCH   1   2
ATOM      2  C   UNL     1       3.282   5.650  18.531  0.00  0.00    +0.000 A 
ATOM      3  C   UNL     1       4.205   5.489  19.552  0.00  0.00    +0.000 A 
ATOM      4  N   UNL     1       4.500   4.151  19.571  0.00  0.00    +0.000 N 
ATOM      5  C   UNL     1       3.286   3.524  19.412  0.00  0.00    +0.000 A 
ATOM      6  C   UNL     1       2.903   2.232  19.798  0.00  0.00    +0.000 A 
ATOM      7  C   UNL     1       1.619   1.820  19.470  0.00  0.00    +0.000 A 
ATOM      8  C   UNL     1       0.805   2.636  18.687  0.00  0.00    +0.000 A 
ATOM      9  C   UNL     1       1.248   3.902  18.225  0.00  0.00    +0.000 A 
ATOM     10  C   UNL     1       2.501   4.400  18.645  0.00  0.00    +0.000 A 
ATOM     11  H   UNL     1       5.309   3.776  19.092  0.00  0.00    +0.000 HD
ENDBRANCH   1   2
BRANCH   1  15
ATOM     12  C   UNL     1       0.699   9.961  19.655  0.00  0.00    +0.000 A 
ATOM     13  C   UNL     1       1.072   8.743  20.248  0.00  0.00    +0.000 A 
ATOM     14  C   UNL     1       1.922   7.801  19.627  0.00  0.00    +0.000 A 
ATOM     15  C   UNL     1       2.461   8.024  18.358  0.00  0.00    +0.000 A 
ATOM     16  C   UNL     1       2.121   9.249  17.759  0.00  0.00    +0.000 A 
ATOM     17  C   UNL     1       1.266  10.190  18.395  0.00  0.00    +0.000 A 
BRANCH  12  19
ATOM     18  C   UNL     1      -1.385  11.313  19.604  0.00  0.00    +0.000 C 
ATOM     19  N   UNL     1      -0.174  10.851  20.280  0.00  0.00    +0.000 N 
ATOM     20  C   UNL     1       0.088  11.408  21.605  0.00  0.00    +0.000 C 
ENDBRANCH  12  19
ENDBRANCH   1  15
BRANCH   1  21
ATOM     21  C   UNL     1       4.608   7.395  17.166  0.00  0.00    +0.000 C 
BRANCH  21  22
ATOM     22  N   UNL     1       5.126   6.739  15.934  0.00  0.00    +0.000 NA
ATOM     23  H   UNL     1       5.265   7.333  15.117  0.00  0.00    +0.000 HD
BRANCH  22  24
ATOM     24  S   UNL     1       6.448   5.689  16.110  0.00  0.00    +0.000 S 
ATOM     25  O   UNL     1       7.601   6.535  16.323  0.00  0.00    +0.000 OA
ATOM     26  O   UNL     1       6.082   4.657  17.054  0.00  0.00    +0.000 OA
BRANCH  24  27
ATOM     27  C   UNL     1       6.648   4.946  14.504  0.00  0.00    +0.000 A 
ATOM     28  C   UNL     1       7.686   5.383  13.671  0.00  0.00    +0.000 A 
ATOM     29  C   UNL     1       7.854   4.798  12.413  0.00  0.00    +0.000 A 
ATOM     30  C   UNL     1       7.001   3.772  12.010  0.00  0.00    +0.000 A 
ATOM     31  F   UNL     1       7.159   3.224  10.798  0.00  0.00    +0.000 F 
ATOM     32  C   UNL     1       5.998   3.301  12.852  0.00  0.00    +0.000 A 
ATOM     33  C   UNL     1       5.821   3.884  14.111  0.00  0.00    +0.000 A 
ENDBRANCH  24  27
ENDBRANCH  22  24
ENDBRANCH  21  22
ENDBRANCH   1  21
TORSDOF 7
ENDMDL
MODEL 8
REMARK VINA RESULT:      -8.5      0.972      1.624
REMARK  Name = 
REMARK  9 active torsions:
REMARK  status: ('A' for Active; 'I' for Inactive)
REMARK    1  A    between atoms: C_1  and  N_2
REMARK    2  A    between atoms: N_2  and  C_3
REMARK    3  A    between atoms: N_2  and  C_4
REMARK    4  A    between atoms: C_7  and  C_8
REMARK    5  A    between atoms: C_8  and  C_9
REMARK    6  A    between atoms: C_8  and  C_21
REMARK    7  A    between atoms: C_9  and  N_10
REMARK    8  A    between atoms: N_10  and  S_11
REMARK    9  A    between atoms: S_11  and  C_14
REMARK                            x       y       z     vdW  Elec       q    Type
REMARK                         _______ _______ _______ _____ _____    ______ ____
ROOT
ATOM      1  C   UNL     1       2.873   6.459  17.697  0.00  0.00    +0.000 C 
ENDROOT
BRANCH   1   2
ATOM      2  C   UNL     1       2.394   5.094  18.167  0.00  0.00    +0.000 A 
ATOM      3  C   UNL     1       2.084   4.040  17.322  0.00  0.00    +0.000 A 
ATOM      4  N   UNL     1       1.051   3.376  17.931  0.00  0.00    +0.000 N 
ATOM      5  C   UNL     1       1.402   3.329  19.260  0.00  0.00    +0.000 A 
ATOM      6  C   UNL     1       0.996   2.422  20.248  0.00  0.00    +0.000 A 
ATOM      7  C   UNL     1       1.461   2.630  21.539  0.00  0.00    +0.000 A 
ATOM      8  C   UNL     1       2.206   3.770  21.835  0.00  0.00    +0.000 A 
ATOM      9  C   UNL     1       2.526   4.727  20.837  0.00  0.00    +0.000 A 
ATOM     10  C   UNL     1       2.172   4.480  19.492  0.00  0.00    +0.000 A 
ATOM     11  H   UNL     1       0.085   3.554  17.687  0.00  0.00    +0.000 HD
ENDBRANCH   1   2
BRANCH   1  15
ATOM     12  C   UNL     1       1.007   9.956  19.718  0.00  0.00    +0.000 A 
ATOM     13  C   UNL     1       1.210   9.869  18.331  0.00  0.00    +0.000 A 
ATOM     14  C   UNL     1       1.739   8.725  17.691  0.00  0.00    +0.000 A 
ATOM     15  C   UNL     1       2.099   7.583  18.409  0.00  0.00    +0.000 A 
ATOM     16  C   UNL     1       1.879   7.641  19.796  0.00  0.00    +0.000 A 
ATOM     17  C   UNL     1       1.344   8.797  20.429  0.00  0.00    +0.000 A 
BRANCH  12  19
ATOM     18  C   UNL     1       0.018  11.091  21.696  0.00  0.00    +0.000 C 
ATOM     19  N   UNL     1       0.520  11.115  20.323  0.00  0.00    +0.000 N 
ATOM     20  C   UNL     1       0.434  12.391  19.618  0.00  0.00    +0.000 C 
ENDBRANCH  12  19
ENDBRANCH   1  15
BRANCH   1  21
ATOM     21  C   UNL     1       4.418   6.679  17.932  0.00  0.00    +0.000 C 
BRANCH  21  22
ATOM     22  N   UNL     1       4.963   6.003  19.141  0.00  0.00    +0.000 NA
ATOM     23  H   UNL     1       4.294   5.744  19.867  0.00  0.00    +0.000 HD
BRANCH  22  24
ATOM     24  S   UNL     1       6.061   4.733  18.893  0.00  0.00    +0.000 S 
ATOM     25  O   UNL     1       7.333   5.205  19.393  0.00  0.00    +0.000 OA
ATOM     26  O   UNL     1       5.459   3.514  19.385  0.00  0.00    +0.000 OA
BRANCH  24  27
ATOM     27  C   UNL     1       6.218   4.616  17.123  0.00  0.00    +0.000 A 
ATOM     28  C   UNL     1       7.252   5.309  16.479  0.00  0.00    +0.000 A 
ATOM     29  C   UNL     1       7.387   5.213  15.092  0.00  0.00    +0.000 A 
ATOM     30  C   UNL     1       6.506   4.413  14.367  0.00  0.00    +0.000 A 
ATOM     31  F   UNL     1       6.632   4.336  13.035  0.00  0.00    +0.000 F 
ATOM     32  C   UNL     1       5.508   3.684  15.006  0.00  0.00    +0.000 A 
ATOM     33  C   UNL     1       5.364   3.778  16.393  0.00  0.00    +0.000 A 
ENDBRANCH  24  27
ENDBRANCH  22  24
ENDBRANCH  21  22
ENDBRANCH   1  21
TORSDOF 7
ENDMDL
MODEL 9
REMARK VINA RESULT:      -8.5      0.947      1.494
REMARK  Name = 
REMARK  9 active torsions:
REMARK  status: ('A' for Active; 'I' for Inactive)
REMARK    1  A    between atoms: C_1  and  N_2
REMARK    2  A    between atoms: N_2  and  C_3
REMARK    3  A    between atoms: N_2  and  C_4
REMARK    4  A    between atoms: C_7  and  C_8
REMARK    5  A    between atoms: C_8  and  C_9
REMARK    6  A    between atoms: C_8  and  C_21
REMARK    7  A    between atoms: C_9  and  N_10
REMARK    8  A    between atoms: N_10  and  S_11
REMARK    9  A    between atoms: S_11  and  C_14
REMARK                            x       y       z     vdW  Elec       q    Type
REMARK                         _______ _______ _______ _____ _____    ______ ____
ROOT
ATOM      1  C   UNL     1       2.819   6.563  17.791  0.00  0.00    +0.000 C 
ENDROOT
BRANCH   1   2
ATOM      2  C   UNL     1       2.308   5.199  18.231  0.00  0.00    +0.000 A 
ATOM      3  C   UNL     1       1.905   4.197  17.364  0.00  0.00    +0.000 A 
ATOM      4  N   UNL     1       0.879   3.551  18.004  0.00  0.00    +0.000 N 
ATOM      5  C   UNL     1       1.303   3.431  19.308  0.00  0.00    +0.000 A 
ATOM      6  C   UNL     1       0.913   2.500  20.279  0.00  0.00    +0.000 A 
ATOM      7  C   UNL     1       1.460   2.632  21.548  0.00  0.00    +0.000 A 
ATOM      8  C   UNL     1       2.271   3.725  21.847  0.00  0.00    +0.000 A 
ATOM      9  C   UNL     1       2.575   4.711  20.872  0.00  0.00    +0.000 A 
ATOM     10  C   UNL     1       2.135   4.538  19.541  0.00  0.00    +0.000 A 
ATOM     11  H   UNL     1      -0.090   3.779  17.825  0.00  0.00    +0.000 HD
ENDBRANCH   1   2
BRANCH   1  15
ATOM     12  C   UNL     1       0.784   9.536  20.401  0.00  0.00    +0.000 A 
ATOM     13  C   UNL     1       1.324   8.325  20.865  0.00  0.00    +0.000 A 
ATOM     14  C   UNL     1       2.030   7.420  20.042  0.00  0.00    +0.000 A 
ATOM     15  C   UNL     1       2.245   7.675  18.686  0.00  0.00    +0.000 A 
ATOM     16  C   UNL     1       1.735   8.895  18.208  0.00  0.00    +0.000 A 
ATOM     17  C   UNL     1       1.028   9.799  19.047  0.00  0.00    +0.000 A 
BRANCH  12  19
ATOM     18  C   UNL     1      -0.213  11.770  20.837  0.00  0.00    +0.000 C 
ATOM     19  N   UNL     1       0.058  10.389  21.232  0.00  0.00    +0.000 N 
ATOM     20  C   UNL     1      -0.426   9.978  22.548  0.00  0.00    +0.000 C 
ENDBRANCH  12  19
ENDBRANCH   1  15
BRANCH   1  21
ATOM     21  C   UNL     1       4.395   6.660  17.808  0.00  0.00    +0.000 C 
BRANCH  21  22
ATOM     22  N   UNL     1       5.038   6.065  19.011  0.00  0.00    +0.000 NA
ATOM     23  H   UNL     1       4.442   5.902  19.822  0.00  0.00    +0.000 HD
BRANCH  22  24
ATOM     24  S   UNL     1       6.054   4.727  18.769  0.00  0.00    +0.000 S 
ATOM     25  O   UNL     1       7.359   5.127  19.246  0.00  0.00    +0.000 OA
ATOM     26  O   UNL     1       5.385   3.554  19.286  0.00  0.00    +0.000 OA
BRANCH  24  27
ATOM     27  C   UNL     1       6.180   4.575  16.999  0.00  0.00    +0.000 A 
ATOM     28  C   UNL     1       7.232   5.214  16.329  0.00  0.00    +0.000 A 
ATOM     29  C   UNL     1       7.343   5.091  14.942  0.00  0.00    +0.000 A 
ATOM     30  C   UNL     1       6.419   4.318  14.242  0.00  0.00    +0.000 A 
ATOM     31  F   UNL     1       6.522   4.214  12.910  0.00  0.00    +0.000 F 
ATOM     32  C   UNL     1       5.400   3.642  14.907  0.00  0.00    +0.000 A 
ATOM     33  C   UNL     1       5.280   3.763  16.294  0.00  0.00    +0.000 A 
ENDBRANCH  24  27
ENDBRANCH  22  24
ENDBRANCH  21  22
ENDBRANCH   1  21
TORSDOF 7
ENDMDL
