MODEL 1
REMARK VINA RESULT:      -8.1      0.000      0.000
REMARK  Name = 
REMARK  4 active torsions:
REMARK  status: ('A' for Active; 'I' for Inactive)
REMARK    1  A    between atoms: C_1  and  N_2
REMARK    2  A    between atoms: N_5  and  C_6
REMARK    3  A    between atoms: C_9  and  C_10
REMARK    4  A    between atoms: N_21  and  C_22
REMARK                            x       y       z     vdW  Elec       q    Type
REMARK                         _______ _______ _______ _____ _____    ______ ____
ROOT
ATOM      1  C   UNL     1       2.179   7.164  19.695  0.00  0.00    +0.000 C 
ATOM      2  O   UNL     1       2.208   6.100  20.303  0.00  0.00    +0.000 OA
ATOM      3  N   UNL     1       2.821   7.452  18.516  0.00  0.00    +0.000 N 
ATOM      4  C   UNL     1       3.720   6.587  17.927  0.00  0.00    +0.000 A 
ATOM      5  N   UNL     1       4.905   7.020  17.546  0.00  0.00    +0.000 NA
ATOM      6  C   UNL     1       5.478   5.988  16.855  0.00  0.00    +0.000 A 
ATOM      7  C   UNL     1       6.761   5.893  16.297  0.00  0.00    +0.000 A 
ATOM      8  C   UNL     1       7.070   4.783  15.505  0.00  0.00    +0.000 A 
ATOM      9  C   UNL     1       6.111   3.799  15.256  0.00  0.00    +0.000 A 
ATOM     10  C   UNL     1       4.845   3.848  15.857  0.00  0.00    +0.000 A 
ATOM     11  C   UNL     1       4.576   4.942  16.696  0.00  0.00    +0.000 A 
ATOM     12  N   UNL     1       3.516   5.290  17.515  0.00  0.00    +0.000 N 
ATOM     13  C   UNL     1       2.393   4.438  17.809  0.00  0.00    +0.000 C 
ATOM     14  H   UNL     1       3.104   8.419  18.402  0.00  0.00    +0.000 HD
ENDROOT
BRANCH   1  18
ATOM     15  C   UNL     1       0.034  10.544  21.390  0.00  0.00    +0.000 A 
ATOM     16  C   UNL     1       0.385  10.502  20.036  0.00  0.00    +0.000 A 
ATOM     17  C   UNL     1       1.088   9.412  19.491  0.00  0.00    +0.000 A 
ATOM     18  C   UNL     1       1.440   8.322  20.292  0.00  0.00    +0.000 A 
ATOM     19  C   UNL     1       1.099   8.342  21.643  0.00  0.00    +0.000 A 
ATOM     20  C   UNL     1       0.417   9.442  22.178  0.00  0.00    +0.000 A 
BRANCH  15  25
ATOM     21  C   UNL     1      -3.755  14.384  22.795  0.00  0.00    +0.000 C 
ATOM     22  N   UNL     1      -2.509  13.631  22.941  0.00  0.00    +0.000 NA
ATOM     23  C   UNL     1      -1.638  13.835  21.756  0.00  0.00    +0.000 C 
ATOM     24  C   UNL     1      -0.343  12.984  21.795  0.00  0.00    +0.000 C 
ATOM     25  N   UNL     1      -0.699  11.569  21.954  0.00  0.00    +0.000 N 
ATOM     26  C   UNL     1      -1.513  11.320  23.156  0.00  0.00    +0.000 C 
ATOM     27  C   UNL     1      -2.796  12.185  23.100  0.00  0.00    +0.000 C 
ENDBRANCH  15  25
ENDBRANCH   1  18
TORSDOF 2
ENDMDL
MODEL 2
REMARK VINA RESULT:      -8.0      0.692      1.014
REMARK  Name = 
REMARK  4 active torsions:
REMARK  status: ('A' for Active; 'I' for Inactive)
REMARK    1  A    between atoms: C_1  and  N_2
REMARK    2  A    between atoms: N_5  and  C_6
REMARK    3  A    between atoms: C_9  and  C_10
REMARK    4  A    between atoms: N_21  and  C_22
REMARK                            x       y       z     vdW  Elec       q    Type
REMARK                         _______ _______ _______ _____ _____    ______ ____
ROOT
ATOM      1  C   UNL     1       2.151   7.273  19.610  0.00  0.00    +0.000 C 
ATOM      2  O   UNL     1       2.247   6.272  20.312  0.00  0.00    +0.000 OA
ATOM      3  N   UNL     1       2.757   7.484  18.396  0.00  0.00    +0.000 N 
ATOM      4  C   UNL     1       3.689   6.615  17.869  0.00  0.00    +0.000 A 
ATOM      5  N   UNL     1       4.843   7.071  17.424  0.00  0.00    +0.000 NA
ATOM      6  C   UNL     1       5.458   6.011  16.817  0.00  0.00    +0.000 A 
ATOM      7  C   UNL     1       6.734   5.930  16.242  0.00  0.00    +0.000 A 
ATOM      8  C   UNL     1       7.087   4.769  15.547  0.00  0.00    +0.000 A 
ATOM      9  C   UNL     1       6.178   3.719  15.410  0.00  0.00    +0.000 A 
ATOM     10  C   UNL     1       4.922   3.759  16.032  0.00  0.00    +0.000 A 
ATOM     11  C   UNL     1       4.609   4.910  16.774  0.00  0.00    +0.000 A 
ATOM     12  N   UNL     1       3.547   5.277  17.581  0.00  0.00    +0.000 N 
ATOM     13  C   UNL     1       2.476   4.399  17.976  0.00  0.00    +0.000 C 
ATOM     14  H   UNL     1       2.985   8.449  18.189  0.00  0.00    +0.000 HD
ENDROOT
BRANCH   1  18
ATOM     15  C   UNL     1      -0.135  10.683  21.040  0.00  0.00    +0.000 A 
ATOM     16  C   UNL     1       0.326  10.609  19.720  0.00  0.00    +0.000 A 
ATOM     17  C   UNL     1       1.074   9.510  19.262  0.00  0.00    +0.000 A 
ATOM     18  C   UNL     1       1.363   8.441  20.116  0.00  0.00    +0.000 A 
ATOM     19  C   UNL     1       0.912   8.493  21.434  0.00  0.00    +0.000 A 
ATOM     20  C   UNL     1       0.185   9.603  21.884  0.00  0.00    +0.000 A 
BRANCH  15  25
ATOM     21  C   UNL     1      -2.286  15.550  22.702  0.00  0.00    +0.000 C 
ATOM     22  N   UNL     1      -2.312  14.116  22.409  0.00  0.00    +0.000 NA
ATOM     23  C   UNL     1      -1.339  13.394  23.267  0.00  0.00    +0.000 C 
ATOM     24  C   UNL     1      -1.238  11.883  22.938  0.00  0.00    +0.000 C 
ATOM     25  N   UNL     1      -0.915  11.718  21.516  0.00  0.00    +0.000 N 
ATOM     26  C   UNL     1      -1.896  12.371  20.632  0.00  0.00    +0.000 C 
ATOM     27  C   UNL     1      -1.986  13.877  20.983  0.00  0.00    +0.000 C 
ENDBRANCH  15  25
ENDBRANCH   1  18
TORSDOF 2
ENDMDL
MODEL 3
REMARK VINA RESULT:      -7.9      1.237      1.906
REMARK  Name = 
REMARK  4 active torsions:
REMARK  status: ('A' for Active; 'I' for Inactive)
REMARK    1  A    between atoms: C_1  and  N_2
REMARK    2  A    between atoms: N_5  and  C_6
REMARK    3  A    between atoms: C_9  and  C_10
REMARK    4  A    between atoms: N_21  and  C_22
REMARK                            x       y       z     vdW  Elec       q    Type
REMARK                         _______ _______ _______ _____ _____    ______ ____
ROOT
ATOM      1  C   UNL     1       1.597   7.851  20.534  0.00  0.00    +0.000 C 
ATOM      2  O   UNL     1       1.986   6.987  21.312  0.00  0.00    +0.000 OA
ATOM      3  N   UNL     1       1.874   7.930  19.191  0.00  0.00    +0.000 N 
ATOM      4  C   UNL     1       2.772   7.091  18.566  0.00  0.00    +0.000 A 
ATOM      5  N   UNL     1       3.720   7.587  17.797  0.00  0.00    +0.000 NA
ATOM      6  C   UNL     1       4.320   6.514  17.198  0.00  0.00    +0.000 A 
ATOM      7  C   UNL     1       5.429   6.476  16.341  0.00  0.00    +0.000 A 
ATOM      8  C   UNL     1       5.770   5.264  15.735  0.00  0.00    +0.000 A 
ATOM      9  C   UNL     1       5.007   4.117  15.960  0.00  0.00    +0.000 A 
ATOM     10  C   UNL     1       3.933   4.124  16.861  0.00  0.00    +0.000 A 
ATOM     11  C   UNL     1       3.643   5.339  17.505  0.00  0.00    +0.000 A 
ATOM     12  N   UNL     1       2.753   5.716  18.495  0.00  0.00    +0.000 N 
ATOM     13  C   UNL     1       1.932   4.806  19.249  0.00  0.00    +0.000 C 
ATOM     14  H   UNL     1       1.915   8.870  18.813  0.00  0.00    +0.000 HD
ENDROOT
BRANCH   1  18
ATOM     15  C   UNL     1      -0.743  11.157  22.113  0.00  0.00    +0.000 A 
ATOM     16  C   UNL     1      -0.419  10.045  22.899  0.00  0.00    +0.000 A 
ATOM     17  C   UNL     1       0.329   8.972  22.383  0.00  0.00    +0.000 A 
ATOM     18  C   UNL     1       0.792   8.997  21.065  0.00  0.00    +0.000 A 
ATOM     19  C   UNL     1       0.482  10.095  20.264  0.00  0.00    +0.000 A 
ATOM     20  C   UNL     1      -0.281  11.148  20.783  0.00  0.00    +0.000 A 
BRANCH  15  25
ATOM     21  C   UNL     1      -3.119  15.181  25.153  0.00  0.00    +0.000 C 
ATOM     22  N   UNL     1      -2.739  14.499  23.915  0.00  0.00    +0.000 NA
ATOM     23  C   UNL     1      -3.341  13.143  23.863  0.00  0.00    +0.000 C 
ATOM     24  C   UNL     1      -2.897  12.323  22.626  0.00  0.00    +0.000 C 
ATOM     25  N   UNL     1      -1.431  12.254  22.593  0.00  0.00    +0.000 N 
ATOM     26  C   UNL     1      -0.800  13.585  22.580  0.00  0.00    +0.000 C 
ATOM     27  C   UNL     1      -1.264  14.388  23.820  0.00  0.00    +0.000 C 
ENDBRANCH  15  25
ENDBRANCH   1  18
TORSDOF 2
ENDMDL
MODEL 4
REMARK VINA RESULT:      -7.7      1.227      1.862
REMARK  Name = 
REMARK  4 active torsions:
REMARK  status: ('A' for Active; 'I' for Inactive)
REMARK    1  A    between atoms: C_1  and  N_2
REMARK    2  A    between atoms: N_5  and  C_6
REMARK    3  A    between atoms: C_9  and  C_10
REMARK    4  A    between atoms: N_21  and  C_22
REMARK                            x       y       z     vdW  Elec       q    Type
REMARK                         _______ _______ _______ _____ _____    ______ ____
ROOT
ATOM      1  C   UNL     1       1.466   8.080  20.704  0.00  0.00    +0.000 C 
ATOM      2  O   UNL     1       1.961   7.300  21.511  0.00  0.00    +0.000 OA
ATOM      3  N   UNL     1       1.655   8.081  19.344  0.00  0.00    +0.000 N 
ATOM      4  C   UNL     1       2.569   7.259  18.719  0.00  0.00    +0.000 A 
ATOM      5  N   UNL     1       3.432   7.759  17.858  0.00  0.00    +0.000 NA
ATOM      6  C   UNL     1       4.066   6.687  17.293  0.00  0.00    +0.000 A 
ATOM      7  C   UNL     1       5.120   6.659  16.371  0.00  0.00    +0.000 A 
ATOM      8  C   UNL     1       5.507   5.431  15.825  0.00  0.00    +0.000 A 
ATOM      9  C   UNL     1       4.838   4.257  16.176  0.00  0.00    +0.000 A 
ATOM     10  C   UNL     1       3.823   4.259  17.143  0.00  0.00    +0.000 A 
ATOM     11  C   UNL     1       3.491   5.495  17.722  0.00  0.00    +0.000 A 
ATOM     12  N   UNL     1       2.639   5.884  18.740  0.00  0.00    +0.000 N 
ATOM     13  C   UNL     1       1.930   4.979  19.606  0.00  0.00    +0.000 C 
ATOM     14  H   UNL     1       1.609   8.992  18.903  0.00  0.00    +0.000 HD
ENDROOT
BRANCH   1  18
ATOM     15  C   UNL     1      -0.997  11.330  22.208  0.00  0.00    +0.000 A 
ATOM     16  C   UNL     1      -0.679  10.222  23.002  0.00  0.00    +0.000 A 
ATOM     17  C   UNL     1       0.110   9.167  22.511  0.00  0.00    +0.000 A 
ATOM     18  C   UNL     1       0.619   9.206  21.209  0.00  0.00    +0.000 A 
ATOM     19  C   UNL     1       0.316  10.301  20.402  0.00  0.00    +0.000 A 
ATOM     20  C   UNL     1      -0.488  11.336  20.896  0.00  0.00    +0.000 A 
BRANCH  15  25
ATOM     21  C   UNL     1      -4.339  15.741  22.887  0.00  0.00    +0.000 C 
ATOM     22  N   UNL     1      -3.421  14.689  23.326  0.00  0.00    +0.000 NA
ATOM     23  C   UNL     1      -2.101  14.842  22.663  0.00  0.00    +0.000 C 
ATOM     24  C   UNL     1      -1.110  13.701  23.002  0.00  0.00    +0.000 C 
ATOM     25  N   UNL     1      -1.725  12.411  22.666  0.00  0.00    +0.000 N 
ATOM     26  C   UNL     1      -3.009  12.197  23.356  0.00  0.00    +0.000 C 
ATOM     27  C   UNL     1      -3.980  13.352  23.009  0.00  0.00    +0.000 C 
ENDBRANCH  15  25
ENDBRANCH   1  18
TORSDOF 2
ENDMDL
MODEL 5
REMARK VINA RESULT:      -7.7      1.035      1.180
REMARK  Name = 
REMARK  4 active torsions:
REMARK  status: ('A' for Active; 'I' for Inactive)
REMARK    1  A    between atoms: C_1  and  N_2
REMARK    2  A    between atoms: N_5  and  C_6
REMARK    3  A    between atoms: C_9  and  C_10
REMARK    4  A    between atoms: N_21  and  C_22
REMARK                            x       y       z     vdW  Elec       q    Type
REMARK                         _______ _______ _______ _____ _____    ______ ____
ROOT
ATOM      1  C   UNL     1       1.527   7.735  20.425  0.00  0.00    +0.000 C 
ATOM      2  O   UNL     1       1.833   6.836  21.200  0.00  0.00    +0.000 OA
ATOM      3  N   UNL     1       1.895   7.842  19.106  0.00  0.00    +0.000 N 
ATOM      4  C   UNL     1       2.802   6.987  18.515  0.00  0.00    +0.000 A 
ATOM      5  N   UNL     1       3.816   7.469  17.825  0.00  0.00    +0.000 NA
ATOM      6  C   UNL     1       4.415   6.391  17.233  0.00  0.00    +0.000 A 
ATOM      7  C   UNL     1       5.576   6.336  16.450  0.00  0.00    +0.000 A 
ATOM      8  C   UNL     1       5.914   5.129  15.831  0.00  0.00    +0.000 A 
ATOM      9  C   UNL     1       5.096   4.006  15.970  0.00  0.00    +0.000 A 
ATOM     10  C   UNL     1       3.966   4.027  16.800  0.00  0.00    +0.000 A 
ATOM     11  C   UNL     1       3.678   5.234  17.460  0.00  0.00    +0.000 A 
ATOM     12  N   UNL     1       2.739   5.616  18.401  0.00  0.00    +0.000 N 
ATOM     13  C   UNL     1       1.837   4.717  19.072  0.00  0.00    +0.000 C 
ATOM     14  H   UNL     1       1.994   8.789  18.760  0.00  0.00    +0.000 HD
ENDROOT
BRANCH   1  18
ATOM     15  C   UNL     1      -0.786  11.119  21.873  0.00  0.00    +0.000 A 
ATOM     16  C   UNL     1      -0.381  11.024  20.536  0.00  0.00    +0.000 A 
ATOM     17  C   UNL     1       0.376   9.934  20.072  0.00  0.00    +0.000 A 
ATOM     18  C   UNL     1       0.730   8.895  20.937  0.00  0.00    +0.000 A 
ATOM     19  C   UNL     1       0.336   8.968  22.272  0.00  0.00    +0.000 A 
ATOM     20  C   UNL     1      -0.400  10.069  22.727  0.00  0.00    +0.000 A 
BRANCH  15  25
ATOM     21  C   UNL     1      -4.657  15.012  22.840  0.00  0.00    +0.000 C 
ATOM     22  N   UNL     1      -3.462  14.222  23.140  0.00  0.00    +0.000 NA
ATOM     23  C   UNL     1      -2.422  14.440  22.104  0.00  0.00    +0.000 C 
ATOM     24  C   UNL     1      -1.166  13.555  22.302  0.00  0.00    +0.000 C 
ATOM     25  N   UNL     1      -1.572  12.145  22.358  0.00  0.00    +0.000 N 
ATOM     26  C   UNL     1      -2.559  11.881  23.419  0.00  0.00    +0.000 C 
ATOM     27  C   UNL     1      -3.801  12.780  23.205  0.00  0.00    +0.000 C 
ENDBRANCH  15  25
ENDBRANCH   1  18
TORSDOF 2
ENDMDL
MODEL 6
REMARK VINA RESULT:      -7.6      1.133      1.448
REMARK  Name = 
REMARK  4 active torsions:
REMARK  status: ('A' for Active; 'I' for Inactive)
REMARK    1  A    between atoms: C_1  and  N_2
REMARK    2  A    between atoms: N_5  and  C_6
REMARK    3  A    between atoms: C_9  and  C_10
REMARK    4  A    between atoms: N_21  and  C_22
REMARK                            x       y       z     vdW  Elec       q    Type
REMARK                         _______ _______ _______ _____ _____    ______ ____
ROOT
ATOM      1  C   UNL     1       1.642   7.832  20.333  0.00  0.00    +0.000 C 
ATOM      2  O   UNL     1       1.953   6.958  21.135  0.00  0.00    +0.000 OA
ATOM      3  N   UNL     1       1.991   7.887  19.006  0.00  0.00    +0.000 N 
ATOM      4  C   UNL     1       2.881   7.003  18.433  0.00  0.00    +0.000 A 
ATOM      5  N   UNL     1       3.888   7.451  17.711  0.00  0.00    +0.000 NA
ATOM      6  C   UNL     1       4.470   6.347  17.150  0.00  0.00    +0.000 A 
ATOM      7  C   UNL     1       5.618   6.253  16.352  0.00  0.00    +0.000 A 
ATOM      8  C   UNL     1       5.936   5.021  15.771  0.00  0.00    +0.000 A 
ATOM      9  C   UNL     1       5.111   3.912  15.964  0.00  0.00    +0.000 A 
ATOM     10  C   UNL     1       3.994   3.974  16.808  0.00  0.00    +0.000 A 
ATOM     11  C   UNL     1       3.726   5.205  17.429  0.00  0.00    +0.000 A 
ATOM     12  N   UNL     1       2.805   5.630  18.369  0.00  0.00    +0.000 N 
ATOM     13  C   UNL     1       1.906   4.764  19.086  0.00  0.00    +0.000 C 
ATOM     14  H   UNL     1       2.093   8.821  18.625  0.00  0.00    +0.000 HD
ENDROOT
BRANCH   1  18
ATOM     15  C   UNL     1      -0.619  11.287  21.692  0.00  0.00    +0.000 A 
ATOM     16  C   UNL     1      -0.229  11.144  20.355  0.00  0.00    +0.000 A 
ATOM     17  C   UNL     1       0.512  10.030  19.919  0.00  0.00    +0.000 A 
ATOM     18  C   UNL     1       0.863   9.016  20.815  0.00  0.00    +0.000 A 
ATOM     19  C   UNL     1       0.484   9.137  22.150  0.00  0.00    +0.000 A 
ATOM     20  C   UNL     1      -0.235  10.261  22.577  0.00  0.00    +0.000 A 
BRANCH  15  25
ATOM     21  C   UNL     1      -3.674  14.913  24.624  0.00  0.00    +0.000 C 
ATOM     22  N   UNL     1      -2.968  14.422  23.440  0.00  0.00    +0.000 NA
ATOM     23  C   UNL     1      -3.563  13.145  22.973  0.00  0.00    +0.000 C 
ATOM     24  C   UNL     1      -2.798  12.513  21.782  0.00  0.00    +0.000 C 
ATOM     25  N   UNL     1      -1.389  12.337  22.152  0.00  0.00    +0.000 N 
ATOM     26  C   UNL     1      -0.748  13.598  22.562  0.00  0.00    +0.000 C 
ATOM     27  C   UNL     1      -1.532  14.215  23.747  0.00  0.00    +0.000 C 
ENDBRANCH  15  25
ENDBRANCH   1  18
TORSDOF 2
ENDMDL
MODEL 7
REMARK VINA RESULT:      -7.6      3.312      9.551
REMARK  Name = 
REMARK  4 active torsions:
REMARK  status: ('A' for Active; 'I' for Inactive)
REMARK    1  A    between atoms: C_1  and  N_2
REMARK    2  A    between atoms: N_5  and  C_6
REMARK    3  A    between atoms: C_9  and  C_10
REMARK    4  A    between atoms: N_21  and  C_22
REMARK                            x       y       z     vdW  Elec       q    Type
REMARK                         _______ _______ _______ _____ _____    ______ ____
ROOT
ATOM      1  C   UNL     1       0.545  11.005  18.962  0.00  0.00    +0.000 C 
ATOM      2  O   UNL     1      -0.519  11.103  18.359  0.00  0.00    +0.000 OA
ATOM      3  N   UNL     1       1.313  12.038  19.442  0.00  0.00    +0.000 N 
ATOM      4  C   UNL     1       1.035  13.361  19.169  0.00  0.00    +0.000 A 
ATOM      5  N   UNL     1       1.982  14.158  18.719  0.00  0.00    +0.000 NA
ATOM      6  C   UNL     1       1.446  15.416  18.717  0.00  0.00    +0.000 A 
ATOM      7  C   UNL     1       2.002  16.621  18.265  0.00  0.00    +0.000 A 
ATOM      8  C   UNL     1       1.310  17.813  18.503  0.00  0.00    +0.000 A 
ATOM      9  C   UNL     1       0.100  17.805  19.198  0.00  0.00    +0.000 A 
ATOM     10  C   UNL     1      -0.499  16.603  19.601  0.00  0.00    +0.000 A 
ATOM     11  C   UNL     1       0.184  15.413  19.300  0.00  0.00    +0.000 A 
ATOM     12  N   UNL     1      -0.113  14.069  19.444  0.00  0.00    +0.000 N 
ATOM     13  C   UNL     1      -1.389  13.552  19.864  0.00  0.00    +0.000 C 
ATOM     14  H   UNL     1       2.310  11.861  19.461  0.00  0.00    +0.000 HD
ENDROOT
BRANCH   1  18
ATOM     15  C   UNL     1       2.276   7.065  19.574  0.00  0.00    +0.000 A 
ATOM     16  C   UNL     1       1.629   7.752  20.608  0.00  0.00    +0.000 A 
ATOM     17  C   UNL     1       1.078   9.031  20.411  0.00  0.00    +0.000 A 
ATOM     18  C   UNL     1       1.145   9.648  19.159  0.00  0.00    +0.000 A 
ATOM     19  C   UNL     1       1.784   8.981  18.114  0.00  0.00    +0.000 A 
ATOM     20  C   UNL     1       2.346   7.717  18.329  0.00  0.00    +0.000 A 
BRANCH  15  25
ATOM     21  C   UNL     1       3.788   1.727  19.025  0.00  0.00    +0.000 C 
ATOM     22  N   UNL     1       3.757   3.041  19.671  0.00  0.00    +0.000 NA
ATOM     23  C   UNL     1       2.371   3.390  20.070  0.00  0.00    +0.000 C 
ATOM     24  C   UNL     1       2.247   4.815  20.668  0.00  0.00    +0.000 C 
ATOM     25  N   UNL     1       2.785   5.789  19.711  0.00  0.00    +0.000 N 
ATOM     26  C   UNL     1       4.182   5.507  19.339  0.00  0.00    +0.000 C 
ATOM     27  C   UNL     1       4.283   4.078  18.752  0.00  0.00    +0.000 C 
ENDBRANCH  15  25
ENDBRANCH   1  18
TORSDOF 2
ENDMDL
MODEL 8
REMARK VINA RESULT:      -7.5      1.560     10.046
REMARK  Name = 
REMARK  4 active torsions:
REMARK  status: ('A' for Active; 'I' for Inactive)
REMARK    1  A    between atoms: C_1  and  N_2
REMARK    2  A    between atoms: N_5  and  C_6
REMARK    3  A    between atoms: C_9  and  C_10
REMARK    4  A    between atoms: N_21  and  C_22
REMARK                            x       y       z     vdW  Elec       q    Type
REMARK                         _______ _______ _______ _____ _____    ______ ____
ROOT
ATOM      1  C   UNL     1       0.560   8.635  20.579  0.00  0.00    +0.000 C 
ATOM      2  O   UNL     1      -0.160   7.978  21.323  0.00  0.00    +0.000 OA
ATOM      3  N   UNL     1       0.491   9.989  20.357  0.00  0.00    +0.000 N 
ATOM      4  C   UNL     1      -0.525  10.775  20.859  0.00  0.00    +0.000 A 
ATOM      5  N   UNL     1      -1.181  11.597  20.066  0.00  0.00    +0.000 NA
ATOM      6  C   UNL     1      -1.985  12.345  20.882  0.00  0.00    +0.000 A 
ATOM      7  C   UNL     1      -2.939  13.316  20.546  0.00  0.00    +0.000 A 
ATOM      8  C   UNL     1      -3.538  14.054  21.571  0.00  0.00    +0.000 A 
ATOM      9  C   UNL     1      -3.176  13.844  22.902  0.00  0.00    +0.000 A 
ATOM     10  C   UNL     1      -2.271  12.835  23.259  0.00  0.00    +0.000 A 
ATOM     11  C   UNL     1      -1.725  12.065  22.219  0.00  0.00    +0.000 A 
ATOM     12  N   UNL     1      -0.897  10.958  22.172  0.00  0.00    +0.000 N 
ATOM     13  C   UNL     1      -0.479  10.197  23.321  0.00  0.00    +0.000 C 
ATOM     14  H   UNL     1       0.774  10.289  19.431  0.00  0.00    +0.000 HD
ENDROOT
BRANCH   1  18
ATOM     15  C   UNL     1       3.548   6.549  18.209  0.00  0.00    +0.000 A 
ATOM     16  C   UNL     1       3.071   6.025  19.416  0.00  0.00    +0.000 A 
ATOM     17  C   UNL     1       2.112   6.706  20.187  0.00  0.00    +0.000 A 
ATOM     18  C   UNL     1       1.589   7.927  19.753  0.00  0.00    +0.000 A 
ATOM     19  C   UNL     1       2.048   8.467  18.553  0.00  0.00    +0.000 A 
ATOM     20  C   UNL     1       3.018   7.789  17.804  0.00  0.00    +0.000 A 
BRANCH  15  25
ATOM     21  C   UNL     1       6.225   3.813  14.155  0.00  0.00    +0.000 C 
ATOM     22  N   UNL     1       6.110   4.513  15.436  0.00  0.00    +0.000 NA
ATOM     23  C   UNL     1       5.180   3.792  16.340  0.00  0.00    +0.000 C 
ATOM     24  C   UNL     1       4.930   4.532  17.678  0.00  0.00    +0.000 C 
ATOM     25  N   UNL     1       4.450   5.890  17.397  0.00  0.00    +0.000 N 
ATOM     26  C   UNL     1       5.380   6.658  16.551  0.00  0.00    +0.000 C 
ATOM     27  C   UNL     1       5.620   5.896  15.225  0.00  0.00    +0.000 C 
ENDBRANCH  15  25
ENDBRANCH   1  18
TORSDOF 2
ENDMDL
MODEL 9
REMARK VINA RESULT:      -7.4      2.336     10.079
REMARK  Name = 
REMARK  4 active torsions:
REMARK  status: ('A' for Active; 'I' for Inactive)
REMARK    1  A    between atoms: C_1  and  N_2
REMARK    2  A    between atoms: N_5  and  C_6
REMARK    3  A    between atoms: C_9  and  C_10
REMARK    4  A    between atoms: N_21  and  C_22
REMARK                            x       y       z     vdW  Elec       q    Type
REMARK                         _______ _______ _______ _____ _____    ______ ____
ROOT
ATOM      1  C   UNL     1       0.615  10.527  19.618  0.00  0.00    +0.000 C 
ATOM      2  O   UNL     1       0.799  11.421  18.800  0.00  0.00    +0.000 OA
ATOM      3  N   UNL     1      -0.112  10.615  20.780  0.00  0.00    +0.000 N 
ATOM      4  C   UNL     1      -0.626  11.807  21.247  0.00  0.00    +0.000 A 
ATOM      5  N   UNL     1      -0.422  12.172  22.497  0.00  0.00    +0.000 NA
ATOM      6  C   UNL     1      -1.190  13.286  22.694  0.00  0.00    +0.000 A 
ATOM      7  C   UNL     1      -1.288  14.113  23.821  0.00  0.00    +0.000 A 
ATOM      8  C   UNL     1      -2.259  15.119  23.836  0.00  0.00    +0.000 A 
ATOM      9  C   UNL     1      -3.130  15.281  22.757  0.00  0.00    +0.000 A 
ATOM     10  C   UNL     1      -3.004  14.504  21.598  0.00  0.00    +0.000 A 
ATOM     11  C   UNL     1      -1.983  13.539  21.580  0.00  0.00    +0.000 A 
ATOM     12  N   UNL     1      -1.496  12.669  20.620  0.00  0.00    +0.000 N 
ATOM     13  C   UNL     1      -1.898  12.665  19.238  0.00  0.00    +0.000 C 
ATOM     14  H   UNL     1       0.209  10.023  21.537  0.00  0.00    +0.000 HD
ENDROOT
BRANCH   1  18
ATOM     15  C   UNL     1       2.561   6.679  19.062  0.00  0.00    +0.000 A 
ATOM     16  C   UNL     1       2.004   7.050  20.292  0.00  0.00    +0.000 A 
ATOM     17  C   UNL     1       1.384   8.299  20.473  0.00  0.00    +0.000 A 
ATOM     18  C   UNL     1       1.288   9.205  19.413  0.00  0.00    +0.000 A 
ATOM     19  C   UNL     1       1.835   8.856  18.179  0.00  0.00    +0.000 A 
ATOM     20  C   UNL     1       2.468   7.618  18.017  0.00  0.00    +0.000 A 
BRANCH  15  25
ATOM     21  C   UNL     1       3.760   1.268  18.460  0.00  0.00    +0.000 C 
ATOM     22  N   UNL     1       4.024   2.705  18.377  0.00  0.00    +0.000 NA
ATOM     23  C   UNL     1       3.985   3.319  19.728  0.00  0.00    +0.000 C 
ATOM     24  C   UNL     1       4.154   4.859  19.705  0.00  0.00    +0.000 C 
ATOM     25  N   UNL     1       3.133   5.445  18.827  0.00  0.00    +0.000 N 
ATOM     26  C   UNL     1       3.183   4.902  17.458  0.00  0.00    +0.000 C 
ATOM     27  C   UNL     1       3.020   3.363  17.506  0.00  0.00    +0.000 C 
ENDBRANCH  15  25
ENDBRANCH   1  18
TORSDOF 2
ENDMDL
