MODEL 1
REMARK VINA RESULT:      -8.9      0.000      0.000
REMARK  Name = 
REMARK  6 active torsions:
REMARK  status: ('A' for Active; 'I' for Inactive)
REMARK    1  A    between atoms: C_1  and  C_2
REMARK    2  A    between atoms: C_3  and  C_4
REMARK    3  A    between atoms: N_6  and  C_7
REMARK    4  A    between atoms: C_7  and  C_8
REMARK    5  A    between atoms: C_14  and  C_15
REMARK    6  A    between atoms: C_19  and  O_20
REMARK                            x       y       z     vdW  Elec       q    Type
REMARK                         _______ _______ _______ _____ _____    ______ ____
ROOT
ATOM      1  C   UNL     1       1.114   3.614  20.483  0.00  0.00    +0.000 C 
ATOM      2  C   UNL     1       2.588   3.653  20.166  0.00  0.00    +0.000 C 
ATOM      3  C   UNL     1       3.298   4.634  19.552  0.00  0.00    +0.000 C 
ATOM      4  C   UNL     1       4.798   4.474  19.382  0.00  0.00    +0.000 C 
ATOM      5  N   UNL     1       5.255   3.130  19.685  0.00  0.00    +0.000 N 
ATOM      6  C   UNL     1       4.542   2.221  20.393  0.00  0.00    +0.000 C 
ATOM      7  O   UNL     1       5.058   1.173  20.783  0.00  0.00    +0.000 OA
ATOM      8  N   UNL     1       3.244   2.526  20.608  0.00  0.00    +0.000 N 
ATOM      9  H   UNL     1       6.231   2.895  19.535  0.00  0.00    +0.000 HD
ATOM     10  H   UNL     1       2.724   1.800  21.090  0.00  0.00    +0.000 HD
ENDROOT
BRANCH   4  11
ATOM     11  C   UNL     1       5.346   4.843  18.013  0.00  0.00    +0.000 A 
ATOM     12  C   UNL     1       4.850   4.244  16.844  0.00  0.00    +0.000 A 
ATOM     13  C   UNL     1       5.333   4.626  15.591  0.00  0.00    +0.000 A 
ATOM     14  C   UNL     1       6.306   5.619  15.488  0.00  0.00    +0.000 A 
ATOM     15  C   UNL     1       6.808   6.204  16.644  0.00  0.00    +0.000 A 
ATOM     16  C   UNL     1       6.367   5.801  17.898  0.00  0.00    +0.000 A 
BRANCH  15  17
ATOM     17  O   UNL     1       7.726   7.209  16.595  0.00  0.00    +0.000 OA
ATOM     18  H   UNL     1       7.892   7.428  15.662  0.00  0.00    +0.000 HD
ENDBRANCH  15  17
ENDBRANCH   4  11
BRANCH   3  19
ATOM     19  C   UNL     1       2.612   5.886  19.069  0.00  0.00    +0.000 C 
ATOM     20  O   UNL     1       2.232   6.006  17.905  0.00  0.00    +0.000 OA
ATOM     21  N   UNL     1       2.447   6.911  19.971  0.00  0.00    +0.000 N 
ATOM     22  H   UNL     1       2.866   6.865  20.884  0.00  0.00    +0.000 HD
BRANCH  21  23
ATOM     23  C   UNL     1       1.947   8.212  19.568  0.00  0.00    +0.000 C 
BRANCH  23  24
ATOM     24  C   UNL     1       0.953   8.856  20.544  0.00  0.00    +0.000 C 
ATOM     25  C   UNL     1       0.590  10.284  20.122  0.00  0.00    +0.000 C 
ATOM     26  C   UNL     1      -0.649  10.737  20.884  0.00  0.00    +0.000 C 
ATOM     27  C   UNL     1      -0.411  10.705  22.392  0.00  0.00    +0.000 C 
ATOM     28  C   UNL     1       0.160   9.368  22.877  0.00  0.00    +0.000 C 
ATOM     29  C   UNL     1       1.349   8.874  22.031  0.00  0.00    +0.000 C 
ENDBRANCH  23  24
ENDBRANCH  21  23
ENDBRANCH   3  19
TORSDOF 5
ENDMDL
MODEL 2
REMARK VINA RESULT:      -8.9      0.414      1.086
REMARK  Name = 
REMARK  6 active torsions:
REMARK  status: ('A' for Active; 'I' for Inactive)
REMARK    1  A    between atoms: C_1  and  C_2
REMARK    2  A    between atoms: C_3  and  C_4
REMARK    3  A    between atoms: N_6  and  C_7
REMARK    4  A    between atoms: C_7  and  C_8
REMARK    5  A    between atoms: C_14  and  C_15
REMARK    6  A    between atoms: C_19  and  O_20
REMARK                            x       y       z     vdW  Elec       q    Type
REMARK                         _______ _______ _______ _____ _____    ______ ____
ROOT
ATOM      1  C   UNL     1       1.076   3.381  20.409  0.00  0.00    +0.000 C 
ATOM      2  C   UNL     1       2.552   3.469  20.112  0.00  0.00    +0.000 C 
ATOM      3  C   UNL     1       3.229   4.450  19.460  0.00  0.00    +0.000 C 
ATOM      4  C   UNL     1       4.737   4.349  19.321  0.00  0.00    +0.000 C 
ATOM      5  N   UNL     1       5.248   3.044  19.697  0.00  0.00    +0.000 N 
ATOM      6  C   UNL     1       4.563   2.140  20.439  0.00  0.00    +0.000 C 
ATOM      7  O   UNL     1       5.117   1.136  20.888  0.00  0.00    +0.000 OA
ATOM      8  N   UNL     1       3.249   2.396  20.619  0.00  0.00    +0.000 N 
ATOM      9  H   UNL     1       6.235   2.845  19.573  0.00  0.00    +0.000 HD
ATOM     10  H   UNL     1       2.753   1.673  21.129  0.00  0.00    +0.000 HD
ENDROOT
BRANCH   4  11
ATOM     11  C   UNL     1       5.292   4.675  17.943  0.00  0.00    +0.000 A 
ATOM     12  C   UNL     1       4.781   4.060  16.789  0.00  0.00    +0.000 A 
ATOM     13  C   UNL     1       5.271   4.402  15.527  0.00  0.00    +0.000 A 
ATOM     14  C   UNL     1       6.265   5.371  15.400  0.00  0.00    +0.000 A 
ATOM     15  C   UNL     1       6.782   5.971  16.543  0.00  0.00    +0.000 A 
ATOM     16  C   UNL     1       6.333   5.607  17.806  0.00  0.00    +0.000 A 
BRANCH  15  17
ATOM     17  O   UNL     1       7.722   6.955  16.470  0.00  0.00    +0.000 OA
ATOM     18  H   UNL     1       8.143   6.911  15.594  0.00  0.00    +0.000 HD
ENDBRANCH  15  17
ENDBRANCH   4  11
BRANCH   3  19
ATOM     19  C   UNL     1       2.497   5.645  18.905  0.00  0.00    +0.000 C 
ATOM     20  O   UNL     1       1.885   5.589  17.840  0.00  0.00    +0.000 OA
ATOM     21  N   UNL     1       2.558   6.818  19.619  0.00  0.00    +0.000 N 
ATOM     22  H   UNL     1       3.158   6.901  20.422  0.00  0.00    +0.000 HD
BRANCH  21  23
ATOM     23  C   UNL     1       2.026   8.063  19.095  0.00  0.00    +0.000 C 
BRANCH  23  24
ATOM     24  C   UNL     1       1.394   8.990  20.141  0.00  0.00    +0.000 C 
ATOM     25  C   UNL     1       1.007   8.228  21.414  0.00  0.00    +0.000 C 
ATOM     26  C   UNL     1       0.738   9.222  22.536  0.00  0.00    +0.000 C 
ATOM     27  C   UNL     1      -0.390  10.181  22.164  0.00  0.00    +0.000 C 
ATOM     28  C   UNL     1      -0.188  10.835  20.794  0.00  0.00    +0.000 C 
ATOM     29  C   UNL     1       0.185   9.828  19.689  0.00  0.00    +0.000 C 
ENDBRANCH  23  24
ENDBRANCH  21  23
ENDBRANCH   3  19
TORSDOF 5
ENDMDL
MODEL 3
REMARK VINA RESULT:      -8.8      1.079      1.332
REMARK  Name = 
REMARK  6 active torsions:
REMARK  status: ('A' for Active; 'I' for Inactive)
REMARK    1  A    between atoms: C_1  and  C_2
REMARK    2  A    between atoms: C_3  and  C_4
REMARK    3  A    between atoms: N_6  and  C_7
REMARK    4  A    between atoms: C_7  and  C_8
REMARK    5  A    between atoms: C_14  and  C_15
REMARK    6  A    between atoms: C_19  and  O_20
REMARK                            x       y       z     vdW  Elec       q    Type
REMARK                         _______ _______ _______ _____ _____    ______ ____
ROOT
ATOM      1  C   UNL     1       1.159   3.610  20.722  0.00  0.00    +0.000 C 
ATOM      2  C   UNL     1       2.579   3.694  20.222  0.00  0.00    +0.000 C 
ATOM      3  C   UNL     1       3.169   4.688  19.508  0.00  0.00    +0.000 C 
ATOM      4  C   UNL     1       4.642   4.578  19.155  0.00  0.00    +0.000 C 
ATOM      5  N   UNL     1       5.184   3.258  19.420  0.00  0.00    +0.000 N 
ATOM      6  C   UNL     1       4.599   2.339  20.226  0.00  0.00    +0.000 C 
ATOM      7  O   UNL     1       5.199   1.319  20.565  0.00  0.00    +0.000 OA
ATOM      8  N   UNL     1       3.327   2.601  20.596  0.00  0.00    +0.000 N 
ATOM      9  H   UNL     1       6.141   3.055  19.152  0.00  0.00    +0.000 HD
ATOM     10  H   UNL     1       2.899   1.868  21.152  0.00  0.00    +0.000 HD
ENDROOT
BRANCH   4  11
ATOM     11  C   UNL     1       5.000   4.938  17.722  0.00  0.00    +0.000 A 
ATOM     12  C   UNL     1       5.053   6.276  17.300  0.00  0.00    +0.000 A 
ATOM     13  C   UNL     1       5.426   6.593  15.992  0.00  0.00    +0.000 A 
ATOM     14  C   UNL     1       5.766   5.581  15.095  0.00  0.00    +0.000 A 
ATOM     15  C   UNL     1       5.702   4.255  15.508  0.00  0.00    +0.000 A 
ATOM     16  C   UNL     1       5.289   3.926  16.793  0.00  0.00    +0.000 A 
BRANCH  15  17
ATOM     17  O   UNL     1       6.066   3.233  14.684  0.00  0.00    +0.000 OA
ATOM     18  H   UNL     1       6.222   3.596  13.795  0.00  0.00    +0.000 HD
ENDBRANCH  15  17
ENDBRANCH   4  11
BRANCH   3  19
ATOM     19  C   UNL     1       2.381   5.904  19.095  0.00  0.00    +0.000 C 
ATOM     20  O   UNL     1       1.744   5.934  18.043  0.00  0.00    +0.000 OA
ATOM     21  N   UNL     1       2.419   7.000  19.924  0.00  0.00    +0.000 N 
ATOM     22  H   UNL     1       3.037   7.024  20.717  0.00  0.00    +0.000 HD
BRANCH  21  23
ATOM     23  C   UNL     1       1.831   8.271  19.542  0.00  0.00    +0.000 C 
BRANCH  23  24
ATOM     24  C   UNL     1       0.863   8.873  20.570  0.00  0.00    +0.000 C 
ATOM     25  C   UNL     1       0.494  10.319  20.220  0.00  0.00    +0.000 C 
ATOM     26  C   UNL     1      -0.724  10.740  21.032  0.00  0.00    +0.000 C 
ATOM     27  C   UNL     1      -0.449  10.641  22.530  0.00  0.00    +0.000 C 
ATOM     28  C   UNL     1       0.129   9.283  22.941  0.00  0.00    +0.000 C 
ATOM     29  C   UNL     1       1.296   8.824  22.046  0.00  0.00    +0.000 C 
ENDBRANCH  23  24
ENDBRANCH  21  23
ENDBRANCH   3  19
TORSDOF 5
ENDMDL
MODEL 4
REMARK VINA RESULT:      -8.7      2.655      5.961
REMARK  Name = 
REMARK  6 active torsions:
REMARK  status: ('A' for Active; 'I' for Inactive)
REMARK    1  A    between atoms: C_1  and  C_2
REMARK    2  A    between atoms: C_3  and  C_4
REMARK    3  A    between atoms: N_6  and  C_7
REMARK    4  A    between atoms: C_7  and  C_8
REMARK    5  A    between atoms: C_14  and  C_15
REMARK    6  A    between atoms: C_19  and  O_20
REMARK                            x       y       z     vdW  Elec       q    Type
REMARK                         _______ _______ _______ _____ _____    ______ ____
ROOT
ATOM      1  C   UNL     1       6.529   3.987  14.687  0.00  0.00    +0.000 C 
ATOM      2  C   UNL     1       6.372   4.904  15.874  0.00  0.00    +0.000 C 
ATOM      3  C   UNL     1       5.459   4.844  16.877  0.00  0.00    +0.000 C 
ATOM      4  C   UNL     1       5.525   5.857  18.007  0.00  0.00    +0.000 C 
ATOM      5  N   UNL     1       6.435   6.952  17.724  0.00  0.00    +0.000 N 
ATOM      6  C   UNL     1       7.399   6.918  16.773  0.00  0.00    +0.000 C 
ATOM      7  O   UNL     1       8.261   7.795  16.711  0.00  0.00    +0.000 OA
ATOM      8  N   UNL     1       7.329   5.894  15.896  0.00  0.00    +0.000 N 
ATOM      9  H   UNL     1       6.500   7.722  18.381  0.00  0.00    +0.000 HD
ATOM     10  H   UNL     1       8.030   5.928  15.163  0.00  0.00    +0.000 HD
ENDROOT
BRANCH   4  11
ATOM     11  C   UNL     1       4.194   6.467  18.419  0.00  0.00    +0.000 A 
ATOM     12  C   UNL     1       3.492   5.991  19.538  0.00  0.00    +0.000 A 
ATOM     13  C   UNL     1       2.293   6.590  19.929  0.00  0.00    +0.000 A 
ATOM     14  C   UNL     1       1.787   7.678  19.219  0.00  0.00    +0.000 A 
ATOM     15  C   UNL     1       2.475   8.141  18.103  0.00  0.00    +0.000 A 
ATOM     16  C   UNL     1       3.645   7.526  17.678  0.00  0.00    +0.000 A 
BRANCH  15  17
ATOM     17  O   UNL     1       2.046   9.229  17.402  0.00  0.00    +0.000 OA
ATOM     18  H   UNL     1       1.932   8.968  16.472  0.00  0.00    +0.000 HD
ENDBRANCH  15  17
ENDBRANCH   4  11
BRANCH   3  19
ATOM     19  C   UNL     1       4.407   3.766  16.890  0.00  0.00    +0.000 C 
ATOM     20  O   UNL     1       3.402   3.836  16.185  0.00  0.00    +0.000 OA
ATOM     21  N   UNL     1       4.593   2.703  17.744  0.00  0.00    +0.000 N 
ATOM     22  H   UNL     1       5.346   2.704  18.409  0.00  0.00    +0.000 HD
BRANCH  21  23
ATOM     23  C   UNL     1       3.568   1.697  17.950  0.00  0.00    +0.000 C 
BRANCH  23  24
ATOM     24  C   UNL     1       2.645   1.948  19.150  0.00  0.00    +0.000 C 
ATOM     25  C   UNL     1       1.495   2.897  18.792  0.00  0.00    +0.000 C 
ATOM     26  C   UNL     1       0.424   2.822  19.872  0.00  0.00    +0.000 C 
ATOM     27  C   UNL     1       0.988   3.210  21.236  0.00  0.00    +0.000 C 
ATOM     28  C   UNL     1       2.273   2.454  21.587  0.00  0.00    +0.000 C 
ATOM     29  C   UNL     1       3.307   2.452  20.444  0.00  0.00    +0.000 C 
ENDBRANCH  23  24
ENDBRANCH  21  23
ENDBRANCH   3  19
TORSDOF 5
ENDMDL
MODEL 5
REMARK VINA RESULT:      -8.7      1.168      1.713
REMARK  Name = 
REMARK  6 active torsions:
REMARK  status: ('A' for Active; 'I' for Inactive)
REMARK    1  A    between atoms: C_1  and  C_2
REMARK    2  A    between atoms: C_3  and  C_4
REMARK    3  A    between atoms: N_6  and  C_7
REMARK    4  A    between atoms: C_7  and  C_8
REMARK    5  A    between atoms: C_14  and  C_15
REMARK    6  A    between atoms: C_19  and  O_20
REMARK                            x       y       z     vdW  Elec       q    Type
REMARK                         _______ _______ _______ _____ _____    ______ ____
ROOT
ATOM      1  C   UNL     1       1.130   3.593  20.583  0.00  0.00    +0.000 C 
ATOM      2  C   UNL     1       2.553   3.700  20.096  0.00  0.00    +0.000 C 
ATOM      3  C   UNL     1       3.124   4.684  19.355  0.00  0.00    +0.000 C 
ATOM      4  C   UNL     1       4.603   4.602  19.021  0.00  0.00    +0.000 C 
ATOM      5  N   UNL     1       5.177   3.308  19.335  0.00  0.00    +0.000 N 
ATOM      6  C   UNL     1       4.609   2.400  20.165  0.00  0.00    +0.000 C 
ATOM      7  O   UNL     1       5.231   1.408  20.544  0.00  0.00    +0.000 OA
ATOM      8  N   UNL     1       3.326   2.640  20.514  0.00  0.00    +0.000 N 
ATOM      9  H   UNL     1       6.142   3.121  19.084  0.00  0.00    +0.000 HD
ATOM     10  H   UNL     1       2.911   1.914  21.089  0.00  0.00    +0.000 HD
ENDROOT
BRANCH   4  11
ATOM     11  C   UNL     1       4.968   4.925  17.580  0.00  0.00    +0.000 A 
ATOM     12  C   UNL     1       4.972   6.247  17.109  0.00  0.00    +0.000 A 
ATOM     13  C   UNL     1       5.352   6.531  15.796  0.00  0.00    +0.000 A 
ATOM     14  C   UNL     1       5.746   5.502  14.942  0.00  0.00    +0.000 A 
ATOM     15  C   UNL     1       5.730   4.191  15.403  0.00  0.00    +0.000 A 
ATOM     16  C   UNL     1       5.311   3.892  16.693  0.00  0.00    +0.000 A 
BRANCH  15  17
ATOM     17  O   UNL     1       6.147   3.155  14.622  0.00  0.00    +0.000 OA
ATOM     18  H   UNL     1       6.777   2.619  15.134  0.00  0.00    +0.000 HD
ENDBRANCH  15  17
ENDBRANCH   4  11
BRANCH   3  19
ATOM     19  C   UNL     1       2.308   5.864  18.893  0.00  0.00    +0.000 C 
ATOM     20  O   UNL     1       1.588   5.801  17.898  0.00  0.00    +0.000 OA
ATOM     21  N   UNL     1       2.418   7.034  19.608  0.00  0.00    +0.000 N 
ATOM     22  H   UNL     1       3.098   7.126  20.343  0.00  0.00    +0.000 HD
BRANCH  21  23
ATOM     23  C   UNL     1       1.803   8.268  19.156  0.00  0.00    +0.000 C 
BRANCH  23  24
ATOM     24  C   UNL     1       1.193   9.134  20.266  0.00  0.00    +0.000 C 
ATOM     25  C   UNL     1       0.919   8.318  21.535  0.00  0.00    +0.000 C 
ATOM     26  C   UNL     1       0.672   9.265  22.702  0.00  0.00    +0.000 C 
ATOM     27  C   UNL     1      -0.519  10.179  22.427  0.00  0.00    +0.000 C 
ATOM     28  C   UNL     1      -0.431  10.881  21.068  0.00  0.00    +0.000 C 
ATOM     29  C   UNL     1      -0.079   9.925  19.913  0.00  0.00    +0.000 C 
ENDBRANCH  23  24
ENDBRANCH  21  23
ENDBRANCH   3  19
TORSDOF 5
ENDMDL
MODEL 6
REMARK VINA RESULT:      -8.3      2.692      6.035
REMARK  Name = 
REMARK  6 active torsions:
REMARK  status: ('A' for Active; 'I' for Inactive)
REMARK    1  A    between atoms: C_1  and  C_2
REMARK    2  A    between atoms: C_3  and  C_4
REMARK    3  A    between atoms: N_6  and  C_7
REMARK    4  A    between atoms: C_7  and  C_8
REMARK    5  A    between atoms: C_14  and  C_15
REMARK    6  A    between atoms: C_19  and  O_20
REMARK                            x       y       z     vdW  Elec       q    Type
REMARK                         _______ _______ _______ _____ _____    ______ ____
ROOT
ATOM      1  C   UNL     1       6.498   3.942  14.697  0.00  0.00    +0.000 C 
ATOM      2  C   UNL     1       6.361   4.883  15.868  0.00  0.00    +0.000 C 
ATOM      3  C   UNL     1       5.445   4.860  16.870  0.00  0.00    +0.000 C 
ATOM      4  C   UNL     1       5.531   5.891  17.982  0.00  0.00    +0.000 C 
ATOM      5  N   UNL     1       6.465   6.961  17.682  0.00  0.00    +0.000 N 
ATOM      6  C   UNL     1       7.430   6.890  16.733  0.00  0.00    +0.000 C 
ATOM      7  O   UNL     1       8.311   7.746  16.658  0.00  0.00    +0.000 OA
ATOM      8  N   UNL     1       7.339   5.851  15.874  0.00  0.00    +0.000 N 
ATOM      9  H   UNL     1       6.546   7.740  18.326  0.00  0.00    +0.000 HD
ATOM     10  H   UNL     1       8.041   5.858  15.142  0.00  0.00    +0.000 HD
ENDROOT
BRANCH   4  11
ATOM     11  C   UNL     1       4.213   6.537  18.381  0.00  0.00    +0.000 A 
ATOM     12  C   UNL     1       3.608   7.514  17.576  0.00  0.00    +0.000 A 
ATOM     13  C   UNL     1       2.377   8.065  17.935  0.00  0.00    +0.000 A 
ATOM     14  C   UNL     1       1.727   7.639  19.092  0.00  0.00    +0.000 A 
ATOM     15  C   UNL     1       2.332   6.680  19.898  0.00  0.00    +0.000 A 
ATOM     16  C   UNL     1       3.577   6.157  19.574  0.00  0.00    +0.000 A 
BRANCH  15  17
ATOM     17  O   UNL     1       1.719   6.198  21.015  0.00  0.00    +0.000 OA
ATOM     18  H   UNL     1       2.346   6.251  21.756  0.00  0.00    +0.000 HD
ENDBRANCH  15  17
ENDBRANCH   4  11
BRANCH   3  19
ATOM     19  C   UNL     1       4.369   3.805  16.900  0.00  0.00    +0.000 C 
ATOM     20  O   UNL     1       3.328   3.927  16.257  0.00  0.00    +0.000 OA
ATOM     21  N   UNL     1       4.577   2.705  17.698  0.00  0.00    +0.000 N 
ATOM     22  H   UNL     1       5.367   2.662  18.319  0.00  0.00    +0.000 HD
BRANCH  21  23
ATOM     23  C   UNL     1       3.541   1.714  17.922  0.00  0.00    +0.000 C 
BRANCH  23  24
ATOM     24  C   UNL     1       2.679   1.946  19.170  0.00  0.00    +0.000 C 
ATOM     25  C   UNL     1       1.482   2.855  18.870  0.00  0.00    +0.000 C 
ATOM     26  C   UNL     1       0.475   2.757  20.008  0.00  0.00    +0.000 C 
ATOM     27  C   UNL     1       1.102   3.177  21.336  0.00  0.00    +0.000 C 
ATOM     28  C   UNL     1       2.428   2.465  21.620  0.00  0.00    +0.000 C 
ATOM     29  C   UNL     1       3.396   2.484  20.421  0.00  0.00    +0.000 C 
ENDBRANCH  23  24
ENDBRANCH  21  23
ENDBRANCH   3  19
TORSDOF 5
ENDMDL
MODEL 7
REMARK VINA RESULT:      -8.3      1.263      1.678
REMARK  Name = 
REMARK  6 active torsions:
REMARK  status: ('A' for Active; 'I' for Inactive)
REMARK    1  A    between atoms: C_1  and  C_2
REMARK    2  A    between atoms: C_3  and  C_4
REMARK    3  A    between atoms: N_6  and  C_7
REMARK    4  A    between atoms: C_7  and  C_8
REMARK    5  A    between atoms: C_14  and  C_15
REMARK    6  A    between atoms: C_19  and  O_20
REMARK                            x       y       z     vdW  Elec       q    Type
REMARK                         _______ _______ _______ _____ _____    ______ ____
ROOT
ATOM      1  C   UNL     1       1.053   3.234  19.699  0.00  0.00    +0.000 C 
ATOM      2  C   UNL     1       2.548   3.414  19.616  0.00  0.00    +0.000 C 
ATOM      3  C   UNL     1       3.250   4.437  19.063  0.00  0.00    +0.000 C 
ATOM      4  C   UNL     1       4.766   4.428  19.142  0.00  0.00    +0.000 C 
ATOM      5  N   UNL     1       5.296   3.154  19.592  0.00  0.00    +0.000 N 
ATOM      6  C   UNL     1       4.569   2.207  20.232  0.00  0.00    +0.000 C 
ATOM      7  O   UNL     1       5.113   1.237  20.759  0.00  0.00    +0.000 OA
ATOM      8  N   UNL     1       3.230   2.382  20.221  0.00  0.00    +0.000 N 
ATOM      9  H   UNL     1       6.301   3.017  19.611  0.00  0.00    +0.000 HD
ATOM     10  H   UNL     1       2.711   1.628  20.658  0.00  0.00    +0.000 HD
ENDROOT
BRANCH   4  11
ATOM     11  C   UNL     1       5.491   4.794  17.856  0.00  0.00    +0.000 A 
ATOM     12  C   UNL     1       6.257   5.966  17.761  0.00  0.00    +0.000 A 
ATOM     13  C   UNL     1       6.952   6.266  16.588  0.00  0.00    +0.000 A 
ATOM     14  C   UNL     1       6.903   5.394  15.501  0.00  0.00    +0.000 A 
ATOM     15  C   UNL     1       6.134   4.239  15.589  0.00  0.00    +0.000 A 
ATOM     16  C   UNL     1       5.403   3.952  16.735  0.00  0.00    +0.000 A 
BRANCH  15  17
ATOM     17  O   UNL     1       6.089   3.332  14.572  0.00  0.00    +0.000 OA
ATOM     18  H   UNL     1       5.416   3.623  13.933  0.00  0.00    +0.000 HD
ENDBRANCH  15  17
ENDBRANCH   4  11
BRANCH   3  19
ATOM     19  C   UNL     1       2.533   5.587  18.405  0.00  0.00    +0.000 C 
ATOM     20  O   UNL     1       1.717   5.408  17.503  0.00  0.00    +0.000 OA
ATOM     21  N   UNL     1       2.844   6.858  18.828  0.00  0.00    +0.000 N 
ATOM     22  H   UNL     1       3.599   7.015  19.474  0.00  0.00    +0.000 HD
BRANCH  21  23
ATOM     23  C   UNL     1       2.334   8.037  18.153  0.00  0.00    +0.000 C 
BRANCH  23  24
ATOM     24  C   UNL     1       1.271   8.823  18.933  0.00  0.00    +0.000 C 
ATOM     25  C   UNL     1       1.354  10.326  18.644  0.00  0.00    +0.000 C 
ATOM     26  C   UNL     1       0.080  11.005  19.131  0.00  0.00    +0.000 C 
ATOM     27  C   UNL     1      -0.120  10.792  20.629  0.00  0.00    +0.000 C 
ATOM     28  C   UNL     1      -0.006   9.321  21.043  0.00  0.00    +0.000 C 
ATOM     29  C   UNL     1       1.236   8.621  20.458  0.00  0.00    +0.000 C 
ENDBRANCH  23  24
ENDBRANCH  21  23
ENDBRANCH   3  19
TORSDOF 5
ENDMDL
MODEL 8
REMARK VINA RESULT:      -8.2      0.922      1.538
REMARK  Name = 
REMARK  6 active torsions:
REMARK  status: ('A' for Active; 'I' for Inactive)
REMARK    1  A    between atoms: C_1  and  C_2
REMARK    2  A    between atoms: C_3  and  C_4
REMARK    3  A    between atoms: N_6  and  C_7
REMARK    4  A    between atoms: C_7  and  C_8
REMARK    5  A    between atoms: C_14  and  C_15
REMARK    6  A    between atoms: C_19  and  O_20
REMARK                            x       y       z     vdW  Elec       q    Type
REMARK                         _______ _______ _______ _____ _____    ______ ____
ROOT
ATOM      1  C   UNL     1       1.032   3.178  20.285  0.00  0.00    +0.000 C 
ATOM      2  C   UNL     1       2.514   3.345  20.061  0.00  0.00    +0.000 C 
ATOM      3  C   UNL     1       3.159   4.290  19.330  0.00  0.00    +0.000 C 
ATOM      4  C   UNL     1       4.677   4.292  19.286  0.00  0.00    +0.000 C 
ATOM      5  N   UNL     1       5.254   3.085  19.850  0.00  0.00    +0.000 N 
ATOM      6  C   UNL     1       4.589   2.226  20.659  0.00  0.00    +0.000 C 
ATOM      7  O   UNL     1       5.184   1.330  21.260  0.00  0.00    +0.000 OA
ATOM      8  N   UNL     1       3.252   2.398  20.735  0.00  0.00    +0.000 N 
ATOM      9  H   UNL     1       6.258   2.951  19.805  0.00  0.00    +0.000 HD
ATOM     10  H   UNL     1       2.777   1.705  21.303  0.00  0.00    +0.000 HD
ENDROOT
BRANCH   4  11
ATOM     11  C   UNL     1       5.293   4.492  17.911  0.00  0.00    +0.000 A 
ATOM     12  C   UNL     1       4.885   3.721  16.811  0.00  0.00    +0.000 A 
ATOM     13  C   UNL     1       5.430   3.947  15.546  0.00  0.00    +0.000 A 
ATOM     14  C   UNL     1       6.376   4.953  15.359  0.00  0.00    +0.000 A 
ATOM     15  C   UNL     1       6.791   5.709  16.449  0.00  0.00    +0.000 A 
ATOM     16  C   UNL     1       6.290   5.463  17.721  0.00  0.00    +0.000 A 
BRANCH  15  17
ATOM     17  O   UNL     1       7.680   6.732  16.311  0.00  0.00    +0.000 OA
ATOM     18  H   UNL     1       7.396   7.287  15.565  0.00  0.00    +0.000 HD
ENDBRANCH  15  17
ENDBRANCH   4  11
BRANCH   3  19
ATOM     19  C   UNL     1       2.381   5.349  18.591  0.00  0.00    +0.000 C 
ATOM     20  O   UNL     1       1.612   5.063  17.675  0.00  0.00    +0.000 OA
ATOM     21  N   UNL     1       2.581   6.659  18.957  0.00  0.00    +0.000 N 
ATOM     22  H   UNL     1       3.299   6.905  19.617  0.00  0.00    +0.000 HD
BRANCH  21  23
ATOM     23  C   UNL     1       2.006   7.761  18.207  0.00  0.00    +0.000 C 
BRANCH  23  24
ATOM     24  C   UNL     1       1.813   9.058  19.004  0.00  0.00    +0.000 C 
ATOM     25  C   UNL     1       0.781   8.885  20.124  0.00  0.00    +0.000 C 
ATOM     26  C   UNL     1       0.894  10.051  21.098  0.00  0.00    +0.000 C 
ATOM     27  C   UNL     1       0.650  11.383  20.393  0.00  0.00    +0.000 C 
ATOM     28  C   UNL     1       1.497  11.551  19.127  0.00  0.00    +0.000 C 
ATOM     29  C   UNL     1       1.453  10.320  18.201  0.00  0.00    +0.000 C 
ENDBRANCH  23  24
ENDBRANCH  21  23
ENDBRANCH   3  19
TORSDOF 5
ENDMDL
MODEL 9
REMARK VINA RESULT:      -7.9      0.896      1.350
REMARK  Name = 
REMARK  6 active torsions:
REMARK  status: ('A' for Active; 'I' for Inactive)
REMARK    1  A    between atoms: C_1  and  C_2
REMARK    2  A    between atoms: C_3  and  C_4
REMARK    3  A    between atoms: N_6  and  C_7
REMARK    4  A    between atoms: C_7  and  C_8
REMARK    5  A    between atoms: C_14  and  C_15
REMARK    6  A    between atoms: C_19  and  O_20
REMARK                            x       y       z     vdW  Elec       q    Type
REMARK                         _______ _______ _______ _____ _____    ______ ____
ROOT
ATOM      1  C   UNL     1       0.965   3.427  19.263  0.00  0.00    +0.000 C 
ATOM      2  C   UNL     1       2.455   3.581  19.435  0.00  0.00    +0.000 C 
ATOM      3  C   UNL     1       3.211   4.704  19.319  0.00  0.00    +0.000 C 
ATOM      4  C   UNL     1       4.703   4.628  19.588  0.00  0.00    +0.000 C 
ATOM      5  N   UNL     1       5.185   3.264  19.693  0.00  0.00    +0.000 N 
ATOM      6  C   UNL     1       4.391   2.187  19.911  0.00  0.00    +0.000 C 
ATOM      7  O   UNL     1       4.874   1.088  20.183  0.00  0.00    +0.000 OA
ATOM      8  N   UNL     1       3.063   2.395  19.779  0.00  0.00    +0.000 N 
ATOM      9  H   UNL     1       6.180   3.098  19.800  0.00  0.00    +0.000 HD
ATOM     10  H   UNL     1       2.501   1.559  19.893  0.00  0.00    +0.000 HD
ENDROOT
BRANCH   4  11
ATOM     11  C   UNL     1       5.588   5.348  18.582  0.00  0.00    +0.000 A 
ATOM     12  C   UNL     1       6.765   6.000  18.983  0.00  0.00    +0.000 A 
ATOM     13  C   UNL     1       7.589   6.618  18.042  0.00  0.00    +0.000 A 
ATOM     14  C   UNL     1       7.258   6.583  16.688  0.00  0.00    +0.000 A 
ATOM     15  C   UNL     1       6.086   5.949  16.291  0.00  0.00    +0.000 A 
ATOM     16  C   UNL     1       5.235   5.369  17.223  0.00  0.00    +0.000 A 
BRANCH  15  17
ATOM     17  O   UNL     1       5.740   5.848  14.976  0.00  0.00    +0.000 OA
ATOM     18  H   UNL     1       6.548   5.700  14.457  0.00  0.00    +0.000 HD
ENDBRANCH  15  17
ENDBRANCH   4  11
BRANCH   3  19
ATOM     19  C   UNL     1       2.573   6.020  18.956  0.00  0.00    +0.000 C 
ATOM     20  O   UNL     1       2.256   6.286  17.798  0.00  0.00    +0.000 OA
ATOM     21  N   UNL     1       2.381   6.935  19.965  0.00  0.00    +0.000 N 
ATOM     22  H   UNL     1       2.752   6.771  20.885  0.00  0.00    +0.000 HD
BRANCH  21  23
ATOM     23  C   UNL     1       1.926   8.287  19.697  0.00  0.00    +0.000 C 
BRANCH  23  24
ATOM     24  C   UNL     1       0.935   8.853  20.722  0.00  0.00    +0.000 C 
ATOM     25  C   UNL     1       0.359  10.199  20.268  0.00  0.00    +0.000 C 
ATOM     26  C   UNL     1      -0.866  10.534  21.109  0.00  0.00    +0.000 C 
ATOM     27  C   UNL     1      -0.511  10.615  22.591  0.00  0.00    +0.000 C 
ATOM     28  C   UNL     1       0.262   9.389  23.086  0.00  0.00    +0.000 C 
ATOM     29  C   UNL     1       1.437   9.002  22.168  0.00  0.00    +0.000 C 
ENDBRANCH  23  24
ENDBRANCH  21  23
ENDBRANCH   3  19
TORSDOF 5
ENDMDL
