MODEL 1
REMARK VINA RESULT:      -7.2      0.000      0.000
REMARK  Name = 
REMARK  5 active torsions:
REMARK  status: ('A' for Active; 'I' for Inactive)
REMARK    1  A    between atoms: C_1  and  C_2
REMARK    2  A    between atoms: C_2  and  C_3
REMARK    3  A    between atoms: CA_6  and  N_7
REMARK    4  A    between atoms: CA_19  and  C_20
REMARK    5  A    between atoms: C_20  and  OXT_22
REMARK                            x       y       z     vdW  Elec       q    Type
REMARK                         _______ _______ _______ _____ _____    ______ ____
ROOT
ATOM      1  C   UNL     1       0.007  13.222  18.919  0.00  0.00    +0.000 C 
ATOM      2  C   UNL     1      -0.409  11.930  19.623  0.00  0.00    +0.000 C 
ATOM      3  C   UNL     1      -1.919  11.690  19.439  0.00  0.00    +0.000 C 
ATOM      4  S   UNL     1       0.487  10.510  18.860  0.00  0.00    +0.000 S 
ATOM      5  C   UNL     1       0.191   9.462  20.332  0.00  0.00    +0.000 C 
ATOM      6  CA  UNL     1       1.437   9.140  21.196  0.00  0.00    +0.000 C 
ATOM      7  C   UNL     1       0.525   9.702  22.340  0.00  0.00    +0.000 C 
ATOM      8  O   UNL     1       0.443   9.699  23.545  0.00  0.00    +0.000 OA
ATOM      9  N   UNL     1      -0.254  10.386  21.438  0.00  0.00    +0.000 N 
ATOM     10  CA  UNL     1       0.043  11.807  21.090  0.00  0.00    +0.000 C 
ENDROOT
BRANCH   6  11
ATOM     11  N   UNL     1       1.732   7.714  21.141  0.00  0.00    +0.000 NA
ATOM     12  C   UNL     1       2.132   7.276  19.995  0.00  0.00    +0.000 C 
ATOM     13  N   UNL     1       2.360   5.957  19.702  0.00  0.00    +0.000 N 
ATOM     14  C   UNL     1       2.825   5.544  18.382  0.00  0.00    +0.000 C 
ATOM     15  C   UNL     1       1.852   4.597  17.676  0.00  0.00    +0.000 C 
ATOM     16  C   UNL     1       1.831   3.206  18.304  0.00  0.00    +0.000 C 
ATOM     17  C   UNL     1       0.863   3.055  19.477  0.00  0.00    +0.000 C 
ATOM     18  C   UNL     1       0.770   4.241  20.437  0.00  0.00    +0.000 C 
ATOM     19  C   UNL     1       2.112   4.919  20.704  0.00  0.00    +0.000 C 
ENDBRANCH   6  11
BRANCH  10  20
ATOM     20  C   UNL     1      -0.546  12.884  21.999  0.00  0.00    +0.000 C 
ATOM     21  O   UNL     1      -1.716  12.910  22.338  0.00  0.00    +0.000 OA
BRANCH  20  22
ATOM     22  OXT UNL     1       0.334  13.841  22.373  0.00  0.00    +0.000 OA
ATOM     23  HXT UNL     1       1.261  13.522  22.385  0.00  0.00    +0.000 HD
ENDBRANCH  20  22
ENDBRANCH  10  20
TORSDOF 3
ENDMDL
MODEL 2
REMARK VINA RESULT:      -7.1      4.110      8.126
REMARK  Name = 
REMARK  5 active torsions:
REMARK  status: ('A' for Active; 'I' for Inactive)
REMARK    1  A    between atoms: C_1  and  C_2
REMARK    2  A    between atoms: C_2  and  C_3
REMARK    3  A    between atoms: CA_6  and  N_7
REMARK    4  A    between atoms: CA_19  and  C_20
REMARK    5  A    between atoms: C_20  and  OXT_22
REMARK                            x       y       z     vdW  Elec       q    Type
REMARK                         _______ _______ _______ _____ _____    ______ ____
ROOT
ATOM      1  C   UNL     1       2.017   2.183  21.558  0.00  0.00    +0.000 C 
ATOM      2  C   UNL     1       1.981   2.998  20.265  0.00  0.00    +0.000 C 
ATOM      3  C   UNL     1       1.274   2.198  19.154  0.00  0.00    +0.000 C 
ATOM      4  S   UNL     1       1.014   4.542  20.552  0.00  0.00    +0.000 S 
ATOM      5  C   UNL     1       1.775   5.354  19.097  0.00  0.00    +0.000 C 
ATOM      6  CA  UNL     1       2.764   6.507  19.405  0.00  0.00    +0.000 C 
ATOM      7  C   UNL     1       3.708   5.657  18.488  0.00  0.00    +0.000 C 
ATOM      8  O   UNL     1       4.725   5.773  17.846  0.00  0.00    +0.000 OA
ATOM      9  N   UNL     1       2.972   4.520  18.715  0.00  0.00    +0.000 N 
ATOM     10  CA  UNL     1       3.334   3.580  19.816  0.00  0.00    +0.000 C 
ENDROOT
BRANCH   6  11
ATOM     11  N   UNL     1       2.228   7.772  18.919  0.00  0.00    +0.000 NA
ATOM     12  C   UNL     1       1.780   8.569  19.828  0.00  0.00    +0.000 C 
ATOM     13  N   UNL     1       1.142   9.756  19.579  0.00  0.00    +0.000 N 
ATOM     14  C   UNL     1       0.674  10.608  20.666  0.00  0.00    +0.000 C 
ATOM     15  C   UNL     1      -0.840  10.829  20.644  0.00  0.00    +0.000 C 
ATOM     16  C   UNL     1      -1.281  11.738  19.499  0.00  0.00    +0.000 C 
ATOM     17  C   UNL     1      -1.536  11.015  18.178  0.00  0.00    +0.000 C 
ATOM     18  C   UNL     1      -0.565   9.888  17.823  0.00  0.00    +0.000 C 
ATOM     19  C   UNL     1       0.883  10.186  18.203  0.00  0.00    +0.000 C 
ENDBRANCH   6  11
BRANCH  10  20
ATOM     20  C   UNL     1       4.380   2.511  19.503  0.00  0.00    +0.000 C 
ATOM     21  O   UNL     1       5.113   2.022  20.345  0.00  0.00    +0.000 OA
BRANCH  20  22
ATOM     22  OXT UNL     1       4.460   2.174  18.196  0.00  0.00    +0.000 OA
ATOM     23  HXT UNL     1       5.383   2.047  17.890  0.00  0.00    +0.000 HD
ENDBRANCH  20  22
ENDBRANCH  10  20
TORSDOF 3
ENDMDL
MODEL 3
REMARK VINA RESULT:      -7.1      3.952      8.041
REMARK  Name = 
REMARK  5 active torsions:
REMARK  status: ('A' for Active; 'I' for Inactive)
REMARK    1  A    between atoms: C_1  and  C_2
REMARK    2  A    between atoms: C_2  and  C_3
REMARK    3  A    between atoms: CA_6  and  N_7
REMARK    4  A    between atoms: CA_19  and  C_20
REMARK    5  A    between atoms: C_20  and  OXT_22
REMARK                            x       y       z     vdW  Elec       q    Type
REMARK                         _______ _______ _______ _____ _____    ______ ____
ROOT
ATOM      1  C   UNL     1       5.538   3.880  15.904  0.00  0.00    +0.000 C 
ATOM      2  C   UNL     1       5.269   4.594  17.229  0.00  0.00    +0.000 C 
ATOM      3  C   UNL     1       6.548   4.611  18.090  0.00  0.00    +0.000 C 
ATOM      4  S   UNL     1       4.794   6.343  16.887  0.00  0.00    +0.000 S 
ATOM      5  C   UNL     1       4.017   6.511  18.537  0.00  0.00    +0.000 C 
ATOM      6  CA  UNL     1       2.470   6.615  18.549  0.00  0.00    +0.000 C 
ATOM      7  C   UNL     1       2.610   5.428  19.563  0.00  0.00    +0.000 C 
ATOM      8  O   UNL     1       1.970   4.855  20.412  0.00  0.00    +0.000 OA
ATOM      9  N   UNL     1       3.859   5.114  19.084  0.00  0.00    +0.000 N 
ATOM     10  CA  UNL     1       4.033   4.101  18.003  0.00  0.00    +0.000 C 
ENDROOT
BRANCH   6  11
ATOM     11  N   UNL     1       2.058   7.930  19.025  0.00  0.00    +0.000 NA
ATOM     12  C   UNL     1       1.874   8.024  20.298  0.00  0.00    +0.000 C 
ATOM     13  N   UNL     1       1.387   9.135  20.934  0.00  0.00    +0.000 N 
ATOM     14  C   UNL     1       1.219   9.166  22.383  0.00  0.00    +0.000 C 
ATOM     15  C   UNL     1      -0.233   9.394  22.812  0.00  0.00    +0.000 C 
ATOM     16  C   UNL     1      -0.703  10.822  22.545  0.00  0.00    +0.000 C 
ATOM     17  C   UNL     1      -1.258  11.054  21.140  0.00  0.00    +0.000 C 
ATOM     18  C   UNL     1      -0.528  10.348  19.997  0.00  0.00    +0.000 C 
ATOM     19  C   UNL     1       0.989  10.317  20.167  0.00  0.00    +0.000 C 
ENDBRANCH   6  11
BRANCH  10  20
ATOM     20  C   UNL     1       4.128   2.637  18.430  0.00  0.00    +0.000 C 
ATOM     21  O   UNL     1       3.556   1.730  17.850  0.00  0.00    +0.000 OA
BRANCH  20  22
ATOM     22  OXT UNL     1       4.874   2.426  19.538  0.00  0.00    +0.000 OA
ATOM     23  HXT UNL     1       4.337   2.158  20.314  0.00  0.00    +0.000 HD
ENDBRANCH  20  22
ENDBRANCH  10  20
TORSDOF 3
ENDMDL
MODEL 4
REMARK VINA RESULT:      -6.9      4.061      8.126
REMARK  Name = 
REMARK  5 active torsions:
REMARK  status: ('A' for Active; 'I' for Inactive)
REMARK    1  A    between atoms: C_1  and  C_2
REMARK    2  A    between atoms: C_2  and  C_3
REMARK    3  A    between atoms: CA_6  and  N_7
REMARK    4  A    between atoms: CA_19  and  C_20
REMARK    5  A    between atoms: C_20  and  OXT_22
REMARK                            x       y       z     vdW  Elec       q    Type
REMARK                         _______ _______ _______ _____ _____    ______ ____
ROOT
ATOM      1  C   UNL     1       4.759   1.914  19.878  0.00  0.00    +0.000 C 
ATOM      2  C   UNL     1       3.741   2.870  19.255  0.00  0.00    +0.000 C 
ATOM      3  C   UNL     1       2.933   2.143  18.164  0.00  0.00    +0.000 C 
ATOM      4  S   UNL     1       2.560   3.427  20.558  0.00  0.00    +0.000 S 
ATOM      5  C   UNL     1       2.066   4.883  19.562  0.00  0.00    +0.000 C 
ATOM      6  CA  UNL     1       2.534   6.260  20.099  0.00  0.00    +0.000 C 
ATOM      7  C   UNL     1       3.101   6.395  18.644  0.00  0.00    +0.000 C 
ATOM      8  O   UNL     1       3.493   7.243  17.879  0.00  0.00    +0.000 OA
ATOM      9  N   UNL     1       3.098   5.032  18.473  0.00  0.00    +0.000 N 
ATOM     10  CA  UNL     1       4.311   4.219  18.781  0.00  0.00    +0.000 C 
ENDROOT
BRANCH   6  11
ATOM     11  N   UNL     1       1.384   7.059  20.505  0.00  0.00    +0.000 NA
ATOM     12  C   UNL     1       1.412   8.295  20.139  0.00  0.00    +0.000 C 
ATOM     13  N   UNL     1       0.487   9.237  20.505  0.00  0.00    +0.000 N 
ATOM     14  C   UNL     1       0.584  10.615  20.037  0.00  0.00    +0.000 C 
ATOM     15  C   UNL     1       0.730  11.625  21.178  0.00  0.00    +0.000 C 
ATOM     16  C   UNL     1      -0.561  11.794  21.977  0.00  0.00    +0.000 C 
ATOM     17  C   UNL     1      -0.740  10.789  23.114  0.00  0.00    +0.000 C 
ATOM     18  C   UNL     1      -0.295   9.354  22.826  0.00  0.00    +0.000 C 
ATOM     19  C   UNL     1      -0.612   8.888  21.407  0.00  0.00    +0.000 C 
ENDBRANCH   6  11
BRANCH  10  20
ATOM     20  C   UNL     1       5.356   4.081  17.674  0.00  0.00    +0.000 C 
ATOM     21  O   UNL     1       5.074   3.969  16.494  0.00  0.00    +0.000 OA
BRANCH  20  22
ATOM     22  OXT UNL     1       6.635   4.054  18.115  0.00  0.00    +0.000 OA
ATOM     23  HXT UNL     1       7.036   4.946  18.177  0.00  0.00    +0.000 HD
ENDBRANCH  20  22
ENDBRANCH  10  20
TORSDOF 3
ENDMDL
MODEL 5
REMARK VINA RESULT:      -6.6      4.341      8.347
REMARK  Name = 
REMARK  5 active torsions:
REMARK  status: ('A' for Active; 'I' for Inactive)
REMARK    1  A    between atoms: C_1  and  C_2
REMARK    2  A    between atoms: C_2  and  C_3
REMARK    3  A    between atoms: CA_6  and  N_7
REMARK    4  A    between atoms: CA_19  and  C_20
REMARK    5  A    between atoms: C_20  and  OXT_22
REMARK                            x       y       z     vdW  Elec       q    Type
REMARK                         _______ _______ _______ _____ _____    ______ ____
ROOT
ATOM      1  C   UNL     1       4.330   2.609  20.020  0.00  0.00    +0.000 C 
ATOM      2  C   UNL     1       3.788   3.473  18.881  0.00  0.00    +0.000 C 
ATOM      3  C   UNL     1       3.342   2.581  17.707  0.00  0.00    +0.000 C 
ATOM      4  S   UNL     1       2.311   4.403  19.478  0.00  0.00    +0.000 S 
ATOM      5  C   UNL     1       2.468   5.627  18.124  0.00  0.00    +0.000 C 
ATOM      6  CA  UNL     1       2.916   7.050  18.546  0.00  0.00    +0.000 C 
ATOM      7  C   UNL     1       4.000   6.805  17.441  0.00  0.00    +0.000 C 
ATOM      8  O   UNL     1       4.782   7.422  16.759  0.00  0.00    +0.000 OA
ATOM      9  N   UNL     1       3.842   5.443  17.532  0.00  0.00    +0.000 N 
ATOM     10  CA  UNL     1       4.704   4.630  18.440  0.00  0.00    +0.000 C 
ENDROOT
BRANCH   6  11
ATOM     11  N   UNL     1       1.842   8.006  18.307  0.00  0.00    +0.000 NA
ATOM     12  C   UNL     1       2.181   9.248  18.385  0.00  0.00    +0.000 C 
ATOM     13  N   UNL     1       1.308  10.301  18.299  0.00  0.00    +0.000 N 
ATOM     14  C   UNL     1       1.774  11.681  18.385  0.00  0.00    +0.000 C 
ATOM     15  C   UNL     1       1.166  12.444  19.564  0.00  0.00    +0.000 C 
ATOM     16  C   UNL     1      -0.312  12.765  19.352  0.00  0.00    +0.000 C 
ATOM     17  C   UNL     1      -1.270  11.658  19.792  0.00  0.00    +0.000 C 
ATOM     18  C   UNL     1      -0.831  10.224  19.496  0.00  0.00    +0.000 C 
ATOM     19  C   UNL     1      -0.130  10.064  18.150  0.00  0.00    +0.000 C 
ENDBRANCH   6  11
BRANCH  10  20
ATOM     20  C   UNL     1       6.050   4.163  17.889  0.00  0.00    +0.000 C 
ATOM     21  O   UNL     1       7.096   4.253  18.507  0.00  0.00    +0.000 OA
BRANCH  20  22
ATOM     22  OXT UNL     1       5.997   3.670  16.631  0.00  0.00    +0.000 OA
ATOM     23  HXT UNL     1       5.419   2.881  16.554  0.00  0.00    +0.000 HD
ENDBRANCH  20  22
ENDBRANCH  10  20
TORSDOF 3
ENDMDL
MODEL 6
REMARK VINA RESULT:      -6.3      4.070      7.708
REMARK  Name = 
REMARK  5 active torsions:
REMARK  status: ('A' for Active; 'I' for Inactive)
REMARK    1  A    between atoms: C_1  and  C_2
REMARK    2  A    between atoms: C_2  and  C_3
REMARK    3  A    between atoms: CA_6  and  N_7
REMARK    4  A    between atoms: CA_19  and  C_20
REMARK    5  A    between atoms: C_20  and  OXT_22
REMARK                            x       y       z     vdW  Elec       q    Type
REMARK                         _______ _______ _______ _____ _____    ______ ____
ROOT
ATOM      1  C   UNL     1       6.327   4.356  18.441  0.00  0.00    +0.000 C 
ATOM      2  C   UNL     1       4.924   4.867  18.112  0.00  0.00    +0.000 C 
ATOM      3  C   UNL     1       4.210   3.881  17.167  0.00  0.00    +0.000 C 
ATOM      4  S   UNL     1       3.939   4.971  19.668  0.00  0.00    +0.000 S 
ATOM      5  C   UNL     1       2.749   6.133  18.900  0.00  0.00    +0.000 C 
ATOM      6  CA  UNL     1       2.797   7.593  19.420  0.00  0.00    +0.000 C 
ATOM      7  C   UNL     1       2.943   7.907  17.892  0.00  0.00    +0.000 C 
ATOM      8  O   UNL     1       2.827   8.830  17.121  0.00  0.00    +0.000 OA
ATOM      9  N   UNL     1       3.392   6.635  17.632  0.00  0.00    +0.000 N 
ATOM     10  CA  UNL     1       4.852   6.325  17.622  0.00  0.00    +0.000 C 
ENDROOT
BRANCH   6  11
ATOM     11  N   UNL     1       1.557   7.921  20.112  0.00  0.00    +0.000 NA
ATOM     12  C   UNL     1       1.052   9.072  19.823  0.00  0.00    +0.000 C 
ATOM     13  N   UNL     1      -0.046   9.616  20.436  0.00  0.00    +0.000 N 
ATOM     14  C   UNL     1      -0.564  10.922  20.043  0.00  0.00    +0.000 C 
ATOM     15  C   UNL     1      -0.546  11.941  21.184  0.00  0.00    +0.000 C 
ATOM     16  C   UNL     1      -1.597  11.643  22.251  0.00  0.00    +0.000 C 
ATOM     17  C   UNL     1      -1.140  10.670  23.337  0.00  0.00    +0.000 C 
ATOM     18  C   UNL     1      -0.281   9.493  22.875  0.00  0.00    +0.000 C 
ATOM     19  C   UNL     1      -0.713   8.909  21.532  0.00  0.00    +0.000 C 
ENDBRANCH   6  11
BRANCH  10  20
ATOM     20  C   UNL     1       5.606   6.564  16.315  0.00  0.00    +0.000 C 
ATOM     21  O   UNL     1       5.127   6.349  15.215  0.00  0.00    +0.000 OA
BRANCH  20  22
ATOM     22  OXT UNL     1       6.876   7.000  16.475  0.00  0.00    +0.000 OA
ATOM     23  HXT UNL     1       7.018   7.901  16.112  0.00  0.00    +0.000 HD
ENDBRANCH  20  22
ENDBRANCH  10  20
TORSDOF 3
ENDMDL
MODEL 7
REMARK VINA RESULT:      -6.2      2.410      2.896
REMARK  Name = 
REMARK  5 active torsions:
REMARK  status: ('A' for Active; 'I' for Inactive)
REMARK    1  A    between atoms: C_1  and  C_2
REMARK    2  A    between atoms: C_2  and  C_3
REMARK    3  A    between atoms: CA_6  and  N_7
REMARK    4  A    between atoms: CA_19  and  C_20
REMARK    5  A    between atoms: C_20  and  OXT_22
REMARK                            x       y       z     vdW  Elec       q    Type
REMARK                         _______ _______ _______ _____ _____    ______ ____
ROOT
ATOM      1  C   UNL     1      -2.076  12.291  20.895  0.00  0.00    +0.000 C 
ATOM      2  C   UNL     1      -0.612  11.886  20.723  0.00  0.00    +0.000 C 
ATOM      3  C   UNL     1       0.302  12.878  21.467  0.00  0.00    +0.000 C 
ATOM      4  S   UNL     1      -0.356  10.217  21.464  0.00  0.00    +0.000 S 
ATOM      5  C   UNL     1       1.177   9.963  20.495  0.00  0.00    +0.000 C 
ATOM      6  CA  UNL     1       1.097   8.903  19.366  0.00  0.00    +0.000 C 
ATOM      7  C   UNL     1       1.638  10.092  18.501  0.00  0.00    +0.000 C 
ATOM      8  O   UNL     1       2.175  10.295  17.439  0.00  0.00    +0.000 OA
ATOM      9  N   UNL     1       1.184  11.014  19.414  0.00  0.00    +0.000 N 
ATOM     10  CA  UNL     1      -0.166  11.634  19.271  0.00  0.00    +0.000 C 
ENDROOT
BRANCH   6  11
ATOM     11  N   UNL     1       1.969   7.775  19.673  0.00  0.00    +0.000 NA
ATOM     12  C   UNL     1       2.411   7.125  18.650  0.00  0.00    +0.000 C 
ATOM     13  N   UNL     1       3.154   5.976  18.721  0.00  0.00    +0.000 N 
ATOM     14  C   UNL     1       3.628   5.305  17.514  0.00  0.00    +0.000 C 
ATOM     15  C   UNL     1       3.094   3.878  17.376  0.00  0.00    +0.000 C 
ATOM     16  C   UNL     1       3.729   2.917  18.378  0.00  0.00    +0.000 C 
ATOM     17  C   UNL     1       3.031   2.866  19.737  0.00  0.00    +0.000 C 
ATOM     18  C   UNL     1       2.527   4.199  20.291  0.00  0.00    +0.000 C 
ATOM     19  C   UNL     1       3.467   5.370  20.017  0.00  0.00    +0.000 C 
ENDBRANCH   6  11
BRANCH  10  20
ATOM     20  C   UNL     1      -0.274  12.869  18.379  0.00  0.00    +0.000 C 
ATOM     21  O   UNL     1       0.381  13.882  18.552  0.00  0.00    +0.000 OA
BRANCH  20  22
ATOM     22  OXT UNL     1      -1.194  12.766  17.392  0.00  0.00    +0.000 OA
ATOM     23  HXT UNL     1      -1.906  13.436  17.463  0.00  0.00    +0.000 HD
ENDBRANCH  20  22
ENDBRANCH  10  20
TORSDOF 3
ENDMDL
MODEL 8
REMARK VINA RESULT:      -6.2      3.918      8.151
REMARK  Name = 
REMARK  5 active torsions:
REMARK  status: ('A' for Active; 'I' for Inactive)
REMARK    1  A    between atoms: C_1  and  C_2
REMARK    2  A    between atoms: C_2  and  C_3
REMARK    3  A    between atoms: CA_6  and  N_7
REMARK    4  A    between atoms: CA_19  and  C_20
REMARK    5  A    between atoms: C_20  and  OXT_22
REMARK                            x       y       z     vdW  Elec       q    Type
REMARK                         _______ _______ _______ _____ _____    ______ ____
ROOT
ATOM      1  C   UNL     1       5.336   4.151  15.754  0.00  0.00    +0.000 C 
ATOM      2  C   UNL     1       5.189   4.880  17.090  0.00  0.00    +0.000 C 
ATOM      3  C   UNL     1       6.521   4.842  17.863  0.00  0.00    +0.000 C 
ATOM      4  S   UNL     1       4.772   6.648  16.769  0.00  0.00    +0.000 S 
ATOM      5  C   UNL     1       4.114   6.856  18.466  0.00  0.00    +0.000 C 
ATOM      6  CA  UNL     1       2.579   7.032  18.580  0.00  0.00    +0.000 C 
ATOM      7  C   UNL     1       2.732   5.843  19.590  0.00  0.00    +0.000 C 
ATOM      8  O   UNL     1       2.124   5.302  20.482  0.00  0.00    +0.000 OA
ATOM      9  N   UNL     1       3.930   5.471  19.031  0.00  0.00    +0.000 N 
ATOM     10  CA  UNL     1       3.986   4.447  17.946  0.00  0.00    +0.000 C 
ENDROOT
BRANCH   6  11
ATOM     11  N   UNL     1       2.260   8.365  19.074  0.00  0.00    +0.000 NA
ATOM     12  C   UNL     1       1.019   8.706  18.984  0.00  0.00    +0.000 C 
ATOM     13  N   UNL     1       0.528   9.948  19.292  0.00  0.00    +0.000 N 
ATOM     14  C   UNL     1      -0.894  10.251  19.175  0.00  0.00    +0.000 C 
ATOM     15  C   UNL     1      -1.185  11.376  18.180  0.00  0.00    +0.000 C 
ATOM     16  C   UNL     1      -0.751  12.744  18.701  0.00  0.00    +0.000 C 
ATOM     17  C   UNL     1       0.708  13.097  18.416  0.00  0.00    +0.000 C 
ATOM     18  C   UNL     1       1.720  11.959  18.553  0.00  0.00    +0.000 C 
ATOM     19  C   UNL     1       1.431  11.019  19.720  0.00  0.00    +0.000 C 
ENDBRANCH   6  11
BRANCH  10  20
ATOM     20  C   UNL     1       4.042   2.981  18.375  0.00  0.00    +0.000 C 
ATOM     21  O   UNL     1       3.361   2.107  17.868  0.00  0.00    +0.000 OA
BRANCH  20  22
ATOM     22  OXT UNL     1       4.889   2.732  19.400  0.00  0.00    +0.000 OA
ATOM     23  HXT UNL     1       5.831   2.739  19.126  0.00  0.00    +0.000 HD
ENDBRANCH  20  22
ENDBRANCH  10  20
TORSDOF 3
ENDMDL
MODEL 9
REMARK VINA RESULT:      -6.1      0.996      1.409
REMARK  Name = 
REMARK  5 active torsions:
REMARK  status: ('A' for Active; 'I' for Inactive)
REMARK    1  A    between atoms: C_1  and  C_2
REMARK    2  A    between atoms: C_2  and  C_3
REMARK    3  A    between atoms: CA_6  and  N_7
REMARK    4  A    between atoms: CA_19  and  C_20
REMARK    5  A    between atoms: C_20  and  OXT_22
REMARK                            x       y       z     vdW  Elec       q    Type
REMARK                         _______ _______ _______ _____ _____    ______ ____
ROOT
ATOM      1  C   UNL     1       0.688  13.186  19.072  0.00  0.00    +0.000 C 
ATOM      2  C   UNL     1       0.066  11.834  19.419  0.00  0.00    +0.000 C 
ATOM      3  C   UNL     1      -1.381  11.767  18.895  0.00  0.00    +0.000 C 
ATOM      4  S   UNL     1       1.029  10.496  18.592  0.00  0.00    +0.000 S 
ATOM      5  C   UNL     1       0.373   9.235  19.748  0.00  0.00    +0.000 C 
ATOM      6  CA  UNL     1       1.388   8.655  20.765  0.00  0.00    +0.000 C 
ATOM      7  C   UNL     1       0.285   9.087  21.790  0.00  0.00    +0.000 C 
ATOM      8  O   UNL     1      -0.051   8.879  22.932  0.00  0.00    +0.000 OA
ATOM      9  N   UNL     1      -0.248   9.986  20.899  0.00  0.00    +0.000 N 
ATOM     10  CA  UNL     1       0.189  11.413  20.895  0.00  0.00    +0.000 C 
ENDROOT
BRANCH   6  11
ATOM     11  N   UNL     1       1.615   7.240  20.498  0.00  0.00    +0.000 NA
ATOM     12  C   UNL     1       2.721   6.961  19.896  0.00  0.00    +0.000 C 
ATOM     13  N   UNL     1       3.077   5.712  19.460  0.00  0.00    +0.000 N 
ATOM     14  C   UNL     1       4.355   5.477  18.797  0.00  0.00    +0.000 C 
ATOM     15  C   UNL     1       4.199   4.942  17.372  0.00  0.00    +0.000 C 
ATOM     16  C   UNL     1       3.710   3.496  17.341  0.00  0.00    +0.000 C 
ATOM     17  C   UNL     1       2.190   3.340  17.386  0.00  0.00    +0.000 C 
ATOM     18  C   UNL     1       1.437   4.298  18.309  0.00  0.00    +0.000 C 
ATOM     19  C   UNL     1       2.163   4.579  19.622  0.00  0.00    +0.000 C 
ENDBRANCH   6  11
BRANCH  10  20
ATOM     20  C   UNL     1      -0.523  12.362  21.858  0.00  0.00    +0.000 C 
ATOM     21  O   UNL     1      -0.003  13.360  22.325  0.00  0.00    +0.000 OA
BRANCH  20  22
ATOM     22  OXT UNL     1      -1.779  11.983  22.187  0.00  0.00    +0.000 OA
ATOM     23  HXT UNL     1      -2.435  12.187  21.487  0.00  0.00    +0.000 HD
ENDBRANCH  20  22
ENDBRANCH  10  20
TORSDOF 3
ENDMDL
