MODEL 1
REMARK VINA RESULT:      -7.6      0.000      0.000
REMARK  Name = 
REMARK  2 active torsions:
REMARK  status: ('A' for Active; 'I' for Inactive)
REMARK    1  A    between atoms: N_9  and  C_10
REMARK    2  A    between atoms: C_10  and  C_11
REMARK                            x       y       z     vdW  Elec       q    Type
REMARK                         _______ _______ _______ _____ _____    ______ ____
ROOT
ATOM      1  C   UNL     1       5.748   5.243  15.714  0.00  0.00    +0.000 A 
ATOM      2  C   UNL     1       5.850   6.443  16.403  0.00  0.00    +0.000 A 
ATOM      3  C   UNL     1       4.991   6.740  17.464  0.00  0.00    +0.000 A 
ATOM      4  C   UNL     1       4.013   5.792  17.816  0.00  0.00    +0.000 A 
ATOM      5  C   UNL     1       3.896   4.575  17.140  0.00  0.00    +0.000 A 
ATOM      6  C   UNL     1       4.781   4.300  16.076  0.00  0.00    +0.000 A 
ATOM      7  C   UNL     1       2.845   3.839  17.764  0.00  0.00    +0.000 A 
ATOM      8  C   UNL     1       2.309   4.642  18.756  0.00  0.00    +0.000 A 
ATOM      9  N   UNL     1       3.060   5.796  18.824  0.00  0.00    +0.000 N 
ATOM     10  C   UNL     1       1.200   4.249  19.675  0.00  0.00    +0.000 C 
ATOM     11  C   UNL     1       1.595   3.013  20.485  0.00  0.00    +0.000 C 
ATOM     12  C   UNL     1       1.633   1.704  19.680  0.00  0.00    +0.000 C 
ATOM     13  N   UNL     1       2.651   1.595  18.629  0.00  0.00    +0.000 NA
ATOM     14  C   UNL     1       2.395   2.448  17.463  0.00  0.00    +0.000 C 
ATOM     15  H   UNL     1       2.669   0.630  18.305  0.00  0.00    +0.000 HD
ENDROOT
BRANCH   9  16
ATOM     16  C   UNL     1       2.927   6.859  19.821  0.00  0.00    +0.000 C 
BRANCH  16  17
ATOM     17  C   UNL     1       2.001   7.992  19.424  0.00  0.00    +0.000 A 
ATOM     18  C   UNL     1       1.881   8.484  18.120  0.00  0.00    +0.000 A 
ATOM     19  C   UNL     1       1.034   9.558  17.879  0.00  0.00    +0.000 A 
ATOM     20  N   UNL     1       0.294  10.162  18.831  0.00  0.00    +0.000 NA
ATOM     21  C   UNL     1       0.399   9.664  20.079  0.00  0.00    +0.000 A 
ATOM     22  C   UNL     1       1.221   8.599  20.419  0.00  0.00    +0.000 A 
ENDBRANCH  16  17
ENDBRANCH   9  16
TORSDOF 2
ENDMDL
MODEL 2
REMARK VINA RESULT:      -7.6      1.480      1.917
REMARK  Name = 
REMARK  2 active torsions:
REMARK  status: ('A' for Active; 'I' for Inactive)
REMARK    1  A    between atoms: N_9  and  C_10
REMARK    2  A    between atoms: C_10  and  C_11
REMARK                            x       y       z     vdW  Elec       q    Type
REMARK                         _______ _______ _______ _____ _____    ______ ____
ROOT
ATOM      1  C   UNL     1       7.496   5.677  18.048  0.00  0.00    +0.000 A 
ATOM      2  C   UNL     1       7.003   6.876  17.555  0.00  0.00    +0.000 A 
ATOM      3  C   UNL     1       5.630   7.084  17.406  0.00  0.00    +0.000 A 
ATOM      4  C   UNL     1       4.755   6.043  17.764  0.00  0.00    +0.000 A 
ATOM      5  C   UNL     1       5.228   4.830  18.267  0.00  0.00    +0.000 A 
ATOM      6  C   UNL     1       6.620   4.649  18.412  0.00  0.00    +0.000 A 
ATOM      7  C   UNL     1       4.093   4.017  18.563  0.00  0.00    +0.000 A 
ATOM      8  C   UNL     1       2.967   4.724  18.179  0.00  0.00    +0.000 A 
ATOM      9  N   UNL     1       3.369   5.973  17.755  0.00  0.00    +0.000 N 
ATOM     10  C   UNL     1       1.559   4.251  18.336  0.00  0.00    +0.000 C 
ATOM     11  C   UNL     1       1.248   3.991  19.811  0.00  0.00    +0.000 C 
ATOM     12  C   UNL     1       1.924   2.742  20.398  0.00  0.00    +0.000 C 
ATOM     13  N   UNL     1       3.388   2.757  20.496  0.00  0.00    +0.000 NA
ATOM     14  C   UNL     1       4.071   2.668  19.200  0.00  0.00    +0.000 C 
ATOM     15  H   UNL     1       3.676   1.953  21.051  0.00  0.00    +0.000 HD
ENDROOT
BRANCH   9  16
ATOM     16  C   UNL     1       2.495   7.087  17.388  0.00  0.00    +0.000 C 
BRANCH  16  17
ATOM     17  C   UNL     1       2.017   7.932  18.552  0.00  0.00    +0.000 A 
ATOM     18  C   UNL     1       2.067   7.522  19.889  0.00  0.00    +0.000 A 
ATOM     19  C   UNL     1       1.557   8.361  20.872  0.00  0.00    +0.000 A 
ATOM     20  N   UNL     1       1.020   9.572  20.623  0.00  0.00    +0.000 NA
ATOM     21  C   UNL     1       0.999   9.967  19.334  0.00  0.00    +0.000 A 
ATOM     22  C   UNL     1       1.479   9.198  18.283  0.00  0.00    +0.000 A 
ENDBRANCH  16  17
ENDBRANCH   9  16
TORSDOF 2
ENDMDL
MODEL 3
REMARK VINA RESULT:      -7.6      1.716      5.205
REMARK  Name = 
REMARK  2 active torsions:
REMARK  status: ('A' for Active; 'I' for Inactive)
REMARK    1  A    between atoms: N_9  and  C_10
REMARK    2  A    between atoms: C_10  and  C_11
REMARK                            x       y       z     vdW  Elec       q    Type
REMARK                         _______ _______ _______ _____ _____    ______ ____
ROOT
ATOM      1  C   UNL     1       0.922   8.546  20.799  0.00  0.00    +0.000 A 
ATOM      2  C   UNL     1       1.548   9.108  19.696  0.00  0.00    +0.000 A 
ATOM      3  C   UNL     1       2.314   8.329  18.828  0.00  0.00    +0.000 A 
ATOM      4  C   UNL     1       2.443   6.955  19.101  0.00  0.00    +0.000 A 
ATOM      5  C   UNL     1       1.817   6.366  20.202  0.00  0.00    +0.000 A 
ATOM      6  C   UNL     1       1.044   7.178  21.060  0.00  0.00    +0.000 A 
ATOM      7  C   UNL     1       2.113   4.971  20.168  0.00  0.00    +0.000 A 
ATOM      8  C   UNL     1       2.956   4.754  19.091  0.00  0.00    +0.000 A 
ATOM      9  N   UNL     1       3.101   5.945  18.414  0.00  0.00    +0.000 N 
ATOM     10  C   UNL     1       3.491   3.424  18.673  0.00  0.00    +0.000 C 
ATOM     11  C   UNL     1       2.342   2.471  18.338  0.00  0.00    +0.000 C 
ATOM     12  C   UNL     1       1.549   1.970  19.555  0.00  0.00    +0.000 C 
ATOM     13  N   UNL     1       0.777   2.967  20.307  0.00  0.00    +0.000 NA
ATOM     14  C   UNL     1       1.605   3.902  21.077  0.00  0.00    +0.000 C 
ATOM     15  H   UNL     1       0.179   2.472  20.966  0.00  0.00    +0.000 HD
ENDROOT
BRANCH   9  16
ATOM     16  C   UNL     1       3.797   6.140  17.141  0.00  0.00    +0.000 C 
BRANCH  16  17
ATOM     17  C   UNL     1       5.213   5.600  17.101  0.00  0.00    +0.000 A 
ATOM     18  C   UNL     1       6.186   5.882  18.066  0.00  0.00    +0.000 A 
ATOM     19  C   UNL     1       7.466   5.371  17.903  0.00  0.00    +0.000 A 
ATOM     20  N   UNL     1       7.841   4.594  16.867  0.00  0.00    +0.000 NA
ATOM     21  C   UNL     1       6.889   4.308  15.956  0.00  0.00    +0.000 A 
ATOM     22  C   UNL     1       5.585   4.778  16.029  0.00  0.00    +0.000 A 
ENDBRANCH  16  17
ENDBRANCH   9  16
TORSDOF 2
ENDMDL
MODEL 4
REMARK VINA RESULT:      -7.5      1.714      5.117
REMARK  Name = 
REMARK  2 active torsions:
REMARK  status: ('A' for Active; 'I' for Inactive)
REMARK    1  A    between atoms: N_9  and  C_10
REMARK    2  A    between atoms: C_10  and  C_11
REMARK                            x       y       z     vdW  Elec       q    Type
REMARK                         _______ _______ _______ _____ _____    ______ ____
ROOT
ATOM      1  C   UNL     1       0.987   8.636  20.699  0.00  0.00    +0.000 A 
ATOM      2  C   UNL     1       1.572   9.168  19.559  0.00  0.00    +0.000 A 
ATOM      3  C   UNL     1       2.323   8.369  18.694  0.00  0.00    +0.000 A 
ATOM      4  C   UNL     1       2.479   7.007  19.011  0.00  0.00    +0.000 A 
ATOM      5  C   UNL     1       1.895   6.449  20.149  0.00  0.00    +0.000 A 
ATOM      6  C   UNL     1       1.136   7.279  21.003  0.00  0.00    +0.000 A 
ATOM      7  C   UNL     1       2.209   5.057  20.154  0.00  0.00    +0.000 A 
ATOM      8  C   UNL     1       3.022   4.814  19.061  0.00  0.00    +0.000 A 
ATOM      9  N   UNL     1       3.130   5.983  18.338  0.00  0.00    +0.000 N 
ATOM     10  C   UNL     1       3.563   3.477  18.672  0.00  0.00    +0.000 C 
ATOM     11  C   UNL     1       2.418   2.498  18.404  0.00  0.00    +0.000 C 
ATOM     12  C   UNL     1       1.669   2.030  19.662  0.00  0.00    +0.000 C 
ATOM     13  N   UNL     1       0.906   3.042  20.402  0.00  0.00    +0.000 NA
ATOM     14  C   UNL     1       1.744   4.014  21.114  0.00  0.00    +0.000 C 
ATOM     15  H   UNL     1       0.335   2.563  21.096  0.00  0.00    +0.000 HD
ENDROOT
BRANCH   9  16
ATOM     16  C   UNL     1       3.785   6.143  17.040  0.00  0.00    +0.000 C 
BRANCH  16  17
ATOM     17  C   UNL     1       5.197   5.597  16.967  0.00  0.00    +0.000 A 
ATOM     18  C   UNL     1       5.649   4.725  15.970  0.00  0.00    +0.000 A 
ATOM     19  C   UNL     1       6.953   4.249  16.028  0.00  0.00    +0.000 A 
ATOM     20  N   UNL     1       7.835   4.588  16.990  0.00  0.00    +0.000 NA
ATOM     21  C   UNL     1       7.397   5.448  17.931  0.00  0.00    +0.000 A 
ATOM     22  C   UNL     1       6.112   5.971  17.961  0.00  0.00    +0.000 A 
ENDBRANCH  16  17
ENDBRANCH   9  16
TORSDOF 2
ENDMDL
MODEL 5
REMARK VINA RESULT:      -7.5      1.969      5.189
REMARK  Name = 
REMARK  2 active torsions:
REMARK  status: ('A' for Active; 'I' for Inactive)
REMARK    1  A    between atoms: N_9  and  C_10
REMARK    2  A    between atoms: C_10  and  C_11
REMARK                            x       y       z     vdW  Elec       q    Type
REMARK                         _______ _______ _______ _____ _____    ______ ____
ROOT
ATOM      1  C   UNL     1       1.838   8.631  19.479  0.00  0.00    +0.000 A 
ATOM      2  C   UNL     1       2.249   8.626  18.154  0.00  0.00    +0.000 A 
ATOM      3  C   UNL     1       2.724   7.459  17.551  0.00  0.00    +0.000 A 
ATOM      4  C   UNL     1       2.781   6.285  18.323  0.00  0.00    +0.000 A 
ATOM      5  C   UNL     1       2.367   6.265  19.656  0.00  0.00    +0.000 A 
ATOM      6  C   UNL     1       1.886   7.458  20.238  0.00  0.00    +0.000 A 
ATOM      7  C   UNL     1       2.516   4.928  20.131  0.00  0.00    +0.000 A 
ATOM      8  C   UNL     1       3.070   4.184  19.104  0.00  0.00    +0.000 A 
ATOM      9  N   UNL     1       3.170   4.994  17.994  0.00  0.00    +0.000 N 
ATOM     10  C   UNL     1       3.371   2.722  19.166  0.00  0.00    +0.000 C 
ATOM     11  C   UNL     1       2.091   1.929  19.440  0.00  0.00    +0.000 C 
ATOM     12  C   UNL     1       1.549   2.061  20.872  0.00  0.00    +0.000 C 
ATOM     13  N   UNL     1       1.064   3.383  21.283  0.00  0.00    +0.000 NA
ATOM     14  C   UNL     1       2.128   4.378  21.463  0.00  0.00    +0.000 C 
ATOM     15  H   UNL     1       0.586   3.281  22.177  0.00  0.00    +0.000 HD
ENDROOT
BRANCH   9  16
ATOM     16  C   UNL     1       3.577   4.579  16.651  0.00  0.00    +0.000 C 
BRANCH  16  17
ATOM     17  C   UNL     1       5.072   4.603  16.403  0.00  0.00    +0.000 A 
ATOM     18  C   UNL     1       6.035   4.589  17.419  0.00  0.00    +0.000 A 
ATOM     19  C   UNL     1       7.379   4.662  17.077  0.00  0.00    +0.000 A 
ATOM     20  N   UNL     1       7.830   4.730  15.808  0.00  0.00    +0.000 NA
ATOM     21  C   UNL     1       6.895   4.718  14.836  0.00  0.00    +0.000 A 
ATOM     22  C   UNL     1       5.530   4.655  15.079  0.00  0.00    +0.000 A 
ENDBRANCH  16  17
ENDBRANCH   9  16
TORSDOF 2
ENDMDL
MODEL 6
REMARK VINA RESULT:      -7.4      0.176      1.037
REMARK  Name = 
REMARK  2 active torsions:
REMARK  status: ('A' for Active; 'I' for Inactive)
REMARK    1  A    between atoms: N_9  and  C_10
REMARK    2  A    between atoms: C_10  and  C_11
REMARK                            x       y       z     vdW  Elec       q    Type
REMARK                         _______ _______ _______ _____ _____    ______ ____
ROOT
ATOM      1  C   UNL     1       5.581   5.077  15.693  0.00  0.00    +0.000 A 
ATOM      2  C   UNL     1       5.755   6.286  16.351  0.00  0.00    +0.000 A 
ATOM      3  C   UNL     1       4.951   6.638  17.437  0.00  0.00    +0.000 A 
ATOM      4  C   UNL     1       3.952   5.736  17.847  0.00  0.00    +0.000 A 
ATOM      5  C   UNL     1       3.762   4.512  17.203  0.00  0.00    +0.000 A 
ATOM      6  C   UNL     1       4.593   4.180  16.111  0.00  0.00    +0.000 A 
ATOM      7  C   UNL     1       2.710   3.829  17.882  0.00  0.00    +0.000 A 
ATOM      8  C   UNL     1       2.245   4.672  18.877  0.00  0.00    +0.000 A 
ATOM      9  N   UNL     1       3.041   5.798  18.892  0.00  0.00    +0.000 N 
ATOM     10  C   UNL     1       1.158   4.341  19.847  0.00  0.00    +0.000 C 
ATOM     11  C   UNL     1       1.538   3.107  20.668  0.00  0.00    +0.000 C 
ATOM     12  C   UNL     1       1.494   1.782  19.890  0.00  0.00    +0.000 C 
ATOM     13  N   UNL     1       2.465   1.613  18.803  0.00  0.00    +0.000 NA
ATOM     14  C   UNL     1       2.195   2.452  17.630  0.00  0.00    +0.000 C 
ATOM     15  H   UNL     1       2.433   0.641  18.499  0.00  0.00    +0.000 HD
ENDROOT
BRANCH   9  16
ATOM     16  C   UNL     1       2.988   6.885  19.869  0.00  0.00    +0.000 C 
BRANCH  16  17
ATOM     17  C   UNL     1       2.017   7.999  19.531  0.00  0.00    +0.000 A 
ATOM     18  C   UNL     1       1.147   8.586  20.456  0.00  0.00    +0.000 A 
ATOM     19  C   UNL     1       0.266   9.569  20.024  0.00  0.00    +0.000 A 
ATOM     20  N   UNL     1       0.200  10.016  18.753  0.00  0.00    +0.000 NA
ATOM     21  C   UNL     1       1.060   9.461  17.876  0.00  0.00    +0.000 A 
ATOM     22  C   UNL     1       1.972   8.469  18.211  0.00  0.00    +0.000 A 
ENDBRANCH  16  17
ENDBRANCH   9  16
TORSDOF 2
ENDMDL
MODEL 7
REMARK VINA RESULT:      -7.4      1.573      1.945
REMARK  Name = 
REMARK  2 active torsions:
REMARK  status: ('A' for Active; 'I' for Inactive)
REMARK    1  A    between atoms: N_9  and  C_10
REMARK    2  A    between atoms: C_10  and  C_11
REMARK                            x       y       z     vdW  Elec       q    Type
REMARK                         _______ _______ _______ _____ _____    ______ ____
ROOT
ATOM      1  C   UNL     1       7.751   5.794  18.379  0.00  0.00    +0.000 A 
ATOM      2  C   UNL     1       7.319   7.000  17.847  0.00  0.00    +0.000 A 
ATOM      3  C   UNL     1       5.973   7.212  17.540  0.00  0.00    +0.000 A 
ATOM      4  C   UNL     1       5.063   6.166  17.778  0.00  0.00    +0.000 A 
ATOM      5  C   UNL     1       5.474   4.946  18.317  0.00  0.00    +0.000 A 
ATOM      6  C   UNL     1       6.839   4.762  18.623  0.00  0.00    +0.000 A 
ATOM      7  C   UNL     1       4.313   4.131  18.466  0.00  0.00    +0.000 A 
ATOM      8  C   UNL     1       3.239   4.844  17.961  0.00  0.00    +0.000 A 
ATOM      9  N   UNL     1       3.688   6.098  17.604  0.00  0.00    +0.000 N 
ATOM     10  C   UNL     1       1.823   4.370  17.944  0.00  0.00    +0.000 C 
ATOM     11  C   UNL     1       1.340   4.091  19.369  0.00  0.00    +0.000 C 
ATOM     12  C   UNL     1       1.942   2.833  20.015  0.00  0.00    +0.000 C 
ATOM     13  N   UNL     1       3.385   2.846  20.285  0.00  0.00    +0.000 NA
ATOM     14  C   UNL     1       4.216   2.773  19.078  0.00  0.00    +0.000 C 
ATOM     15  H   UNL     1       3.606   2.034  20.859  0.00  0.00    +0.000 HD
ENDROOT
BRANCH   9  16
ATOM     16  C   UNL     1       2.862   7.218  17.151  0.00  0.00    +0.000 C 
BRANCH  16  17
ATOM     17  C   UNL     1       2.174   7.990  18.258  0.00  0.00    +0.000 A 
ATOM     18  C   UNL     1       1.492   9.197  18.064  0.00  0.00    +0.000 A 
ATOM     19  C   UNL     1       0.937   9.843  19.160  0.00  0.00    +0.000 A 
ATOM     20  N   UNL     1       0.999   9.372  20.422  0.00  0.00    +0.000 NA
ATOM     21  C   UNL     1       1.636   8.197  20.594  0.00  0.00    +0.000 A 
ATOM     22  C   UNL     1       2.227   7.481  19.563  0.00  0.00    +0.000 A 
ENDBRANCH  16  17
ENDBRANCH   9  16
TORSDOF 2
ENDMDL
MODEL 8
REMARK VINA RESULT:      -7.3      1.133      3.784
REMARK  Name = 
REMARK  2 active torsions:
REMARK  status: ('A' for Active; 'I' for Inactive)
REMARK    1  A    between atoms: N_9  and  C_10
REMARK    2  A    between atoms: C_10  and  C_11
REMARK                            x       y       z     vdW  Elec       q    Type
REMARK                         _______ _______ _______ _____ _____    ______ ____
ROOT
ATOM      1  C   UNL     1       1.047   2.042  18.591  0.00  0.00    +0.000 A 
ATOM      2  C   UNL     1       0.587   2.920  19.562  0.00  0.00    +0.000 A 
ATOM      3  C   UNL     1       1.285   4.092  19.863  0.00  0.00    +0.000 A 
ATOM      4  C   UNL     1       2.473   4.360  19.160  0.00  0.00    +0.000 A 
ATOM      5  C   UNL     1       2.952   3.493  18.175  0.00  0.00    +0.000 A 
ATOM      6  C   UNL     1       2.224   2.319  17.888  0.00  0.00    +0.000 A 
ATOM      7  C   UNL     1       4.140   4.071  17.637  0.00  0.00    +0.000 A 
ATOM      8  C   UNL     1       4.390   5.236  18.343  0.00  0.00    +0.000 A 
ATOM      9  N   UNL     1       3.345   5.437  19.220  0.00  0.00    +0.000 N 
ATOM     10  C   UNL     1       5.527   6.169  18.088  0.00  0.00    +0.000 C 
ATOM     11  C   UNL     1       5.460   6.708  16.657  0.00  0.00    +0.000 C 
ATOM     12  C   UNL     1       5.821   5.684  15.569  0.00  0.00    +0.000 C 
ATOM     13  N   UNL     1       4.917   4.540  15.402  0.00  0.00    +0.000 NA
ATOM     14  C   UNL     1       4.973   3.572  16.504  0.00  0.00    +0.000 C 
ATOM     15  H   UNL     1       5.183   4.050  14.549  0.00  0.00    +0.000 HD
ENDROOT
BRANCH   9  16
ATOM     16  C   UNL     1       3.136   6.614  20.064  0.00  0.00    +0.000 C 
BRANCH  16  17
ATOM     17  C   UNL     1       2.267   7.693  19.448  0.00  0.00    +0.000 A 
ATOM     18  C   UNL     1       2.256   8.005  18.084  0.00  0.00    +0.000 A 
ATOM     19  C   UNL     1       1.454   9.046  17.636  0.00  0.00    +0.000 A 
ATOM     20  N   UNL     1       0.657   9.782  18.438  0.00  0.00    +0.000 NA
ATOM     21  C   UNL     1       0.657   9.456  19.746  0.00  0.00    +0.000 A 
ATOM     22  C   UNL     1       1.428   8.437  20.289  0.00  0.00    +0.000 A 
ENDBRANCH  16  17
ENDBRANCH   9  16
TORSDOF 2
ENDMDL
MODEL 9
REMARK VINA RESULT:      -7.2      2.034      5.031
REMARK  Name = 
REMARK  2 active torsions:
REMARK  status: ('A' for Active; 'I' for Inactive)
REMARK    1  A    between atoms: N_9  and  C_10
REMARK    2  A    between atoms: C_10  and  C_11
REMARK                            x       y       z     vdW  Elec       q    Type
REMARK                         _______ _______ _______ _____ _____    ______ ____
ROOT
ATOM      1  C   UNL     1       2.104   8.569  19.025  0.00  0.00    +0.000 A 
ATOM      2  C   UNL     1       2.510   8.424  17.706  0.00  0.00    +0.000 A 
ATOM      3  C   UNL     1       2.925   7.185  17.213  0.00  0.00    +0.000 A 
ATOM      4  C   UNL     1       2.928   6.084  18.089  0.00  0.00    +0.000 A 
ATOM      5  C   UNL     1       2.518   6.206  19.418  0.00  0.00    +0.000 A 
ATOM      6  C   UNL     1       2.098   7.469  19.889  0.00  0.00    +0.000 A 
ATOM      7  C   UNL     1       2.603   4.912  20.013  0.00  0.00    +0.000 A 
ATOM      8  C   UNL     1       3.117   4.051  19.058  0.00  0.00    +0.000 A 
ATOM      9  N   UNL     1       3.252   4.752  17.878  0.00  0.00    +0.000 N 
ATOM     10  C   UNL     1       3.346   2.589  19.253  0.00  0.00    +0.000 C 
ATOM     11  C   UNL     1       2.030   1.887  19.597  0.00  0.00    +0.000 C 
ATOM     12  C   UNL     1       1.501   2.176  21.011  0.00  0.00    +0.000 C 
ATOM     13  N   UNL     1       1.082   3.552  21.299  0.00  0.00    +0.000 NA
ATOM     14  C   UNL     1       2.194   4.505  21.389  0.00  0.00    +0.000 C 
ATOM     15  H   UNL     1       0.603   3.555  22.198  0.00  0.00    +0.000 HD
ENDROOT
BRANCH   9  16
ATOM     16  C   UNL     1       3.633   4.197  16.579  0.00  0.00    +0.000 C 
BRANCH  16  17
ATOM     17  C   UNL     1       5.043   4.530  16.133  0.00  0.00    +0.000 A 
ATOM     18  C   UNL     1       5.413   4.738  14.800  0.00  0.00    +0.000 A 
ATOM     19  C   UNL     1       6.746   4.992  14.501  0.00  0.00    +0.000 A 
ATOM     20  N   UNL     1       7.724   5.068  15.426  0.00  0.00    +0.000 NA
ATOM     21  C   UNL     1       7.351   4.890  16.710  0.00  0.00    +0.000 A 
ATOM     22  C   UNL     1       6.047   4.626  17.106  0.00  0.00    +0.000 A 
ENDBRANCH  16  17
ENDBRANCH   9  16
TORSDOF 2
ENDMDL
