MODEL 1
REMARK VINA RESULT:      -8.9      0.000      0.000
REMARK  Name = 
REMARK  4 active torsions:
REMARK  status: ('A' for Active; 'I' for Inactive)
REMARK    1  A    between atoms: C_1  and  C_2
REMARK    2  A    between atoms: C_7  and  N_8
REMARK    3  A    between atoms: N_11  and  C_12
REMARK    4  A    between atoms: C_16  and  C_17
REMARK                            x       y       z     vdW  Elec       q    Type
REMARK                         _______ _______ _______ _____ _____    ______ ____
ROOT
ATOM      1  C   UNL     1       2.856   5.543  19.312  0.00  0.00    +0.000 C 
ATOM      2  C   UNL     1       2.589   5.571  17.788  0.00  0.00    +0.000 C 
ATOM      3  C   UNL     1       3.125   4.368  17.005  0.00  0.00    +0.000 C 
ATOM      4  C   UNL     1       2.815   3.029  17.684  0.00  0.00    +0.000 C 
ATOM      5  C   UNL     1       3.066   3.001  19.208  0.00  0.00    +0.000 C 
ATOM      6  C   UNL     1       2.543   1.649  19.737  0.00  0.00    +0.000 C 
ATOM      7  C   UNL     1       4.567   3.106  19.557  0.00  0.00    +0.000 C 
ATOM      8  C   UNL     1       5.215   4.439  19.163  0.00  0.00    +0.000 C 
ATOM      9  C   UNL     1       4.375   5.655  19.596  0.00  0.00    +0.000 C 
ATOM     10  C   UNL     1       5.578   4.470  17.692  0.00  0.00    +0.000 A 
ATOM     11  C   UNL     1       6.935   4.454  17.323  0.00  0.00    +0.000 A 
ATOM     12  C   UNL     1       7.316   4.494  15.982  0.00  0.00    +0.000 A 
ATOM     13  C   UNL     1       6.347   4.559  14.989  0.00  0.00    +0.000 A 
ATOM     14  C   UNL     1       4.999   4.552  15.339  0.00  0.00    +0.000 A 
ATOM     15  C   UNL     1       4.599   4.487  16.686  0.00  0.00    +0.000 A 
ATOM     16  C   UNL     1       2.328   4.191  19.865  0.00  0.00    +0.000 C 
ENDROOT
BRANCH   1  20
ATOM     17  N   UNL     1       1.324   8.842  20.081  0.00  0.00    +0.000 N 
ATOM     18  C   UNL     1       2.025   7.943  19.300  0.00  0.00    +0.000 C 
ATOM     19  O   UNL     1       2.499   8.229  18.209  0.00  0.00    +0.000 OA
ATOM     20  N   UNL     1       2.138   6.712  19.895  0.00  0.00    +0.000 N 
ATOM     21  H   UNL     1       0.629   8.446  20.701  0.00  0.00    +0.000 HD
ATOM     22  H   UNL     1       1.955   6.691  20.888  0.00  0.00    +0.000 HD
BRANCH  17  29
ATOM     23  C   UNL     1      -3.451  12.555  19.664  0.00  0.00    +0.000 C 
ATOM     24  C   UNL     1      -2.282  12.487  20.614  0.00  0.00    +0.000 C 
ATOM     25  O   UNL     1      -2.180  13.324  21.513  0.00  0.00    +0.000 OA
ATOM     26  N   UNL     1      -1.369  11.454  20.446  0.00  0.00    +0.000 N 
ATOM     27  C   UNL     1      -0.301  11.285  21.426  0.00  0.00    +0.000 C 
ATOM     28  C   UNL     1       1.062  11.237  20.748  0.00  0.00    +0.000 C 
ATOM     29  C   UNL     1       1.129  10.219  19.606  0.00  0.00    +0.000 C 
ATOM     30  C   UNL     1      -0.074  10.361  18.659  0.00  0.00    +0.000 C 
ATOM     31  C   UNL     1      -1.410  10.437  19.397  0.00  0.00    +0.000 C 
ENDBRANCH  17  29
ENDBRANCH   1  20
TORSDOF 2
ENDMDL
MODEL 2
REMARK VINA RESULT:      -8.6      1.011      1.125
REMARK  Name = 
REMARK  4 active torsions:
REMARK  status: ('A' for Active; 'I' for Inactive)
REMARK    1  A    between atoms: C_1  and  C_2
REMARK    2  A    between atoms: C_7  and  N_8
REMARK    3  A    between atoms: N_11  and  C_12
REMARK    4  A    between atoms: C_16  and  C_17
REMARK                            x       y       z     vdW  Elec       q    Type
REMARK                         _______ _______ _______ _____ _____    ______ ____
ROOT
ATOM      1  C   UNL     1       3.330   5.826  18.910  0.00  0.00    +0.000 C 
ATOM      2  C   UNL     1       2.802   5.282  17.561  0.00  0.00    +0.000 C 
ATOM      3  C   UNL     1       3.524   4.040  17.028  0.00  0.00    +0.000 C 
ATOM      4  C   UNL     1       3.748   2.972  18.104  0.00  0.00    +0.000 C 
ATOM      5  C   UNL     1       4.261   3.513  19.457  0.00  0.00    +0.000 C 
ATOM      6  C   UNL     1       4.262   2.336  20.454  0.00  0.00    +0.000 C 
ATOM      7  C   UNL     1       5.700   4.064  19.361  0.00  0.00    +0.000 C 
ATOM      8  C   UNL     1       5.844   5.298  18.462  0.00  0.00    +0.000 C 
ATOM      9  C   UNL     1       4.773   6.366  18.747  0.00  0.00    +0.000 C 
ATOM     10  C   UNL     1       5.917   4.916  16.997  0.00  0.00    +0.000 A 
ATOM     11  C   UNL     1       7.131   5.083  16.306  0.00  0.00    +0.000 A 
ATOM     12  C   UNL     1       7.241   4.756  14.956  0.00  0.00    +0.000 A 
ATOM     13  C   UNL     1       6.136   4.266  14.271  0.00  0.00    +0.000 A 
ATOM     14  C   UNL     1       4.935   4.073  14.947  0.00  0.00    +0.000 A 
ATOM     15  C   UNL     1       4.816   4.374  16.316  0.00  0.00    +0.000 A 
ATOM     16  C   UNL     1       3.331   4.656  19.931  0.00  0.00    +0.000 C 
ENDROOT
BRANCH   1  20
ATOM     17  N   UNL     1       1.290   8.920  19.211  0.00  0.00    +0.000 N 
ATOM     18  C   UNL     1       2.164   8.058  18.577  0.00  0.00    +0.000 C 
ATOM     19  O   UNL     1       2.665   8.293  17.485  0.00  0.00    +0.000 OA
ATOM     20  N   UNL     1       2.413   6.929  19.316  0.00  0.00    +0.000 N 
ATOM     21  H   UNL     1       0.619   8.492  19.837  0.00  0.00    +0.000 HD
ATOM     22  H   UNL     1       2.168   6.988  20.295  0.00  0.00    +0.000 HD
BRANCH  17  29
ATOM     23  C   UNL     1      -2.635  13.361  20.487  0.00  0.00    +0.000 C 
ATOM     24  C   UNL     1      -1.138  13.244  20.621  0.00  0.00    +0.000 C 
ATOM     25  O   UNL     1      -0.489  14.198  21.052  0.00  0.00    +0.000 OA
ATOM     26  N   UNL     1      -0.548  12.036  20.267  0.00  0.00    +0.000 N 
ATOM     27  C   UNL     1       0.878  11.848  20.506  0.00  0.00    +0.000 C 
ATOM     28  C   UNL     1       1.592  11.401  19.238  0.00  0.00    +0.000 C 
ATOM     29  C   UNL     1       0.931  10.192  18.570  0.00  0.00    +0.000 C 
ATOM     30  C   UNL     1      -0.589  10.389  18.437  0.00  0.00    +0.000 C 
ATOM     31  C   UNL     1      -1.244  10.868  19.732  0.00  0.00    +0.000 C 
ENDBRANCH  17  29
ENDBRANCH   1  20
TORSDOF 2
ENDMDL
MODEL 3
REMARK VINA RESULT:      -8.4      7.273     10.049
REMARK  Name = 
REMARK  4 active torsions:
REMARK  status: ('A' for Active; 'I' for Inactive)
REMARK    1  A    between atoms: C_1  and  C_2
REMARK    2  A    between atoms: C_7  and  N_8
REMARK    3  A    between atoms: N_11  and  C_12
REMARK    4  A    between atoms: C_16  and  C_17
REMARK                            x       y       z     vdW  Elec       q    Type
REMARK                         _______ _______ _______ _____ _____    ______ ____
ROOT
ATOM      1  C   UNL     1       8.817  10.996  18.276  0.00  0.00    +0.000 C 
ATOM      2  C   UNL     1      10.293  10.938  17.814  0.00  0.00    +0.000 C 
ATOM      3  C   UNL     1      11.234  11.933  18.500  0.00  0.00    +0.000 C 
ATOM      4  C   UNL     1      11.042  11.985  20.021  0.00  0.00    +0.000 C 
ATOM      5  C   UNL     1       9.570  12.029  20.486  0.00  0.00    +0.000 C 
ATOM      6  C   UNL     1       9.568  11.905  22.024  0.00  0.00    +0.000 C 
ATOM      7  C   UNL     1       8.874  13.355  20.109  0.00  0.00    +0.000 C 
ATOM      8  C   UNL     1       8.726  13.583  18.600  0.00  0.00    +0.000 C 
ATOM      9  C   UNL     1       8.176  12.346  17.867  0.00  0.00    +0.000 C 
ATOM     10  C   UNL     1      10.009  14.108  17.986  0.00  0.00    +0.000 A 
ATOM     11  C   UNL     1      10.051  15.433  17.519  0.00  0.00    +0.000 A 
ATOM     12  C   UNL     1      11.204  15.954  16.935  0.00  0.00    +0.000 A 
ATOM     13  C   UNL     1      12.333  15.156  16.802  0.00  0.00    +0.000 A 
ATOM     14  C   UNL     1      12.314  13.849  17.283  0.00  0.00    +0.000 A 
ATOM     15  C   UNL     1      11.166  13.317  17.896  0.00  0.00    +0.000 A 
ATOM     16  C   UNL     1       8.794  10.865  19.823  0.00  0.00    +0.000 C 
ENDROOT
BRANCH   1  20
ATOM     17  N   UNL     1       7.462   7.722  17.151  0.00  0.00    +0.000 N 
ATOM     18  C   UNL     1       8.207   8.550  17.970  0.00  0.00    +0.000 C 
ATOM     19  O   UNL     1       8.882   8.139  18.904  0.00  0.00    +0.000 OA
ATOM     20  N   UNL     1       8.112   9.869  17.603  0.00  0.00    +0.000 N 
ATOM     21  H   UNL     1       6.641   8.136  16.727  0.00  0.00    +0.000 HD
ATOM     22  H   UNL     1       7.762  10.036  16.669  0.00  0.00    +0.000 HD
BRANCH  17  29
ATOM     23  C   UNL     1       3.378   3.737  19.200  0.00  0.00    +0.000 C 
ATOM     24  C   UNL     1       3.909   4.047  17.824  0.00  0.00    +0.000 C 
ATOM     25  O   UNL     1       3.504   3.402  16.856  0.00  0.00    +0.000 OA
ATOM     26  N   UNL     1       4.831   5.080  17.702  0.00  0.00    +0.000 N 
ATOM     27  C   UNL     1       5.265   5.489  16.371  0.00  0.00    +0.000 C 
ATOM     28  C   UNL     1       6.785   5.484  16.265  0.00  0.00    +0.000 C 
ATOM     29  C   UNL     1       7.468   6.272  17.387  0.00  0.00    +0.000 C 
ATOM     30  C   UNL     1       6.901   5.887  18.765  0.00  0.00    +0.000 C 
ATOM     31  C   UNL     1       5.374   5.877  18.800  0.00  0.00    +0.000 C 
ENDBRANCH  17  29
ENDBRANCH   1  20
TORSDOF 2
ENDMDL
MODEL 4
REMARK VINA RESULT:      -8.4      6.683     10.096
REMARK  Name = 
REMARK  4 active torsions:
REMARK  status: ('A' for Active; 'I' for Inactive)
REMARK    1  A    between atoms: C_1  and  C_2
REMARK    2  A    between atoms: C_7  and  N_8
REMARK    3  A    between atoms: N_11  and  C_12
REMARK    4  A    between atoms: C_16  and  C_17
REMARK                            x       y       z     vdW  Elec       q    Type
REMARK                         _______ _______ _______ _____ _____    ______ ____
ROOT
ATOM      1  C   UNL     1       8.905  10.949  18.258  0.00  0.00    +0.000 C 
ATOM      2  C   UNL     1       8.026  12.216  18.134  0.00  0.00    +0.000 C 
ATOM      3  C   UNL     1       8.677  13.516  18.618  0.00  0.00    +0.000 C 
ATOM      4  C   UNL     1      10.116  13.685  18.116  0.00  0.00    +0.000 C 
ATOM      5  C   UNL     1      10.993  12.417  18.224  0.00  0.00    +0.000 C 
ATOM      6  C   UNL     1      12.333  12.722  17.524  0.00  0.00    +0.000 C 
ATOM      7  C   UNL     1      11.291  12.034  19.691  0.00  0.00    +0.000 C 
ATOM      8  C   UNL     1      10.055  11.623  20.499  0.00  0.00    +0.000 C 
ATOM      9  C   UNL     1       9.165  10.616  19.748  0.00  0.00    +0.000 C 
ATOM     10  C   UNL     1       9.286  12.830  20.996  0.00  0.00    +0.000 A 
ATOM     11  C   UNL     1       9.280  13.119  22.372  0.00  0.00    +0.000 A 
ATOM     12  C   UNL     1       8.576  14.211  22.876  0.00  0.00    +0.000 A 
ATOM     13  C   UNL     1       7.859  15.029  22.012  0.00  0.00    +0.000 A 
ATOM     14  C   UNL     1       7.875  14.770  20.643  0.00  0.00    +0.000 A 
ATOM     15  C   UNL     1       8.601  13.686  20.119  0.00  0.00    +0.000 A 
ATOM     16  C   UNL     1      10.258  11.234  17.551  0.00  0.00    +0.000 C 
ENDROOT
BRANCH   1  20
ATOM     17  N   UNL     1       7.440   7.708  17.174  0.00  0.00    +0.000 N 
ATOM     18  C   UNL     1       8.233   8.517  17.966  0.00  0.00    +0.000 C 
ATOM     19  O   UNL     1       8.936   8.088  18.871  0.00  0.00    +0.000 OA
ATOM     20  N   UNL     1       8.151   9.839  17.609  0.00  0.00    +0.000 N 
ATOM     21  H   UNL     1       6.611   8.140  16.786  0.00  0.00    +0.000 HD
ATOM     22  H   UNL     1       7.767  10.018  16.691  0.00  0.00    +0.000 HD
BRANCH  17  29
ATOM     23  C   UNL     1       3.257   3.750  19.071  0.00  0.00    +0.000 C 
ATOM     24  C   UNL     1       3.836   4.061  17.715  0.00  0.00    +0.000 C 
ATOM     25  O   UNL     1       3.458   3.423  16.731  0.00  0.00    +0.000 OA
ATOM     26  N   UNL     1       4.770   5.086  17.628  0.00  0.00    +0.000 N 
ATOM     27  C   UNL     1       5.251   5.497  16.314  0.00  0.00    +0.000 C 
ATOM     28  C   UNL     1       6.773   5.480  16.257  0.00  0.00    +0.000 C 
ATOM     29  C   UNL     1       7.426   6.257  17.405  0.00  0.00    +0.000 C 
ATOM     30  C   UNL     1       6.811   5.871  18.761  0.00  0.00    +0.000 C 
ATOM     31  C   UNL     1       5.282   5.874  18.746  0.00  0.00    +0.000 C 
ENDBRANCH  17  29
ENDBRANCH   1  20
TORSDOF 2
ENDMDL
MODEL 5
REMARK VINA RESULT:      -8.3      2.425      9.660
REMARK  Name = 
REMARK  4 active torsions:
REMARK  status: ('A' for Active; 'I' for Inactive)
REMARK    1  A    between atoms: C_1  and  C_2
REMARK    2  A    between atoms: C_7  and  N_8
REMARK    3  A    between atoms: N_11  and  C_12
REMARK    4  A    between atoms: C_16  and  C_17
REMARK                            x       y       z     vdW  Elec       q    Type
REMARK                         _______ _______ _______ _____ _____    ______ ____
ROOT
ATOM      1  C   UNL     1       0.287  10.604  19.805  0.00  0.00    +0.000 C 
ATOM      2  C   UNL     1      -0.771  10.379  18.698  0.00  0.00    +0.000 C 
ATOM      3  C   UNL     1      -1.537  11.631  18.259  0.00  0.00    +0.000 C 
ATOM      4  C   UNL     1      -0.623  12.841  18.033  0.00  0.00    +0.000 C 
ATOM      5  C   UNL     1       0.443  13.061  19.129  0.00  0.00    +0.000 C 
ATOM      6  C   UNL     1       1.366  14.202  18.653  0.00  0.00    +0.000 C 
ATOM      7  C   UNL     1      -0.180  13.477  20.480  0.00  0.00    +0.000 C 
ATOM      8  C   UNL     1      -1.065  12.403  21.124  0.00  0.00    +0.000 C 
ATOM      9  C   UNL     1      -0.400  11.015  21.132  0.00  0.00    +0.000 C 
ATOM     10  C   UNL     1      -2.453  12.386  20.515  0.00  0.00    +0.000 A 
ATOM     11  C   UNL     1      -3.545  12.817  21.289  0.00  0.00    +0.000 A 
ATOM     12  C   UNL     1      -4.840  12.806  20.775  0.00  0.00    +0.000 A 
ATOM     13  C   UNL     1      -5.067  12.356  19.481  0.00  0.00    +0.000 A 
ATOM     14  C   UNL     1      -3.993  11.948  18.694  0.00  0.00    +0.000 A 
ATOM     15  C   UNL     1      -2.677  11.977  19.191  0.00  0.00    +0.000 A 
ATOM     16  C   UNL     1       1.231  11.745  19.340  0.00  0.00    +0.000 C 
ENDROOT
BRANCH   1  20
ATOM     17  N   UNL     1       2.207   7.443  19.426  0.00  0.00    +0.000 N 
ATOM     18  C   UNL     1       1.646   8.624  18.979  0.00  0.00    +0.000 C 
ATOM     19  O   UNL     1       1.707   8.998  17.815  0.00  0.00    +0.000 OA
ATOM     20  N   UNL     1       1.006   9.310  19.980  0.00  0.00    +0.000 N 
ATOM     21  H   UNL     1       2.491   7.425  20.398  0.00  0.00    +0.000 HD
ATOM     22  H   UNL     1       0.790   8.771  20.807  0.00  0.00    +0.000 HD
BRANCH  17  29
ATOM     23  C   UNL     1       4.534   1.852  19.724  0.00  0.00    +0.000 C 
ATOM     24  C   UNL     1       3.284   2.412  19.094  0.00  0.00    +0.000 C 
ATOM     25  O   UNL     1       2.525   1.663  18.477  0.00  0.00    +0.000 OA
ATOM     26  N   UNL     1       3.026   3.768  19.258  0.00  0.00    +0.000 N 
ATOM     27  C   UNL     1       1.764   4.313  18.772  0.00  0.00    +0.000 C 
ATOM     28  C   UNL     1       1.999   5.507  17.857  0.00  0.00    +0.000 C 
ATOM     29  C   UNL     1       2.912   6.570  18.478  0.00  0.00    +0.000 C 
ATOM     30  C   UNL     1       4.180   5.936  19.076  0.00  0.00    +0.000 C 
ATOM     31  C   UNL     1       3.883   4.723  19.957  0.00  0.00    +0.000 C 
ENDBRANCH  17  29
ENDBRANCH   1  20
TORSDOF 2
ENDMDL
MODEL 6
REMARK VINA RESULT:      -8.3      2.244      4.266
REMARK  Name = 
REMARK  4 active torsions:
REMARK  status: ('A' for Active; 'I' for Inactive)
REMARK    1  A    between atoms: C_1  and  C_2
REMARK    2  A    between atoms: C_7  and  N_8
REMARK    3  A    between atoms: N_11  and  C_12
REMARK    4  A    between atoms: C_16  and  C_17
REMARK                            x       y       z     vdW  Elec       q    Type
REMARK                         _______ _______ _______ _____ _____    ______ ____
ROOT
ATOM      1  C   UNL     1       2.681   7.093  18.189  0.00  0.00    +0.000 C 
ATOM      2  C   UNL     1       2.945   6.867  19.697  0.00  0.00    +0.000 C 
ATOM      3  C   UNL     1       3.598   5.528  20.055  0.00  0.00    +0.000 C 
ATOM      4  C   UNL     1       4.777   5.175  19.140  0.00  0.00    +0.000 C 
ATOM      5  C   UNL     1       4.522   5.413  17.635  0.00  0.00    +0.000 C 
ATOM      6  C   UNL     1       5.855   5.170  16.897  0.00  0.00    +0.000 C 
ATOM      7  C   UNL     1       3.468   4.442  17.058  0.00  0.00    +0.000 C 
ATOM      8  C   UNL     1       2.061   4.619  17.640  0.00  0.00    +0.000 C 
ATOM      9  C   UNL     1       1.616   6.093  17.672  0.00  0.00    +0.000 C 
ATOM     10  C   UNL     1       1.923   3.934  18.984  0.00  0.00    +0.000 A 
ATOM     11  C   UNL     1       1.110   2.791  19.089  0.00  0.00    +0.000 A 
ATOM     12  C   UNL     1       0.943   2.136  20.307  0.00  0.00    +0.000 A 
ATOM     13  C   UNL     1       1.579   2.617  21.445  0.00  0.00    +0.000 A 
ATOM     14  C   UNL     1       2.406   3.734  21.352  0.00  0.00    +0.000 A 
ATOM     15  C   UNL     1       2.604   4.390  20.124  0.00  0.00    +0.000 A 
ATOM     16  C   UNL     1       4.016   6.860  17.429  0.00  0.00    +0.000 C 
ENDROOT
BRANCH   1  20
ATOM     17  N   UNL     1       1.109  10.440  18.574  0.00  0.00    +0.000 N 
ATOM     18  C   UNL     1       1.453   9.167  18.989  0.00  0.00    +0.000 C 
ATOM     19  O   UNL     1       1.124   8.702  20.072  0.00  0.00    +0.000 OA
ATOM     20  N   UNL     1       2.185   8.490  18.045  0.00  0.00    +0.000 N 
ATOM     21  H   UNL     1       1.747  10.884  17.925  0.00  0.00    +0.000 HD
ATOM     22  H   UNL     1       2.145   8.871  17.110  0.00  0.00    +0.000 HD
BRANCH  17  29
ATOM     23  C   UNL     1       1.309  16.291  20.148  0.00  0.00    +0.000 C 
ATOM     24  C   UNL     1       0.418  15.508  19.218  0.00  0.00    +0.000 C 
ATOM     25  O   UNL     1      -0.495  16.082  18.623  0.00  0.00    +0.000 OA
ATOM     26  N   UNL     1       0.684  14.154  19.052  0.00  0.00    +0.000 N 
ATOM     27  C   UNL     1      -0.076  13.398  18.063  0.00  0.00    +0.000 C 
ATOM     28  C   UNL     1      -0.703  12.158  18.686  0.00  0.00    +0.000 C 
ATOM     29  C   UNL     1       0.304  11.297  19.455  0.00  0.00    +0.000 C 
ATOM     30  C   UNL     1       1.159  12.152  20.405  0.00  0.00    +0.000 C 
ATOM     31  C   UNL     1       1.733  13.399  19.733  0.00  0.00    +0.000 C 
ENDBRANCH  17  29
ENDBRANCH   1  20
TORSDOF 2
ENDMDL
MODEL 7
REMARK VINA RESULT:      -8.2      5.637      7.665
REMARK  Name = 
REMARK  4 active torsions:
REMARK  status: ('A' for Active; 'I' for Inactive)
REMARK    1  A    between atoms: C_1  and  C_2
REMARK    2  A    between atoms: C_7  and  N_8
REMARK    3  A    between atoms: N_11  and  C_12
REMARK    4  A    between atoms: C_16  and  C_17
REMARK                            x       y       z     vdW  Elec       q    Type
REMARK                         _______ _______ _______ _____ _____    ______ ____
ROOT
ATOM      1  C   UNL     1       6.508   7.090  17.183  0.00  0.00    +0.000 C 
ATOM      2  C   UNL     1       6.864   6.172  18.377  0.00  0.00    +0.000 C 
ATOM      3  C   UNL     1       6.458   4.703  18.218  0.00  0.00    +0.000 C 
ATOM      4  C   UNL     1       6.817   4.130  16.842  0.00  0.00    +0.000 C 
ATOM      5  C   UNL     1       6.477   5.050  15.648  0.00  0.00    +0.000 C 
ATOM      6  C   UNL     1       7.057   4.393  14.379  0.00  0.00    +0.000 C 
ATOM      7  C   UNL     1       4.954   5.216  15.451  0.00  0.00    +0.000 C 
ATOM      8  C   UNL     1       4.243   5.934  16.605  0.00  0.00    +0.000 C 
ATOM      9  C   UNL     1       4.971   7.219  17.040  0.00  0.00    +0.000 C 
ATOM     10  C   UNL     1       3.968   4.994  17.761  0.00  0.00    +0.000 A 
ATOM     11  C   UNL     1       2.640   4.624  18.041  0.00  0.00    +0.000 A 
ATOM     12  C   UNL     1       2.338   3.773  19.103  0.00  0.00    +0.000 A 
ATOM     13  C   UNL     1       3.359   3.283  19.908  0.00  0.00    +0.000 A 
ATOM     14  C   UNL     1       4.681   3.621  19.628  0.00  0.00    +0.000 A 
ATOM     15  C   UNL     1       5.002   4.459  18.545  0.00  0.00    +0.000 A 
ATOM     16  C   UNL     1       7.092   6.449  15.894  0.00  0.00    +0.000 C 
ENDROOT
BRANCH   1  20
ATOM     17  N   UNL     1       8.536   9.974  18.364  0.00  0.00    +0.000 N 
ATOM     18  C   UNL     1       8.220   8.633  18.249  0.00  0.00    +0.000 C 
ATOM     19  O   UNL     1       8.859   7.745  18.796  0.00  0.00    +0.000 OA
ATOM     20  N   UNL     1       7.109   8.423  17.473  0.00  0.00    +0.000 N 
ATOM     21  H   UNL     1       8.269  10.562  17.584  0.00  0.00    +0.000 HD
ATOM     22  H   UNL     1       6.526   9.234  17.320  0.00  0.00    +0.000 HD
BRANCH  17  29
ATOM     23  C   UNL     1      11.522  15.185  19.196  0.00  0.00    +0.000 C 
ATOM     24  C   UNL     1      10.523  14.428  20.034  0.00  0.00    +0.000 C 
ATOM     25  O   UNL     1      10.195  14.870  21.137  0.00  0.00    +0.000 OA
ATOM     26  N   UNL     1       9.989  13.258  19.508  0.00  0.00    +0.000 N 
ATOM     27  C   UNL     1       8.927  12.573  20.237  0.00  0.00    +0.000 C 
ATOM     28  C   UNL     1       9.275  11.109  20.465  0.00  0.00    +0.000 C 
ATOM     29  C   UNL     1       9.687  10.382  19.181  0.00  0.00    +0.000 C 
ATOM     30  C   UNL     1      10.727  11.192  18.389  0.00  0.00    +0.000 C 
ATOM     31  C   UNL     1      10.339  12.661  18.222  0.00  0.00    +0.000 C 
ENDBRANCH  17  29
ENDBRANCH   1  20
TORSDOF 2
ENDMDL
MODEL 8
REMARK VINA RESULT:      -8.1      2.488      9.461
REMARK  Name = 
REMARK  4 active torsions:
REMARK  status: ('A' for Active; 'I' for Inactive)
REMARK    1  A    between atoms: C_1  and  C_2
REMARK    2  A    between atoms: C_7  and  N_8
REMARK    3  A    between atoms: N_11  and  C_12
REMARK    4  A    between atoms: C_16  and  C_17
REMARK                            x       y       z     vdW  Elec       q    Type
REMARK                         _______ _______ _______ _____ _____    ______ ____
ROOT
ATOM      1  C   UNL     1       0.496  10.617  19.799  0.00  0.00    +0.000 C 
ATOM      2  C   UNL     1       0.244  11.154  21.228  0.00  0.00    +0.000 C 
ATOM      3  C   UNL     1      -0.628  12.411  21.312  0.00  0.00    +0.000 C 
ATOM      4  C   UNL     1      -1.879  12.329  20.430  0.00  0.00    +0.000 C 
ATOM      5  C   UNL     1      -1.635  11.780  19.007  0.00  0.00    +0.000 C 
ATOM      6  C   UNL     1      -3.012  11.610  18.335  0.00  0.00    +0.000 C 
ATOM      7  C   UNL     1      -0.792  12.744  18.143  0.00  0.00    +0.000 C 
ATOM      8  C   UNL     1       0.642  12.951  18.644  0.00  0.00    +0.000 C 
ATOM      9  C   UNL     1       1.346  11.624  18.986  0.00  0.00    +0.000 C 
ATOM     10  C   UNL     1       0.698  13.955  19.778  0.00  0.00    +0.000 A 
ATOM     11  C   UNL     1       1.295  15.208  19.552  0.00  0.00    +0.000 A 
ATOM     12  C   UNL     1       1.380  16.158  20.569  0.00  0.00    +0.000 A 
ATOM     13  C   UNL     1       0.878  15.867  21.831  0.00  0.00    +0.000 A 
ATOM     14  C   UNL     1       0.263  14.639  22.062  0.00  0.00    +0.000 A 
ATOM     15  C   UNL     1       0.147  13.681  21.039  0.00  0.00    +0.000 A 
ATOM     16  C   UNL     1      -0.882  10.431  19.107  0.00  0.00    +0.000 C 
ENDROOT
BRANCH   1  20
ATOM     17  N   UNL     1       2.320   7.409  19.345  0.00  0.00    +0.000 N 
ATOM     18  C   UNL     1       1.697   8.564  18.910  0.00  0.00    +0.000 C 
ATOM     19  O   UNL     1       1.569   8.852  17.727  0.00  0.00    +0.000 OA
ATOM     20  N   UNL     1       1.231   9.329  19.949  0.00  0.00    +0.000 N 
ATOM     21  H   UNL     1       2.759   7.457  20.256  0.00  0.00    +0.000 HD
ATOM     22  H   UNL     1       1.151   8.853  20.837  0.00  0.00    +0.000 HD
BRANCH  17  29
ATOM     23  C   UNL     1       4.559   1.783  19.655  0.00  0.00    +0.000 C 
ATOM     24  C   UNL     1       3.240   2.339  19.181  0.00  0.00    +0.000 C 
ATOM     25  O   UNL     1       2.384   1.575  18.733  0.00  0.00    +0.000 OA
ATOM     26  N   UNL     1       3.036   3.709  19.294  0.00  0.00    +0.000 N 
ATOM     27  C   UNL     1       1.726   4.260  18.966  0.00  0.00    +0.000 C 
ATOM     28  C   UNL     1       1.844   5.389  17.951  0.00  0.00    +0.000 C 
ATOM     29  C   UNL     1       2.860   6.461  18.361  0.00  0.00    +0.000 C 
ATOM     30  C   UNL     1       4.190   5.829  18.804  0.00  0.00    +0.000 C 
ATOM     31  C   UNL     1       4.005   4.681  19.796  0.00  0.00    +0.000 C 
ENDBRANCH  17  29
ENDBRANCH   1  20
TORSDOF 2
ENDMDL
MODEL 9
REMARK VINA RESULT:      -8.1      2.499      9.760
REMARK  Name = 
REMARK  4 active torsions:
REMARK  status: ('A' for Active; 'I' for Inactive)
REMARK    1  A    between atoms: C_1  and  C_2
REMARK    2  A    between atoms: C_7  and  N_8
REMARK    3  A    between atoms: N_11  and  C_12
REMARK    4  A    between atoms: C_16  and  C_17
REMARK                            x       y       z     vdW  Elec       q    Type
REMARK                         _______ _______ _______ _____ _____    ______ ____
ROOT
ATOM      1  C   UNL     1       0.172  10.488  20.690  0.00  0.00    +0.000 C 
ATOM      2  C   UNL     1      -0.847  10.563  19.528  0.00  0.00    +0.000 C 
ATOM      3  C   UNL     1      -1.486  11.938  19.305  0.00  0.00    +0.000 C 
ATOM      4  C   UNL     1      -0.467  13.083  19.336  0.00  0.00    +0.000 C 
ATOM      5  C   UNL     1       0.561  13.003  20.487  0.00  0.00    +0.000 C 
ATOM      6  C   UNL     1       1.595  14.125  20.260  0.00  0.00    +0.000 C 
ATOM      7  C   UNL     1      -0.089  13.220  21.871  0.00  0.00    +0.000 C 
ATOM      8  C   UNL     1      -1.089  12.130  22.276  0.00  0.00    +0.000 C 
ATOM      9  C   UNL     1      -0.540  10.710  22.048  0.00  0.00    +0.000 C 
ATOM     10  C   UNL     1      -2.443  12.348  21.631  0.00  0.00    +0.000 A 
ATOM     11  C   UNL     1      -3.531  12.727  22.437  0.00  0.00    +0.000 A 
ATOM     12  C   UNL     1      -4.798  12.925  21.890  0.00  0.00    +0.000 A 
ATOM     13  C   UNL     1      -4.999  12.740  20.528  0.00  0.00    +0.000 A 
ATOM     14  C   UNL     1      -3.925  12.388  19.713  0.00  0.00    +0.000 A 
ATOM     15  C   UNL     1      -2.637  12.209  20.248  0.00  0.00    +0.000 A 
ATOM     16  C   UNL     1       1.228  11.607  20.475  0.00  0.00    +0.000 C 
ENDROOT
BRANCH   1  20
ATOM     17  N   UNL     1       1.988   7.352  19.858  0.00  0.00    +0.000 N 
ATOM     18  C   UNL     1       1.599   8.663  19.650  0.00  0.00    +0.000 C 
ATOM     19  O   UNL     1       1.945   9.319  18.678  0.00  0.00    +0.000 OA
ATOM     20  N   UNL     1       0.775   9.126  20.645  0.00  0.00    +0.000 N 
ATOM     21  H   UNL     1       2.038   7.050  20.823  0.00  0.00    +0.000 HD
ATOM     22  H   UNL     1       0.349   8.414  21.223  0.00  0.00    +0.000 HD
BRANCH  17  29
ATOM     23  C   UNL     1       3.813   1.638  18.976  0.00  0.00    +0.000 C 
ATOM     24  C   UNL     1       2.802   2.512  18.279  0.00  0.00    +0.000 C 
ATOM     25  O   UNL     1       2.180   2.071  17.312  0.00  0.00    +0.000 OA
ATOM     26  N   UNL     1       2.595   3.792  18.781  0.00  0.00    +0.000 N 
ATOM     27  C   UNL     1       1.534   4.614  18.211  0.00  0.00    +0.000 C 
ATOM     28  C   UNL     1       2.067   5.972  17.775  0.00  0.00    +0.000 C 
ATOM     29  C   UNL     1       2.856   6.689  18.875  0.00  0.00    +0.000 C 
ATOM     30  C   UNL     1       3.889   5.752  19.523  0.00  0.00    +0.000 C 
ATOM     31  C   UNL     1       3.303   4.394  19.909  0.00  0.00    +0.000 C 
ENDBRANCH  17  29
ENDBRANCH   1  20
TORSDOF 2
ENDMDL
