MODEL 1
REMARK VINA RESULT:      -7.0      0.000      0.000
REMARK  Name = 
REMARK  13 active torsions:
REMARK  status: ('A' for Active; 'I' for Inactive)
REMARK    1  A    between atoms: C_2  and  C_3
REMARK    2  A    between atoms: C_2  and  C_5
REMARK    3  A    between atoms: C_3  and  O_4
REMARK    4  A    between atoms: C_5  and  C_6
REMARK    5  A    between atoms: C_5  and  N_15
REMARK    6  A    between atoms: C_6  and  C_7
REMARK    7  A    between atoms: C_7  and  C_8
REMARK    8  A    between atoms: C_8  and  C_9
REMARK    9  A    between atoms: C_9  and  C_10
REMARK   10  A    between atoms: C_10  and  C_11
REMARK   11  A    between atoms: C_11  and  C_12
REMARK   12  A    between atoms: C_12  and  C_13
REMARK   13  A    between atoms: C_13  and  C_14
REMARK                            x       y       z     vdW  Elec       q    Type
REMARK                         _______ _______ _______ _____ _____    ______ ____
ROOT
ATOM      1  C   UNL     1       4.969   5.118  17.086  0.00  0.00    +0.000 C 
ENDROOT
BRANCH   1   2
ATOM      2  N   UNL     1       4.260   4.344  18.122  0.00  0.00    +0.000 N 
ATOM      3  C   UNL     1       4.299   2.992  18.343  0.00  0.00    +0.000 A 
ATOM      4  N   UNL     1       3.490   2.611  19.308  0.00  0.00    +0.000 NA
ATOM      5  C   UNL     1       2.898   3.771  19.746  0.00  0.00    +0.000 A 
ATOM      6  C   UNL     1       1.955   4.064  20.717  0.00  0.00    +0.000 A 
ATOM      7 CL   UNL     1       1.294   2.799  21.632  0.00  0.00    +0.000 Cl
ATOM      8  N   UNL     1       1.533   5.322  20.948  0.00  0.00    +0.000 NA
ATOM      9  C   UNL     1       2.082   6.280  20.178  0.00  0.00    +0.000 A 
ATOM     10  N   UNL     1       2.997   6.149  19.195  0.00  0.00    +0.000 NA
ATOM     11  C   UNL     1       3.369   4.862  19.030  0.00  0.00    +0.000 A 
ENDBRANCH   1   2
BRANCH   1  13
ATOM     12  C   UNL     1       6.731   6.992  17.072  0.00  0.00    +0.000 C 
ATOM     13  C   UNL     1       6.223   5.857  17.591  0.00  0.00    +0.000 C 
BRANCH  13  14
ATOM     14  C   UNL     1       6.928   5.225  18.765  0.00  0.00    +0.000 C 
BRANCH  14  15
ATOM     15  O   UNL     1       7.998   4.429  18.290  0.00  0.00    +0.000 OA
ATOM     16  H   UNL     1       7.924   3.564  18.728  0.00  0.00    +0.000 HD
ENDBRANCH  14  15
ENDBRANCH  13  14
ENDBRANCH   1  13
BRANCH   1  17
ATOM     17  C   UNL     1       5.188   4.280  15.792  0.00  0.00    +0.000 C 
BRANCH  17  18
ATOM     18  C   UNL     1       6.621   4.290  15.264  0.00  0.00    +0.000 C 
BRANCH  18  19
ATOM     19  C   UNL     1       6.741   4.760  13.822  0.00  0.00    +0.000 C 
BRANCH  19  20
ATOM     20  C   UNL     1       6.386   3.593  12.900  0.00  0.00    +0.000 C 
BRANCH  20  21
ATOM     21  C   UNL     1       5.096   3.856  12.144  0.00  0.00    +0.000 C 
BRANCH  21  22
ATOM     22  C   UNL     1       4.638   2.601  11.405  0.00  0.00    +0.000 C 
BRANCH  22  23
ATOM     23  C   UNL     1       3.397   2.905  10.575  0.00  0.00    +0.000 C 
BRANCH  23  24
ATOM     24  C   UNL     1       3.306   4.387  10.227  0.00  0.00    +0.000 C 
ATOM     25  C   UNL     1       2.466   4.593   8.979  0.00  0.00    +0.000 C 
ENDBRANCH  23  24
ENDBRANCH  22  23
ENDBRANCH  21  22
ENDBRANCH  20  21
ENDBRANCH  19  20
ENDBRANCH  18  19
ENDBRANCH  17  18
ENDBRANCH   1  17
TORSDOF 12
ENDMDL
MODEL 2
REMARK VINA RESULT:      -6.9      1.350      2.242
REMARK  Name = 
REMARK  13 active torsions:
REMARK  status: ('A' for Active; 'I' for Inactive)
REMARK    1  A    between atoms: C_2  and  C_3
REMARK    2  A    between atoms: C_2  and  C_5
REMARK    3  A    between atoms: C_3  and  O_4
REMARK    4  A    between atoms: C_5  and  C_6
REMARK    5  A    between atoms: C_5  and  N_15
REMARK    6  A    between atoms: C_6  and  C_7
REMARK    7  A    between atoms: C_7  and  C_8
REMARK    8  A    between atoms: C_8  and  C_9
REMARK    9  A    between atoms: C_9  and  C_10
REMARK   10  A    between atoms: C_10  and  C_11
REMARK   11  A    between atoms: C_11  and  C_12
REMARK   12  A    between atoms: C_12  and  C_13
REMARK   13  A    between atoms: C_13  and  C_14
REMARK                            x       y       z     vdW  Elec       q    Type
REMARK                         _______ _______ _______ _____ _____    ______ ____
ROOT
ATOM      1  C   UNL     1       5.854   5.848  17.556  0.00  0.00    +0.000 C 
ENDROOT
BRANCH   1   2
ATOM      2  N   UNL     1       4.651   5.550  18.354  0.00  0.00    +0.000 N 
ATOM      3  C   UNL     1       3.581   6.367  18.611  0.00  0.00    +0.000 A 
ATOM      4  N   UNL     1       2.703   5.818  19.422  0.00  0.00    +0.000 NA
ATOM      5  C   UNL     1       3.218   4.576  19.704  0.00  0.00    +0.000 A 
ATOM      6  C   UNL     1       2.801   3.515  20.491  0.00  0.00    +0.000 A 
ATOM      7 CL   UNL     1       1.353   3.657  21.364  0.00  0.00    +0.000 Cl
ATOM      8  N   UNL     1       3.515   2.379  20.599  0.00  0.00    +0.000 NA
ATOM      9  C   UNL     1       4.663   2.334  19.897  0.00  0.00    +0.000 A 
ATOM     10  N   UNL     1       5.201   3.282  19.101  0.00  0.00    +0.000 NA
ATOM     11  C   UNL     1       4.424   4.383  19.044  0.00  0.00    +0.000 A 
ENDBRANCH   1   2
BRANCH   1  13
ATOM     12  C   UNL     1       7.519   5.693  19.510  0.00  0.00    +0.000 C 
ATOM     13  C   UNL     1       7.075   6.290  18.387  0.00  0.00    +0.000 C 
BRANCH  13  14
ATOM     14  C   UNL     1       7.809   7.504  17.879  0.00  0.00    +0.000 C 
BRANCH  14  15
ATOM     15  O   UNL     1       8.693   7.966  18.884  0.00  0.00    +0.000 OA
ATOM     16  H   UNL     1       8.889   7.208  19.460  0.00  0.00    +0.000 HD
ENDBRANCH  14  15
ENDBRANCH  13  14
ENDBRANCH   1  13
BRANCH   1  17
ATOM     17  C   UNL     1       6.149   4.723  16.520  0.00  0.00    +0.000 C 
BRANCH  17  18
ATOM     18  C   UNL     1       5.918   5.123  15.065  0.00  0.00    +0.000 C 
BRANCH  18  19
ATOM     19  C   UNL     1       5.889   3.945  14.102  0.00  0.00    +0.000 C 
BRANCH  19  20
ATOM     20  C   UNL     1       7.019   4.119  13.087  0.00  0.00    +0.000 C 
BRANCH  20  21
ATOM     21  C   UNL     1       6.672   3.478  11.756  0.00  0.00    +0.000 C 
BRANCH  21  22
ATOM     22  C   UNL     1       5.319   2.775  11.831  0.00  0.00    +0.000 C 
BRANCH  22  23
ATOM     23  C   UNL     1       4.204   3.741  11.448  0.00  0.00    +0.000 C 
BRANCH  23  24
ATOM     24  C   UNL     1       3.326   3.169  10.341  0.00  0.00    +0.000 C 
ATOM     25  C   UNL     1       2.794   4.280   9.452  0.00  0.00    +0.000 C 
ENDBRANCH  23  24
ENDBRANCH  22  23
ENDBRANCH  21  22
ENDBRANCH  20  21
ENDBRANCH  19  20
ENDBRANCH  18  19
ENDBRANCH  17  18
ENDBRANCH   1  17
TORSDOF 12
ENDMDL
MODEL 3
REMARK VINA RESULT:      -6.9      0.885      1.195
REMARK  Name = 
REMARK  13 active torsions:
REMARK  status: ('A' for Active; 'I' for Inactive)
REMARK    1  A    between atoms: C_2  and  C_3
REMARK    2  A    between atoms: C_2  and  C_5
REMARK    3  A    between atoms: C_3  and  O_4
REMARK    4  A    between atoms: C_5  and  C_6
REMARK    5  A    between atoms: C_5  and  N_15
REMARK    6  A    between atoms: C_6  and  C_7
REMARK    7  A    between atoms: C_7  and  C_8
REMARK    8  A    between atoms: C_8  and  C_9
REMARK    9  A    between atoms: C_9  and  C_10
REMARK   10  A    between atoms: C_10  and  C_11
REMARK   11  A    between atoms: C_11  and  C_12
REMARK   12  A    between atoms: C_12  and  C_13
REMARK   13  A    between atoms: C_13  and  C_14
REMARK                            x       y       z     vdW  Elec       q    Type
REMARK                         _______ _______ _______ _____ _____    ______ ____
ROOT
ATOM      1  C   UNL     1       4.995   5.221  16.849  0.00  0.00    +0.000 C 
ENDROOT
BRANCH   1   2
ATOM      2  N   UNL     1       4.186   4.420  17.786  0.00  0.00    +0.000 N 
ATOM      3  C   UNL     1       4.054   3.057  17.839  0.00  0.00    +0.000 A 
ATOM      4  N   UNL     1       3.195   2.664  18.756  0.00  0.00    +0.000 NA
ATOM      5  C   UNL     1       2.749   3.826  19.337  0.00  0.00    +0.000 A 
ATOM      6  C   UNL     1       1.841   4.114  20.342  0.00  0.00    +0.000 A 
ATOM      7 CL   UNL     1       1.019   2.838  21.099  0.00  0.00    +0.000 Cl
ATOM      8  N   UNL     1       1.577   5.376  20.729  0.00  0.00    +0.000 NA
ATOM      9  C   UNL     1       2.248   6.345  20.079  0.00  0.00    +0.000 A 
ATOM     10  N   UNL     1       3.149   6.223  19.081  0.00  0.00    +0.000 NA
ATOM     11  C   UNL     1       3.358   4.930  18.757  0.00  0.00    +0.000 A 
ENDBRANCH   1   2
BRANCH   1  13
ATOM     12  C   UNL     1       7.281   4.810  17.954  0.00  0.00    +0.000 C 
ATOM     13  C   UNL     1       6.375   5.636  17.395  0.00  0.00    +0.000 C 
BRANCH  13  14
ATOM     14  C   UNL     1       6.708   7.102  17.289  0.00  0.00    +0.000 C 
BRANCH  14  15
ATOM     15  O   UNL     1       7.948   7.250  16.621  0.00  0.00    +0.000 OA
ATOM     16  H   UNL     1       8.313   6.357  16.500  0.00  0.00    +0.000 HD
ENDBRANCH  14  15
ENDBRANCH  13  14
ENDBRANCH   1  13
BRANCH   1  17
ATOM     17  C   UNL     1       5.025   4.586  15.428  0.00  0.00    +0.000 C 
BRANCH  17  18
ATOM     18  C   UNL     1       6.346   3.912  15.061  0.00  0.00    +0.000 C 
BRANCH  18  19
ATOM     19  C   UNL     1       7.258   4.776  14.203  0.00  0.00    +0.000 C 
BRANCH  19  20
ATOM     20  C   UNL     1       6.908   4.541  12.734  0.00  0.00    +0.000 C 
BRANCH  20  21
ATOM     21  C   UNL     1       6.418   3.123  12.501  0.00  0.00    +0.000 C 
BRANCH  21  22
ATOM     22  C   UNL     1       5.505   3.061  11.279  0.00  0.00    +0.000 C 
BRANCH  22  23
ATOM     23  C   UNL     1       4.055   3.263  11.697  0.00  0.00    +0.000 C 
BRANCH  23  24
ATOM     24  C   UNL     1       3.105   3.112  10.513  0.00  0.00    +0.000 C 
ATOM     25  C   UNL     1       3.063   4.390   9.695  0.00  0.00    +0.000 C 
ENDBRANCH  23  24
ENDBRANCH  22  23
ENDBRANCH  21  22
ENDBRANCH  20  21
ENDBRANCH  19  20
ENDBRANCH  18  19
ENDBRANCH  17  18
ENDBRANCH   1  17
TORSDOF 12
ENDMDL
MODEL 4
REMARK VINA RESULT:      -6.9      3.375      6.806
REMARK  Name = 
REMARK  13 active torsions:
REMARK  status: ('A' for Active; 'I' for Inactive)
REMARK    1  A    between atoms: C_2  and  C_3
REMARK    2  A    between atoms: C_2  and  C_5
REMARK    3  A    between atoms: C_3  and  O_4
REMARK    4  A    between atoms: C_5  and  C_6
REMARK    5  A    between atoms: C_5  and  N_15
REMARK    6  A    between atoms: C_6  and  C_7
REMARK    7  A    between atoms: C_7  and  C_8
REMARK    8  A    between atoms: C_8  and  C_9
REMARK    9  A    between atoms: C_9  and  C_10
REMARK   10  A    between atoms: C_10  and  C_11
REMARK   11  A    between atoms: C_11  and  C_12
REMARK   12  A    between atoms: C_12  and  C_13
REMARK   13  A    between atoms: C_13  and  C_14
REMARK                            x       y       z     vdW  Elec       q    Type
REMARK                         _______ _______ _______ _____ _____    ______ ____
ROOT
ATOM      1  C   UNL     1       6.061   5.857  18.001  0.00  0.00    +0.000 C 
ENDROOT
BRANCH   1   2
ATOM      2  N   UNL     1       4.675   5.369  18.134  0.00  0.00    +0.000 N 
ATOM      3  C   UNL     1       3.527   5.942  17.654  0.00  0.00    +0.000 A 
ATOM      4  N   UNL     1       2.443   5.285  18.010  0.00  0.00    +0.000 NA
ATOM      5  C   UNL     1       2.905   4.225  18.752  0.00  0.00    +0.000 A 
ATOM      6  C   UNL     1       2.294   3.176  19.418  0.00  0.00    +0.000 A 
ATOM      7 CL   UNL     1       0.602   3.066  19.404  0.00  0.00    +0.000 Cl
ATOM      8  N   UNL     1       2.999   2.248  20.091  0.00  0.00    +0.000 NA
ATOM      9  C   UNL     1       4.337   2.400  20.081  0.00  0.00    +0.000 A 
ATOM     10  N   UNL     1       5.071   3.366  19.489  0.00  0.00    +0.000 NA
ATOM     11  C   UNL     1       4.290   4.251  18.834  0.00  0.00    +0.000 A 
ENDBRANCH   1   2
BRANCH   1  13
ATOM     12  C   UNL     1       8.131   4.339  17.847  0.00  0.00    +0.000 C 
ATOM     13  C   UNL     1       7.018   4.869  17.305  0.00  0.00    +0.000 C 
BRANCH  13  14
ATOM     14  C   UNL     1       6.654   4.490  15.892  0.00  0.00    +0.000 C 
BRANCH  14  15
ATOM     15  O   UNL     1       7.507   5.176  14.994  0.00  0.00    +0.000 OA
ATOM     16  H   UNL     1       6.961   5.833  14.530  0.00  0.00    +0.000 HD
ENDBRANCH  14  15
ENDBRANCH  13  14
ENDBRANCH   1  13
BRANCH   1  17
ATOM     17  C   UNL     1       6.108   7.308  17.441  0.00  0.00    +0.000 C 
BRANCH  17  18
ATOM     18  C   UNL     1       7.512   7.828  17.139  0.00  0.00    +0.000 C 
BRANCH  18  19
ATOM     19  C   UNL     1       8.273   8.290  18.373  0.00  0.00    +0.000 C 
BRANCH  19  20
ATOM     20  C   UNL     1       8.623   9.768  18.201  0.00  0.00    +0.000 C 
BRANCH  20  21
ATOM     21  C   UNL     1       9.386  10.300  19.402  0.00  0.00    +0.000 C 
BRANCH  21  22
ATOM     22  C   UNL     1       9.560  11.813  19.304  0.00  0.00    +0.000 C 
BRANCH  22  23
ATOM     23  C   UNL     1       9.470  12.260  17.851  0.00  0.00    +0.000 C 
BRANCH  23  24
ATOM     24  C   UNL     1      10.231  13.560  17.617  0.00  0.00    +0.000 C 
ATOM     25  C   UNL     1      11.442  13.320  16.734  0.00  0.00    +0.000 C 
ENDBRANCH  23  24
ENDBRANCH  22  23
ENDBRANCH  21  22
ENDBRANCH  20  21
ENDBRANCH  19  20
ENDBRANCH  18  19
ENDBRANCH  17  18
ENDBRANCH   1  17
TORSDOF 12
ENDMDL
MODEL 5
REMARK VINA RESULT:      -6.8      3.124      6.682
REMARK  Name = 
REMARK  13 active torsions:
REMARK  status: ('A' for Active; 'I' for Inactive)
REMARK    1  A    between atoms: C_2  and  C_3
REMARK    2  A    between atoms: C_2  and  C_5
REMARK    3  A    between atoms: C_3  and  O_4
REMARK    4  A    between atoms: C_5  and  C_6
REMARK    5  A    between atoms: C_5  and  N_15
REMARK    6  A    between atoms: C_6  and  C_7
REMARK    7  A    between atoms: C_7  and  C_8
REMARK    8  A    between atoms: C_8  and  C_9
REMARK    9  A    between atoms: C_9  and  C_10
REMARK   10  A    between atoms: C_10  and  C_11
REMARK   11  A    between atoms: C_11  and  C_12
REMARK   12  A    between atoms: C_12  and  C_13
REMARK   13  A    between atoms: C_13  and  C_14
REMARK                            x       y       z     vdW  Elec       q    Type
REMARK                         _______ _______ _______ _____ _____    ______ ____
ROOT
ATOM      1  C   UNL     1       6.178   4.420  17.178  0.00  0.00    +0.000 C 
ENDROOT
BRANCH   1   2
ATOM      2  N   UNL     1       5.026   4.557  18.087  0.00  0.00    +0.000 N 
ATOM      3  C   UNL     1       4.791   5.537  19.015  0.00  0.00    +0.000 A 
ATOM      4  N   UNL     1       3.698   5.324  19.716  0.00  0.00    +0.000 NA
ATOM      5  C   UNL     1       3.187   4.150  19.217  0.00  0.00    +0.000 A 
ATOM      6  C   UNL     1       2.077   3.378  19.517  0.00  0.00    +0.000 A 
ATOM      7 CL   UNL     1       1.043   3.872  20.767  0.00  0.00    +0.000 Cl
ATOM      8  N   UNL     1       1.800   2.237  18.858  0.00  0.00    +0.000 NA
ATOM      9  C   UNL     1       2.668   1.888  17.890  0.00  0.00    +0.000 A 
ATOM     10  N   UNL     1       3.788   2.527  17.492  0.00  0.00    +0.000 NA
ATOM     11  C   UNL     1       3.990   3.660  18.197  0.00  0.00    +0.000 A 
ENDBRANCH   1   2
BRANCH   1  13
ATOM     12  C   UNL     1       5.122   6.109  15.550  0.00  0.00    +0.000 C 
ATOM     13  C   UNL     1       6.001   5.123  15.817  0.00  0.00    +0.000 C 
BRANCH  13  14
ATOM     14  C   UNL     1       6.897   4.637  14.707  0.00  0.00    +0.000 C 
BRANCH  14  15
ATOM     15  O   UNL     1       6.322   3.486  14.117  0.00  0.00    +0.000 OA
ATOM     16  H   UNL     1       7.011   3.073  13.570  0.00  0.00    +0.000 HD
ENDBRANCH  14  15
ENDBRANCH  13  14
ENDBRANCH   1  13
BRANCH   1  17
ATOM     17  C   UNL     1       7.521   4.737  17.900  0.00  0.00    +0.000 C 
BRANCH  17  18
ATOM     18  C   UNL     1       7.512   6.024  18.722  0.00  0.00    +0.000 C 
BRANCH  18  19
ATOM     19  C   UNL     1       7.707   7.284  17.891  0.00  0.00    +0.000 C 
BRANCH  19  20
ATOM     20  C   UNL     1       8.598   8.249  18.674  0.00  0.00    +0.000 C 
BRANCH  20  21
ATOM     21  C   UNL     1       8.548   9.648  18.087  0.00  0.00    +0.000 C 
BRANCH  21  22
ATOM     22  C   UNL     1       9.268  10.641  18.997  0.00  0.00    +0.000 C 
BRANCH  22  23
ATOM     23  C   UNL     1       9.856  11.778  18.171  0.00  0.00    +0.000 C 
BRANCH  23  24
ATOM     24  C   UNL     1      11.359  11.609  17.977  0.00  0.00    +0.000 C 
ATOM     25  C   UNL     1      12.126  12.479  18.957  0.00  0.00    +0.000 C 
ENDBRANCH  23  24
ENDBRANCH  22  23
ENDBRANCH  21  22
ENDBRANCH  20  21
ENDBRANCH  19  20
ENDBRANCH  18  19
ENDBRANCH  17  18
ENDBRANCH   1  17
TORSDOF 12
ENDMDL
MODEL 6
REMARK VINA RESULT:      -6.8      3.388      7.120
REMARK  Name = 
REMARK  13 active torsions:
REMARK  status: ('A' for Active; 'I' for Inactive)
REMARK    1  A    between atoms: C_2  and  C_3
REMARK    2  A    between atoms: C_2  and  C_5
REMARK    3  A    between atoms: C_3  and  O_4
REMARK    4  A    between atoms: C_5  and  C_6
REMARK    5  A    between atoms: C_5  and  N_15
REMARK    6  A    between atoms: C_6  and  C_7
REMARK    7  A    between atoms: C_7  and  C_8
REMARK    8  A    between atoms: C_8  and  C_9
REMARK    9  A    between atoms: C_9  and  C_10
REMARK   10  A    between atoms: C_10  and  C_11
REMARK   11  A    between atoms: C_11  and  C_12
REMARK   12  A    between atoms: C_12  and  C_13
REMARK   13  A    between atoms: C_13  and  C_14
REMARK                            x       y       z     vdW  Elec       q    Type
REMARK                         _______ _______ _______ _____ _____    ______ ____
ROOT
ATOM      1  C   UNL     1       6.006   5.993  17.427  0.00  0.00    +0.000 C 
ENDROOT
BRANCH   1   2
ATOM      2  N   UNL     1       4.673   5.765  18.016  0.00  0.00    +0.000 N 
ATOM      3  C   UNL     1       3.574   6.582  17.963  0.00  0.00    +0.000 A 
ATOM      4  N   UNL     1       2.558   6.113  18.656  0.00  0.00    +0.000 NA
ATOM      5  C   UNL     1       3.011   4.927  19.182  0.00  0.00    +0.000 A 
ATOM      6  C   UNL     1       2.453   3.960  20.001  0.00  0.00    +0.000 A 
ATOM      7 CL   UNL     1       0.866   4.171  20.561  0.00  0.00    +0.000 Cl
ATOM      8  N   UNL     1       3.135   2.863  20.380  0.00  0.00    +0.000 NA
ATOM      9  C   UNL     1       4.395   2.761  19.918  0.00  0.00    +0.000 A 
ATOM     10  N   UNL     1       5.074   3.618  19.126  0.00  0.00    +0.000 NA
ATOM     11  C   UNL     1       4.320   4.685  18.789  0.00  0.00    +0.000 A 
ENDBRANCH   1   2
BRANCH   1  13
ATOM     12  C   UNL     1       5.376   5.271  15.040  0.00  0.00    +0.000 C 
ATOM     13  C   UNL     1       6.235   5.283  16.078  0.00  0.00    +0.000 C 
BRANCH  13  14
ATOM     14  C   UNL     1       7.538   4.538  15.943  0.00  0.00    +0.000 C 
BRANCH  14  15
ATOM     15  O   UNL     1       7.964   4.112  17.224  0.00  0.00    +0.000 OA
ATOM     16  H   UNL     1       8.176   4.913  17.733  0.00  0.00    +0.000 HD
ENDBRANCH  14  15
ENDBRANCH  13  14
ENDBRANCH   1  13
BRANCH   1  17
ATOM     17  C   UNL     1       6.388   7.502  17.437  0.00  0.00    +0.000 C 
BRANCH  17  18
ATOM     18  C   UNL     1       7.888   7.779  17.369  0.00  0.00    +0.000 C 
BRANCH  18  19
ATOM     19  C   UNL     1       8.385   8.738  18.440  0.00  0.00    +0.000 C 
BRANCH  19  20
ATOM     20  C   UNL     1       8.586  10.114  17.804  0.00  0.00    +0.000 C 
BRANCH  20  21
ATOM     21  C   UNL     1       8.890  11.170  18.851  0.00  0.00    +0.000 C 
BRANCH  21  22
ATOM     22  C   UNL     1       9.955  10.673  19.826  0.00  0.00    +0.000 C 
BRANCH  22  23
ATOM     23  C   UNL     1      10.722  11.852  20.411  0.00  0.00    +0.000 C 
BRANCH  23  24
ATOM     24  C   UNL     1      12.128  11.948  19.829  0.00  0.00    +0.000 C 
ATOM     25  C   UNL     1      12.075  12.364  18.369  0.00  0.00    +0.000 C 
ENDBRANCH  23  24
ENDBRANCH  22  23
ENDBRANCH  21  22
ENDBRANCH  20  21
ENDBRANCH  19  20
ENDBRANCH  18  19
ENDBRANCH  17  18
ENDBRANCH   1  17
TORSDOF 12
ENDMDL
MODEL 7
REMARK VINA RESULT:      -6.8      1.424      2.311
REMARK  Name = 
REMARK  13 active torsions:
REMARK  status: ('A' for Active; 'I' for Inactive)
REMARK    1  A    between atoms: C_2  and  C_3
REMARK    2  A    between atoms: C_2  and  C_5
REMARK    3  A    between atoms: C_3  and  O_4
REMARK    4  A    between atoms: C_5  and  C_6
REMARK    5  A    between atoms: C_5  and  N_15
REMARK    6  A    between atoms: C_6  and  C_7
REMARK    7  A    between atoms: C_7  and  C_8
REMARK    8  A    between atoms: C_8  and  C_9
REMARK    9  A    between atoms: C_9  and  C_10
REMARK   10  A    between atoms: C_10  and  C_11
REMARK   11  A    between atoms: C_11  and  C_12
REMARK   12  A    between atoms: C_12  and  C_13
REMARK   13  A    between atoms: C_13  and  C_14
REMARK                            x       y       z     vdW  Elec       q    Type
REMARK                         _______ _______ _______ _____ _____    ______ ____
ROOT
ATOM      1  C   UNL     1       5.229   6.401  17.322  0.00  0.00    +0.000 C 
ENDROOT
BRANCH   1   2
ATOM      2  N   UNL     1       4.045   5.905  18.048  0.00  0.00    +0.000 N 
ATOM      3  C   UNL     1       3.175   6.613  18.834  0.00  0.00    +0.000 A 
ATOM      4  N   UNL     1       2.262   5.852  19.397  0.00  0.00    +0.000 NA
ATOM      5  C   UNL     1       2.543   4.582  18.953  0.00  0.00    +0.000 A 
ATOM      6  C   UNL     1       1.980   3.337  19.175  0.00  0.00    +0.000 A 
ATOM      7 CL   UNL     1       0.649   3.209  20.218  0.00  0.00    +0.000 Cl
ATOM      8  N   UNL     1       2.465   2.219  18.601  0.00  0.00    +0.000 NA
ATOM      9  C   UNL     1       3.533   2.383  17.798  0.00  0.00    +0.000 A 
ATOM     10  N   UNL     1       4.192   3.522  17.495  0.00  0.00    +0.000 NA
ATOM     11  C   UNL     1       3.642   4.592  18.105  0.00  0.00    +0.000 A 
ENDBRANCH   1   2
BRANCH   1  13
ATOM     12  C   UNL     1       6.772   5.503  19.172  0.00  0.00    +0.000 C 
ATOM     13  C   UNL     1       6.547   6.305  18.114  0.00  0.00    +0.000 C 
BRANCH  13  14
ATOM     14  C   UNL     1       7.660   7.207  17.646  0.00  0.00    +0.000 C 
BRANCH  14  15
ATOM     15  O   UNL     1       7.110   8.439  17.218  0.00  0.00    +0.000 OA
ATOM     16  H   UNL     1       7.846   9.072  17.155  0.00  0.00    +0.000 HD
ENDBRANCH  14  15
ENDBRANCH  13  14
ENDBRANCH   1  13
BRANCH   1  17
ATOM     17  C   UNL     1       5.298   5.827  15.876  0.00  0.00    +0.000 C 
BRANCH  17  18
ATOM     18  C   UNL     1       6.531   4.971  15.592  0.00  0.00    +0.000 C 
BRANCH  18  19
ATOM     19  C   UNL     1       6.848   4.826  14.110  0.00  0.00    +0.000 C 
BRANCH  19  20
ATOM     20  C   UNL     1       6.152   3.570  13.585  0.00  0.00    +0.000 C 
BRANCH  20  21
ATOM     21  C   UNL     1       6.370   3.398  12.093  0.00  0.00    +0.000 C 
BRANCH  21  22
ATOM     22  C   UNL     1       5.330   2.451  11.500  0.00  0.00    +0.000 C 
BRANCH  22  23
ATOM     23  C   UNL     1       3.971   3.138  11.439  0.00  0.00    +0.000 C 
BRANCH  23  24
ATOM     24  C   UNL     1       3.908   4.151  10.301  0.00  0.00    +0.000 C 
ATOM     25  C   UNL     1       2.675   3.919   9.446  0.00  0.00    +0.000 C 
ENDBRANCH  23  24
ENDBRANCH  22  23
ENDBRANCH  21  22
ENDBRANCH  20  21
ENDBRANCH  19  20
ENDBRANCH  18  19
ENDBRANCH  17  18
ENDBRANCH   1  17
TORSDOF 12
ENDMDL
MODEL 8
REMARK VINA RESULT:      -6.7      3.667      6.982
REMARK  Name = 
REMARK  13 active torsions:
REMARK  status: ('A' for Active; 'I' for Inactive)
REMARK    1  A    between atoms: C_2  and  C_3
REMARK    2  A    between atoms: C_2  and  C_5
REMARK    3  A    between atoms: C_3  and  O_4
REMARK    4  A    between atoms: C_5  and  C_6
REMARK    5  A    between atoms: C_5  and  N_15
REMARK    6  A    between atoms: C_6  and  C_7
REMARK    7  A    between atoms: C_7  and  C_8
REMARK    8  A    between atoms: C_8  and  C_9
REMARK    9  A    between atoms: C_9  and  C_10
REMARK   10  A    between atoms: C_10  and  C_11
REMARK   11  A    between atoms: C_11  and  C_12
REMARK   12  A    between atoms: C_12  and  C_13
REMARK   13  A    between atoms: C_13  and  C_14
REMARK                            x       y       z     vdW  Elec       q    Type
REMARK                         _______ _______ _______ _____ _____    ______ ____
ROOT
ATOM      1  C   UNL     1       7.101   5.455  17.193  0.00  0.00    +0.000 C 
ENDROOT
BRANCH   1   2
ATOM      2  N   UNL     1       6.537   4.710  16.052  0.00  0.00    +0.000 N 
ATOM      3  C   UNL     1       5.540   3.771  16.064  0.00  0.00    +0.000 A 
ATOM      4  N   UNL     1       5.322   3.244  14.878  0.00  0.00    +0.000 NA
ATOM      5  C   UNL     1       6.216   3.875  14.047  0.00  0.00    +0.000 A 
ATOM      6  C   UNL     1       6.510   3.777  12.697  0.00  0.00    +0.000 A 
ATOM      7 CL   UNL     1       5.659   2.659  11.747  0.00  0.00    +0.000 Cl
ATOM      8  N   UNL     1       7.462   4.531  12.116  0.00  0.00    +0.000 NA
ATOM      9  C   UNL     1       8.115   5.387  12.926  0.00  0.00    +0.000 A 
ATOM     10  N   UNL     1       7.947   5.587  14.250  0.00  0.00    +0.000 NA
ATOM     11  C   UNL     1       6.975   4.797  14.753  0.00  0.00    +0.000 A 
ENDBRANCH   1   2
BRANCH   1  13
ATOM     12  C   UNL     1       5.551   7.482  16.877  0.00  0.00    +0.000 C 
ATOM     13  C   UNL     1       6.744   6.954  17.213  0.00  0.00    +0.000 C 
BRANCH  13  14
ATOM     14  C   UNL     1       7.849   7.886  17.639  0.00  0.00    +0.000 C 
BRANCH  14  15
ATOM     15  O   UNL     1       8.476   7.363  18.796  0.00  0.00    +0.000 OA
ATOM     16  H   UNL     1       8.974   6.576  18.518  0.00  0.00    +0.000 HD
ENDBRANCH  14  15
ENDBRANCH  13  14
ENDBRANCH   1  13
BRANCH   1  17
ATOM     17  C   UNL     1       6.857   4.713  18.540  0.00  0.00    +0.000 C 
BRANCH  17  18
ATOM     18  C   UNL     1       5.721   5.287  19.385  0.00  0.00    +0.000 C 
BRANCH  18  19
ATOM     19  C   UNL     1       4.418   4.508  19.271  0.00  0.00    +0.000 C 
BRANCH  19  20
ATOM     20  C   UNL     1       3.436   5.325  18.429  0.00  0.00    +0.000 C 
BRANCH  20  21
ATOM     21  C   UNL     1       1.997   4.982  18.769  0.00  0.00    +0.000 C 
BRANCH  21  22
ATOM     22  C   UNL     1       1.598   3.646  18.148  0.00  0.00    +0.000 C 
BRANCH  22  23
ATOM     23  C   UNL     1       1.014   2.726  19.212  0.00  0.00    +0.000 C 
BRANCH  23  24
ATOM     24  C   UNL     1       0.984   3.401  20.579  0.00  0.00    +0.000 C 
ATOM     25  C   UNL     1       1.860   2.650  21.566  0.00  0.00    +0.000 C 
ENDBRANCH  23  24
ENDBRANCH  22  23
ENDBRANCH  21  22
ENDBRANCH  20  21
ENDBRANCH  19  20
ENDBRANCH  18  19
ENDBRANCH  17  18
ENDBRANCH   1  17
TORSDOF 12
ENDMDL
MODEL 9
REMARK VINA RESULT:      -6.7      1.041      1.993
REMARK  Name = 
REMARK  13 active torsions:
REMARK  status: ('A' for Active; 'I' for Inactive)
REMARK    1  A    between atoms: C_2  and  C_3
REMARK    2  A    between atoms: C_2  and  C_5
REMARK    3  A    between atoms: C_3  and  O_4
REMARK    4  A    between atoms: C_5  and  C_6
REMARK    5  A    between atoms: C_5  and  N_15
REMARK    6  A    between atoms: C_6  and  C_7
REMARK    7  A    between atoms: C_7  and  C_8
REMARK    8  A    between atoms: C_8  and  C_9
REMARK    9  A    between atoms: C_9  and  C_10
REMARK   10  A    between atoms: C_10  and  C_11
REMARK   11  A    between atoms: C_11  and  C_12
REMARK   12  A    between atoms: C_12  and  C_13
REMARK   13  A    between atoms: C_13  and  C_14
REMARK                            x       y       z     vdW  Elec       q    Type
REMARK                         _______ _______ _______ _____ _____    ______ ____
ROOT
ATOM      1  C   UNL     1       5.044   6.285  16.980  0.00  0.00    +0.000 C 
ENDROOT
BRANCH   1   2
ATOM      2  N   UNL     1       3.931   5.812  17.824  0.00  0.00    +0.000 N 
ATOM      3  C   UNL     1       3.109   6.552  18.633  0.00  0.00    +0.000 A 
ATOM      4  N   UNL     1       2.259   5.809  19.309  0.00  0.00    +0.000 NA
ATOM      5  C   UNL     1       2.532   4.521  18.919  0.00  0.00    +0.000 A 
ATOM      6  C   UNL     1       2.015   3.281  19.256  0.00  0.00    +0.000 A 
ATOM      7 CL   UNL     1       0.771   3.193  20.405  0.00  0.00    +0.000 Cl
ATOM      8  N   UNL     1       2.478   2.140  18.711  0.00  0.00    +0.000 NA
ATOM      9  C   UNL     1       3.478   2.274  17.820  0.00  0.00    +0.000 A 
ATOM     10  N   UNL     1       4.086   3.403  17.400  0.00  0.00    +0.000 NA
ATOM     11  C   UNL     1       3.562   4.499  17.988  0.00  0.00    +0.000 A 
ENDBRANCH   1   2
BRANCH   1  13
ATOM     12  C   UNL     1       7.486   6.994  17.367  0.00  0.00    +0.000 C 
ATOM     13  C   UNL     1       6.429   6.210  17.653  0.00  0.00    +0.000 C 
BRANCH  13  14
ATOM     14  C   UNL     1       6.585   5.150  18.714  0.00  0.00    +0.000 C 
BRANCH  14  15
ATOM     15  O   UNL     1       7.945   4.762  18.785  0.00  0.00    +0.000 OA
ATOM     16  H   UNL     1       8.013   4.095  19.489  0.00  0.00    +0.000 HD
ENDBRANCH  14  15
ENDBRANCH  13  14
ENDBRANCH   1  13
BRANCH   1  17
ATOM     17  C   UNL     1       4.984   5.668  15.552  0.00  0.00    +0.000 C 
BRANCH  17  18
ATOM     18  C   UNL     1       5.973   4.529  15.310  0.00  0.00    +0.000 C 
BRANCH  18  19
ATOM     19  C   UNL     1       7.011   4.835  14.240  0.00  0.00    +0.000 C 
BRANCH  19  20
ATOM     20  C   UNL     1       6.656   4.046  12.980  0.00  0.00    +0.000 C 
BRANCH  20  21
ATOM     21  C   UNL     1       5.174   3.717  12.931  0.00  0.00    +0.000 C 
BRANCH  21  22
ATOM     22  C   UNL     1       4.818   3.026  11.617  0.00  0.00    +0.000 C 
BRANCH  22  23
ATOM     23  C   UNL     1       3.443   3.479  11.142  0.00  0.00    +0.000 C 
BRANCH  23  24
ATOM     24  C   UNL     1       3.423   3.716   9.636  0.00  0.00    +0.000 C 
ATOM     25  C   UNL     1       2.375   4.753   9.272  0.00  0.00    +0.000 C 
ENDBRANCH  23  24
ENDBRANCH  22  23
ENDBRANCH  21  22
ENDBRANCH  20  21
ENDBRANCH  19  20
ENDBRANCH  18  19
ENDBRANCH  17  18
ENDBRANCH   1  17
TORSDOF 12
ENDMDL
