MODEL 1
REMARK VINA RESULT:      -6.9      0.000      0.000
REMARK  Name = 
REMARK  5 active torsions:
REMARK  status: ('A' for Active; 'I' for Inactive)
REMARK    1  A    between atoms: C_1  and  C_2
REMARK    2  A    between atoms: C_2  and  N_3
REMARK    3  A    between atoms: C_7  and  C_8
REMARK    4  A    between atoms: C_8  and  C_9
REMARK    5  A    between atoms: C_9  and  N_10
REMARK                            x       y       z     vdW  Elec       q    Type
REMARK                         _______ _______ _______ _____ _____    ______ ____
ROOT
ATOM      1  N   UNL     1       2.738   4.742  17.618  0.00  0.00    +0.000 NA
ATOM      2  C   UNL     1       3.359   6.077  17.833  0.00  0.00    +0.000 C 
ATOM      3  C   UNL     1       2.656   6.889  18.932  0.00  0.00    +0.000 C 
ATOM      4  O   UNL     1       2.634   6.178  20.171  0.00  0.00    +0.000 OA
ATOM      5  C   UNL     1       1.970   4.916  19.996  0.00  0.00    +0.000 C 
ATOM      6  C   UNL     1       1.913   4.243  21.366  0.00  0.00    +0.000 C 
ATOM      7  C   UNL     1       1.257   2.874  21.279  0.00  0.00    +0.000 C 
ATOM      8  C   UNL     1       1.983   1.989  20.277  0.00  0.00    +0.000 C 
ATOM      9  C   UNL     1       2.079   2.638  18.895  0.00  0.00    +0.000 C 
ATOM     10  C   UNL     1       2.719   4.039  18.945  0.00  0.00    +0.000 C 
ENDROOT
BRANCH   1  11
ATOM     11  C   UNL     1       3.474   3.977  16.581  0.00  0.00    +0.000 C 
BRANCH  11  12
ATOM     12  C   UNL     1       4.952   3.679  16.924  0.00  0.00    +0.000 C 
BRANCH  12  17
ATOM     13  N   UNL     1       6.906   5.182  16.234  0.00  0.00    +0.000 N 
ATOM     14  N   UNL     1       7.629   5.539  15.152  0.00  0.00    +0.000 NA
ATOM     15  C   UNL     1       7.077   4.854  14.151  0.00  0.00    +0.000 A 
ATOM     16  C   UNL     1       5.998   4.071  14.579  0.00  0.00    +0.000 A 
ATOM     17  C   UNL     1       5.901   4.291  15.939  0.00  0.00    +0.000 A 
BRANCH  13  19
ATOM     18  C   UNL     1       7.510   7.277  17.402  0.00  0.00    +0.000 C 
ATOM     19  C   UNL     1       7.263   5.782  17.508  0.00  0.00    +0.000 C 
ENDBRANCH  13  19
ENDBRANCH  12  17
ENDBRANCH  11  12
ENDBRANCH   1  11
TORSDOF 4
ENDMDL
MODEL 2
REMARK VINA RESULT:      -6.9      1.120      2.641
REMARK  Name = 
REMARK  5 active torsions:
REMARK  status: ('A' for Active; 'I' for Inactive)
REMARK    1  A    between atoms: C_1  and  C_2
REMARK    2  A    between atoms: C_2  and  N_3
REMARK    3  A    between atoms: C_7  and  C_8
REMARK    4  A    between atoms: C_8  and  C_9
REMARK    5  A    between atoms: C_9  and  N_10
REMARK                            x       y       z     vdW  Elec       q    Type
REMARK                         _______ _______ _______ _____ _____    ______ ____
ROOT
ATOM      1  N   UNL     1       3.162   4.049  18.658  0.00  0.00    +0.000 NA
ATOM      2  C   UNL     1       2.344   2.895  19.124  0.00  0.00    +0.000 C 
ATOM      3  C   UNL     1       1.890   3.040  20.584  0.00  0.00    +0.000 C 
ATOM      4  O   UNL     1       1.151   4.247  20.782  0.00  0.00    +0.000 OA
ATOM      5  C   UNL     1       1.955   5.376  20.405  0.00  0.00    +0.000 C 
ATOM      6  C   UNL     1       1.140   6.632  20.711  0.00  0.00    +0.000 C 
ATOM      7  C   UNL     1       1.895   7.889  20.310  0.00  0.00    +0.000 C 
ATOM      8  C   UNL     1       2.279   7.844  18.839  0.00  0.00    +0.000 C 
ATOM      9  C   UNL     1       3.081   6.589  18.488  0.00  0.00    +0.000 C 
ATOM     10  C   UNL     1       2.356   5.292  18.900  0.00  0.00    +0.000 C 
ENDROOT
BRANCH   1  11
ATOM     11  C   UNL     1       3.541   3.886  17.232  0.00  0.00    +0.000 C 
BRANCH  11  12
ATOM     12  C   UNL     1       4.906   3.197  17.001  0.00  0.00    +0.000 C 
BRANCH  12  17
ATOM     13  N   UNL     1       6.961   4.606  16.417  0.00  0.00    +0.000 N 
ATOM     14  N   UNL     1       7.567   5.202  15.368  0.00  0.00    +0.000 NA
ATOM     15  C   UNL     1       6.766   4.936  14.336  0.00  0.00    +0.000 A 
ATOM     16  C   UNL     1       5.646   4.186  14.716  0.00  0.00    +0.000 A 
ATOM     17  C   UNL     1       5.788   3.976  16.073  0.00  0.00    +0.000 A 
BRANCH  13  19
ATOM     18  C   UNL     1       7.516   6.139  18.278  0.00  0.00    +0.000 C 
ATOM     19  C   UNL     1       7.597   4.729  17.718  0.00  0.00    +0.000 C 
ENDBRANCH  13  19
ENDBRANCH  12  17
ENDBRANCH  11  12
ENDBRANCH   1  11
TORSDOF 4
ENDMDL
MODEL 3
REMARK VINA RESULT:      -6.8      1.316      2.017
REMARK  Name = 
REMARK  5 active torsions:
REMARK  status: ('A' for Active; 'I' for Inactive)
REMARK    1  A    between atoms: C_1  and  C_2
REMARK    2  A    between atoms: C_2  and  N_3
REMARK    3  A    between atoms: C_7  and  C_8
REMARK    4  A    between atoms: C_8  and  C_9
REMARK    5  A    between atoms: C_9  and  N_10
REMARK                            x       y       z     vdW  Elec       q    Type
REMARK                         _______ _______ _______ _____ _____    ______ ____
ROOT
ATOM      1  N   UNL     1       2.227   6.289  18.378  0.00  0.00    +0.000 NA
ATOM      2  C   UNL     1       2.437   7.019  19.659  0.00  0.00    +0.000 C 
ATOM      3  C   UNL     1       1.560   6.481  20.800  0.00  0.00    +0.000 C 
ATOM      4  O   UNL     1       1.784   5.086  21.014  0.00  0.00    +0.000 OA
ATOM      5  C   UNL     1       1.514   4.359  19.806  0.00  0.00    +0.000 C 
ATOM      6  C   UNL     1       1.697   2.875  20.122  0.00  0.00    +0.000 C 
ATOM      7  C   UNL     1       1.469   2.017  18.887  0.00  0.00    +0.000 C 
ATOM      8  C   UNL     1       2.392   2.442  17.755  0.00  0.00    +0.000 C 
ATOM      9  C   UNL     1       2.252   3.929  17.421  0.00  0.00    +0.000 C 
ATOM     10  C   UNL     1       2.455   4.831  18.655  0.00  0.00    +0.000 C 
ENDROOT
BRANCH   1  11
ATOM     11  C   UNL     1       3.124   6.814  17.318  0.00  0.00    +0.000 C 
BRANCH  11  12
ATOM     12  C   UNL     1       4.603   6.972  17.742  0.00  0.00    +0.000 C 
BRANCH  12  17
ATOM     13  N   UNL     1       6.908   6.213  16.931  0.00  0.00    +0.000 N 
ATOM     14  N   UNL     1       7.499   5.518  15.937  0.00  0.00    +0.000 NA
ATOM     15  C   UNL     1       6.487   5.151  15.151  0.00  0.00    +0.000 A 
ATOM     16  C   UNL     1       5.254   5.615  15.626  0.00  0.00    +0.000 A 
ATOM     17  C   UNL     1       5.544   6.302  16.788  0.00  0.00    +0.000 A 
BRANCH  13  19
ATOM     18  C   UNL     1       7.897   5.854  19.171  0.00  0.00    +0.000 C 
ATOM     19  C   UNL     1       7.767   6.768  17.964  0.00  0.00    +0.000 C 
ENDBRANCH  13  19
ENDBRANCH  12  17
ENDBRANCH  11  12
ENDBRANCH   1  11
TORSDOF 4
ENDMDL
MODEL 4
REMARK VINA RESULT:      -6.7      2.187      3.519
REMARK  Name = 
REMARK  5 active torsions:
REMARK  status: ('A' for Active; 'I' for Inactive)
REMARK    1  A    between atoms: C_1  and  C_2
REMARK    2  A    between atoms: C_2  and  N_3
REMARK    3  A    between atoms: C_7  and  C_8
REMARK    4  A    between atoms: C_8  and  C_9
REMARK    5  A    between atoms: C_9  and  N_10
REMARK                            x       y       z     vdW  Elec       q    Type
REMARK                         _______ _______ _______ _____ _____    ______ ____
ROOT
ATOM      1  N   UNL     1       4.897   5.123  17.142  0.00  0.00    +0.000 NA
ATOM      2  C   UNL     1       6.263   5.309  17.703  0.00  0.00    +0.000 C 
ATOM      3  C   UNL     1       6.290   5.235  19.237  0.00  0.00    +0.000 C 
ATOM      4  O   UNL     1       5.756   3.996  19.708  0.00  0.00    +0.000 OA
ATOM      5  C   UNL     1       4.410   3.836  19.234  0.00  0.00    +0.000 C 
ATOM      6  C   UNL     1       3.873   2.536  19.832  0.00  0.00    +0.000 C 
ATOM      7  C   UNL     1       2.456   2.256  19.357  0.00  0.00    +0.000 C 
ATOM      8  C   UNL     1       2.393   2.214  17.838  0.00  0.00    +0.000 C 
ATOM      9  C   UNL     1       2.941   3.492  17.200  0.00  0.00    +0.000 C 
ATOM     10  C   UNL     1       4.370   3.822  17.675  0.00  0.00    +0.000 C 
ENDROOT
BRANCH   1  11
ATOM     11  C   UNL     1       4.926   5.159  15.658  0.00  0.00    +0.000 C 
BRANCH  11  12
ATOM     12  C   UNL     1       5.586   3.929  14.994  0.00  0.00    +0.000 C 
BRANCH  12  17
ATOM     13  N   UNL     1       6.447   3.789  12.588  0.00  0.00    +0.000 N 
ATOM     14  N   UNL     1       7.357   4.345  11.760  0.00  0.00    +0.000 NA
ATOM     15  C   UNL     1       7.982   5.243  12.521  0.00  0.00    +0.000 A 
ATOM     16  C   UNL     1       7.491   5.258  13.832  0.00  0.00    +0.000 A 
ATOM     17  C   UNL     1       6.488   4.309  13.860  0.00  0.00    +0.000 A 
BRANCH  13  19
ATOM     18  C   UNL     1       4.325   3.288  11.418  0.00  0.00    +0.000 C 
ATOM     19  C   UNL     1       5.597   2.743  12.045  0.00  0.00    +0.000 C 
ENDBRANCH  13  19
ENDBRANCH  12  17
ENDBRANCH  11  12
ENDBRANCH   1  11
TORSDOF 4
ENDMDL
MODEL 5
REMARK VINA RESULT:      -6.6      1.531      2.999
REMARK  Name = 
REMARK  5 active torsions:
REMARK  status: ('A' for Active; 'I' for Inactive)
REMARK    1  A    between atoms: C_1  and  C_2
REMARK    2  A    between atoms: C_2  and  N_3
REMARK    3  A    between atoms: C_7  and  C_8
REMARK    4  A    between atoms: C_8  and  C_9
REMARK    5  A    between atoms: C_9  and  N_10
REMARK                            x       y       z     vdW  Elec       q    Type
REMARK                         _______ _______ _______ _____ _____    ______ ____
ROOT
ATOM      1  N   UNL     1       3.664   4.543  17.934  0.00  0.00    +0.000 NA
ATOM      2  C   UNL     1       3.423   3.558  16.844  0.00  0.00    +0.000 C 
ATOM      3  C   UNL     1       3.471   2.103  17.337  0.00  0.00    +0.000 C 
ATOM      4  O   UNL     1       2.531   1.878  18.389  0.00  0.00    +0.000 OA
ATOM      5  C   UNL     1       2.798   2.773  19.480  0.00  0.00    +0.000 C 
ATOM      6  C   UNL     1       1.811   2.430  20.595  0.00  0.00    +0.000 C 
ATOM      7  C   UNL     1       1.989   3.354  21.790  0.00  0.00    +0.000 C 
ATOM      8  C   UNL     1       1.844   4.810  21.375  0.00  0.00    +0.000 C 
ATOM      9  C   UNL     1       2.803   5.188  20.244  0.00  0.00    +0.000 C 
ATOM     10  C   UNL     1       2.668   4.258  19.021  0.00  0.00    +0.000 C 
ENDROOT
BRANCH   1  11
ATOM     11  C   UNL     1       3.565   5.932  17.422  0.00  0.00    +0.000 C 
BRANCH  11  12
ATOM     12  C   UNL     1       4.895   6.720  17.426  0.00  0.00    +0.000 C 
BRANCH  12  17
ATOM     13  N   UNL     1       6.665   5.216  16.349  0.00  0.00    +0.000 N 
ATOM     14  N   UNL     1       7.757   4.486  16.659  0.00  0.00    +0.000 NA
ATOM     15  C   UNL     1       7.883   4.634  17.978  0.00  0.00    +0.000 A 
ATOM     16  C   UNL     1       6.876   5.442  18.518  0.00  0.00    +0.000 A 
ATOM     17  C   UNL     1       6.092   5.818  17.445  0.00  0.00    +0.000 A 
BRANCH  13  19
ATOM     18  C   UNL     1       6.226   3.866  14.324  0.00  0.00    +0.000 C 
ATOM     19  C   UNL     1       6.251   5.247  14.957  0.00  0.00    +0.000 C 
ENDBRANCH  13  19
ENDBRANCH  12  17
ENDBRANCH  11  12
ENDBRANCH   1  11
TORSDOF 4
ENDMDL
MODEL 6
REMARK VINA RESULT:      -6.5      1.319      2.495
REMARK  Name = 
REMARK  5 active torsions:
REMARK  status: ('A' for Active; 'I' for Inactive)
REMARK    1  A    between atoms: C_1  and  C_2
REMARK    2  A    between atoms: C_2  and  N_3
REMARK    3  A    between atoms: C_7  and  C_8
REMARK    4  A    between atoms: C_8  and  C_9
REMARK    5  A    between atoms: C_9  and  N_10
REMARK                            x       y       z     vdW  Elec       q    Type
REMARK                         _______ _______ _______ _____ _____    ______ ____
ROOT
ATOM      1  N   UNL     1       2.633   6.030  18.148  0.00  0.00    +0.000 NA
ATOM      2  C   UNL     1       2.831   6.877  19.356  0.00  0.00    +0.000 C 
ATOM      3  C   UNL     1       1.798   6.592  20.457  0.00  0.00    +0.000 C 
ATOM      4  O   UNL     1       1.814   5.216  20.842  0.00  0.00    +0.000 OA
ATOM      5  C   UNL     1       1.551   4.388  19.699  0.00  0.00    +0.000 C 
ATOM      6  C   UNL     1       1.507   2.942  20.191  0.00  0.00    +0.000 C 
ATOM      7  C   UNL     1       1.269   1.976  19.040  0.00  0.00    +0.000 C 
ATOM      8  C   UNL     1       2.332   2.144  17.964  0.00  0.00    +0.000 C 
ATOM      9  C   UNL     1       2.421   3.586  17.459  0.00  0.00    +0.000 C 
ATOM     10  C   UNL     1       2.639   4.598  18.601  0.00  0.00    +0.000 C 
ENDROOT
BRANCH   1  11
ATOM     11  C   UNL     1       3.677   6.308  17.130  0.00  0.00    +0.000 C 
BRANCH  11  12
ATOM     12  C   UNL     1       4.997   6.879  17.698  0.00  0.00    +0.000 C 
BRANCH  12  17
ATOM     13  N   UNL     1       6.574   5.287  16.461  0.00  0.00    +0.000 N 
ATOM     14  N   UNL     1       7.634   4.478  16.673  0.00  0.00    +0.000 NA
ATOM     15  C   UNL     1       7.869   4.587  17.981  0.00  0.00    +0.000 A 
ATOM     16  C   UNL     1       6.963   5.448  18.611  0.00  0.00    +0.000 A 
ATOM     17  C   UNL     1       6.127   5.899  17.608  0.00  0.00    +0.000 A 
BRANCH  13  19
ATOM     18  C   UNL     1       6.004   4.027  14.410  0.00  0.00    +0.000 C 
ATOM     19  C   UNL     1       6.059   5.376  15.106  0.00  0.00    +0.000 C 
ENDBRANCH  13  19
ENDBRANCH  12  17
ENDBRANCH  11  12
ENDBRANCH   1  11
TORSDOF 4
ENDMDL
MODEL 7
REMARK VINA RESULT:      -6.5      1.551      2.413
REMARK  Name = 
REMARK  5 active torsions:
REMARK  status: ('A' for Active; 'I' for Inactive)
REMARK    1  A    between atoms: C_1  and  C_2
REMARK    2  A    between atoms: C_2  and  N_3
REMARK    3  A    between atoms: C_7  and  C_8
REMARK    4  A    between atoms: C_8  and  C_9
REMARK    5  A    between atoms: C_9  and  N_10
REMARK                            x       y       z     vdW  Elec       q    Type
REMARK                         _______ _______ _______ _____ _____    ______ ____
ROOT
ATOM      1  N   UNL     1       3.731   4.500  17.984  0.00  0.00    +0.000 NA
ATOM      2  C   UNL     1       3.578   3.468  16.922  0.00  0.00    +0.000 C 
ATOM      3  C   UNL     1       3.689   2.036  17.465  0.00  0.00    +0.000 C 
ATOM      4  O   UNL     1       2.728   1.794  18.495  0.00  0.00    +0.000 OA
ATOM      5  C   UNL     1       2.912   2.737  19.562  0.00  0.00    +0.000 C 
ATOM      6  C   UNL     1       1.910   2.377  20.658  0.00  0.00    +0.000 C 
ATOM      7  C   UNL     1       1.999   3.348  21.826  0.00  0.00    +0.000 C 
ATOM      8  C   UNL     1       1.790   4.780  21.356  0.00  0.00    +0.000 C 
ATOM      9  C   UNL     1       2.764   5.172  20.243  0.00  0.00    +0.000 C 
ATOM     10  C   UNL     1       2.718   4.197  19.049  0.00  0.00    +0.000 C 
ENDROOT
BRANCH   1  11
ATOM     11  C   UNL     1       3.575   5.865  17.422  0.00  0.00    +0.000 C 
BRANCH  11  12
ATOM     12  C   UNL     1       4.899   6.637  17.220  0.00  0.00    +0.000 C 
BRANCH  12  17
ATOM     13  N   UNL     1       7.023   5.240  16.925  0.00  0.00    +0.000 N 
ATOM     14  N   UNL     1       7.724   4.574  15.984  0.00  0.00    +0.000 NA
ATOM     15  C   UNL     1       7.026   4.764  14.864  0.00  0.00    +0.000 A 
ATOM     16  C   UNL     1       5.891   5.556  15.077  0.00  0.00    +0.000 A 
ATOM     17  C   UNL     1       5.899   5.855  16.425  0.00  0.00    +0.000 A 
BRANCH  13  19
ATOM     18  C   UNL     1       8.019   6.603  18.734  0.00  0.00    +0.000 C 
ATOM     19  C   UNL     1       7.545   5.232  18.281  0.00  0.00    +0.000 C 
ENDBRANCH  13  19
ENDBRANCH  12  17
ENDBRANCH  11  12
ENDBRANCH   1  11
TORSDOF 4
ENDMDL
MODEL 8
REMARK VINA RESULT:      -6.5      1.758      2.886
REMARK  Name = 
REMARK  5 active torsions:
REMARK  status: ('A' for Active; 'I' for Inactive)
REMARK    1  A    between atoms: C_1  and  C_2
REMARK    2  A    between atoms: C_2  and  N_3
REMARK    3  A    between atoms: C_7  and  C_8
REMARK    4  A    between atoms: C_8  and  C_9
REMARK    5  A    between atoms: C_9  and  N_10
REMARK                            x       y       z     vdW  Elec       q    Type
REMARK                         _______ _______ _______ _____ _____    ______ ____
ROOT
ATOM      1  N   UNL     1       4.052   4.927  17.008  0.00  0.00    +0.000 NA
ATOM      2  C   UNL     1       4.433   6.321  17.367  0.00  0.00    +0.000 C 
ATOM      3  C   UNL     1       3.259   7.128  17.943  0.00  0.00    +0.000 C 
ATOM      4  O   UNL     1       2.699   6.486  19.090  0.00  0.00    +0.000 OA
ATOM      5  C   UNL     1       2.259   5.164  18.741  0.00  0.00    +0.000 C 
ATOM      6  C   UNL     1       1.605   4.564  19.984  0.00  0.00    +0.000 C 
ATOM      7  C   UNL     1       1.136   3.140  19.726  0.00  0.00    +0.000 C 
ATOM      8  C   UNL     1       2.289   2.268  19.253  0.00  0.00    +0.000 C 
ATOM      9  C   UNL     1       2.984   2.847  18.019  0.00  0.00    +0.000 C 
ATOM     10  C   UNL     1       3.454   4.299  18.234  0.00  0.00    +0.000 C 
ENDROOT
BRANCH   1  11
ATOM     11  C   UNL     1       5.225   4.174  16.498  0.00  0.00    +0.000 C 
BRANCH  11  12
ATOM     12  C   UNL     1       5.061   3.615  15.066  0.00  0.00    +0.000 C 
BRANCH  12  17
ATOM     13  N   UNL     1       6.289   3.734  12.823  0.00  0.00    +0.000 N 
ATOM     14  N   UNL     1       7.308   4.375  12.213  0.00  0.00    +0.000 NA
ATOM     15  C   UNL     1       7.792   5.186  13.154  0.00  0.00    +0.000 A 
ATOM     16  C   UNL     1       7.102   5.061  14.365  0.00  0.00    +0.000 A 
ATOM     17  C   UNL     1       6.123   4.115  14.134  0.00  0.00    +0.000 A 
BRANCH  13  19
ATOM     18  C   UNL     1       4.294   3.327  11.419  0.00  0.00    +0.000 C 
ATOM     19  C   UNL     1       5.552   2.752  12.046  0.00  0.00    +0.000 C 
ENDBRANCH  13  19
ENDBRANCH  12  17
ENDBRANCH  11  12
ENDBRANCH   1  11
TORSDOF 4
ENDMDL
MODEL 9
REMARK VINA RESULT:      -6.5      2.062      5.582
REMARK  Name = 
REMARK  5 active torsions:
REMARK  status: ('A' for Active; 'I' for Inactive)
REMARK    1  A    between atoms: C_1  and  C_2
REMARK    2  A    between atoms: C_2  and  N_3
REMARK    3  A    between atoms: C_7  and  C_8
REMARK    4  A    between atoms: C_8  and  C_9
REMARK    5  A    between atoms: C_9  and  N_10
REMARK                            x       y       z     vdW  Elec       q    Type
REMARK                         _______ _______ _______ _____ _____    ______ ____
ROOT
ATOM      1  N   UNL     1       3.075   4.558  17.842  0.00  0.00    +0.000 NA
ATOM      2  C   UNL     1       2.134   5.696  18.027  0.00  0.00    +0.000 C 
ATOM      3  C   UNL     1       2.813   6.938  18.624  0.00  0.00    +0.000 C 
ATOM      4  O   UNL     1       3.914   7.367  17.819  0.00  0.00    +0.000 OA
ATOM      5  C   UNL     1       4.867   6.301  17.692  0.00  0.00    +0.000 C 
ATOM      6  C   UNL     1       6.047   6.846  16.889  0.00  0.00    +0.000 C 
ATOM      7  C   UNL     1       7.103   5.775  16.667  0.00  0.00    +0.000 C 
ATOM      8  C   UNL     1       6.503   4.558  15.978  0.00  0.00    +0.000 C 
ATOM      9  C   UNL     1       5.304   3.994  16.743  0.00  0.00    +0.000 C 
ATOM     10  C   UNL     1       4.220   5.058  17.008  0.00  0.00    +0.000 C 
ENDROOT
BRANCH   1  11
ATOM     11  C   UNL     1       2.387   3.398  17.224  0.00  0.00    +0.000 C 
BRANCH  11  12
ATOM     12  C   UNL     1       2.438   2.097  18.057  0.00  0.00    +0.000 C 
BRANCH  12  17
ATOM     13  N   UNL     1       3.272   2.379  20.461  0.00  0.00    +0.000 N 
ATOM     14  N   UNL     1       2.830   2.669  21.702  0.00  0.00    +0.000 NA
ATOM     15  C   UNL     1       1.517   2.839  21.548  0.00  0.00    +0.000 A 
ATOM     16  C   UNL     1       1.111   2.647  20.222  0.00  0.00    +0.000 A 
ATOM     17  C   UNL     1       2.266   2.352  19.524  0.00  0.00    +0.000 A 
BRANCH  13  19
ATOM     18  C   UNL     1       5.221   1.096  21.284  0.00  0.00    +0.000 C 
ATOM     19  C   UNL     1       4.693   2.123  20.297  0.00  0.00    +0.000 C 
ENDBRANCH  13  19
ENDBRANCH  12  17
ENDBRANCH  11  12
ENDBRANCH   1  11
TORSDOF 4
ENDMDL
