MODEL 1
REMARK VINA RESULT:      -7.7      0.000      0.000
REMARK  Name = 
REMARK  7 active torsions:
REMARK  status: ('A' for Active; 'I' for Inactive)
REMARK    1  A    between atoms: C_1  and  C_2
REMARK    2  A    between atoms: C_6  and  C_7
REMARK    3  A    between atoms: C_9  and  C_10
REMARK    4  A    between atoms: C_10  and  C_11
REMARK    5  A    between atoms: C_11  and  N_12
REMARK    6  A    between atoms: C_13  and  C_15
REMARK    7  A    between atoms: C_15  and  C_16
REMARK                            x       y       z     vdW  Elec       q    Type
REMARK                         _______ _______ _______ _____ _____    ______ ____
ROOT
ATOM      1  C   UNL     1       3.514   3.207  18.672  0.00  0.00    +0.000 C 
ENDROOT
BRANCH   1   4
ATOM      2  C   UNL     1       5.845   4.290  16.134  0.00  0.00    +0.000 A 
ATOM      3  N   UNL     1       4.739   3.720  16.579  0.00  0.00    +0.000 NA
ATOM      4  C   UNL     1       4.644   3.862  17.952  0.00  0.00    +0.000 A 
ATOM      5  C   UNL     1       5.661   4.595  18.530  0.00  0.00    +0.000 A 
ATOM      6  S   UNL     1       6.786   5.083  17.343  0.00  0.00    +0.000 S 
BRANCH   2  12
ATOM      7  C   UNL     1       5.315   2.486  11.506  0.00  0.00    +0.000 C 
ATOM      8  C   UNL     1       6.021   3.400  12.463  0.00  0.00    +0.000 A 
ATOM      9  C   UNL     1       7.071   4.215  12.037  0.00  0.00    +0.000 A 
ATOM     10  C   UNL     1       7.723   5.057  12.938  0.00  0.00    +0.000 A 
ATOM     11  C   UNL     1       7.324   5.093  14.273  0.00  0.00    +0.000 A 
ATOM     12  C   UNL     1       6.269   4.288  14.727  0.00  0.00    +0.000 A 
ATOM     13  C   UNL     1       5.631   3.437  13.811  0.00  0.00    +0.000 A 
ENDBRANCH   2  12
ENDBRANCH   1   4
BRANCH   1  14
ATOM     14  C   UNL     1       2.198   3.979  18.569  0.00  0.00    +0.000 C 
BRANCH  14  15
ATOM     15  N   UNL     1       2.412   5.391  18.252  0.00  0.00    +0.000 N 
ATOM     16  C   UNL     1       2.338   6.346  19.236  0.00  0.00    +0.000 C 
ATOM     17  O   UNL     1       2.091   6.080  20.416  0.00  0.00    +0.000 OA
ATOM     18  H   UNL     1       2.356   5.681  17.282  0.00  0.00    +0.000 HD
BRANCH  16  19
ATOM     19  C   UNL     1       2.608   7.767  18.781  0.00  0.00    +0.000 C 
BRANCH  19  20
ATOM     20  C   UNL     1       1.484   8.741  19.053  0.00  0.00    +0.000 A 
ATOM     21  C   UNL     1       0.838   9.375  17.981  0.00  0.00    +0.000 A 
ATOM     22  C   UNL     1      -0.241  10.231  18.205  0.00  0.00    +0.000 A 
ATOM     23  C   UNL     1      -0.696  10.443  19.498  0.00  0.00    +0.000 A 
ATOM     24  F   UNL     1      -1.741  11.251  19.710  0.00  0.00    +0.000 F 
ATOM     25  C   UNL     1      -0.072   9.829  20.578  0.00  0.00    +0.000 A 
ATOM     26  C   UNL     1       1.026   8.990  20.360  0.00  0.00    +0.000 A 
ENDBRANCH  19  20
ENDBRANCH  16  19
ENDBRANCH  14  15
ENDBRANCH   1  14
TORSDOF 6
ENDMDL
MODEL 2
REMARK VINA RESULT:      -7.6      1.006      1.419
REMARK  Name = 
REMARK  7 active torsions:
REMARK  status: ('A' for Active; 'I' for Inactive)
REMARK    1  A    between atoms: C_1  and  C_2
REMARK    2  A    between atoms: C_6  and  C_7
REMARK    3  A    between atoms: C_9  and  C_10
REMARK    4  A    between atoms: C_10  and  C_11
REMARK    5  A    between atoms: C_11  and  N_12
REMARK    6  A    between atoms: C_13  and  C_15
REMARK    7  A    between atoms: C_15  and  C_16
REMARK                            x       y       z     vdW  Elec       q    Type
REMARK                         _______ _______ _______ _____ _____    ______ ____
ROOT
ATOM      1  C   UNL     1       3.118   4.276  18.361  0.00  0.00    +0.000 C 
ENDROOT
BRANCH   1   4
ATOM      2  C   UNL     1       5.823   4.535  15.980  0.00  0.00    +0.000 A 
ATOM      3  N   UNL     1       4.562   4.398  16.349  0.00  0.00    +0.000 NA
ATOM      4  C   UNL     1       4.449   4.498  17.725  0.00  0.00    +0.000 A 
ATOM      5  C   UNL     1       5.631   4.769  18.384  0.00  0.00    +0.000 A 
ATOM      6  S   UNL     1       6.921   4.860  17.270  0.00  0.00    +0.000 S 
BRANCH   2  12
ATOM      7  C   UNL     1       5.482   2.405  11.476  0.00  0.00    +0.000 C 
ATOM      8  C   UNL     1       6.139   3.397  12.388  0.00  0.00    +0.000 A 
ATOM      9  C   UNL     1       7.188   4.202  11.941  0.00  0.00    +0.000 A 
ATOM     10  C   UNL     1       7.794   5.117  12.802  0.00  0.00    +0.000 A 
ATOM     11  C   UNL     1       7.349   5.237  14.117  0.00  0.00    +0.000 A 
ATOM     12  C   UNL     1       6.294   4.445  14.592  0.00  0.00    +0.000 A 
ATOM     13  C   UNL     1       5.703   3.519  13.718  0.00  0.00    +0.000 A 
ENDBRANCH   2  12
ENDBRANCH   1   4
BRANCH   1  14
ATOM     14  C   UNL     1       2.648   5.455  19.214  0.00  0.00    +0.000 C 
BRANCH  14  15
ATOM     15  N   UNL     1       2.421   6.658  18.413  0.00  0.00    +0.000 N 
ATOM     16  C   UNL     1       2.143   7.859  19.020  0.00  0.00    +0.000 C 
ATOM     17  O   UNL     1       2.066   7.993  20.244  0.00  0.00    +0.000 OA
ATOM     18  H   UNL     1       2.217   6.549  17.426  0.00  0.00    +0.000 HD
BRANCH  16  19
ATOM     19  C   UNL     1       1.957   9.033  18.078  0.00  0.00    +0.000 C 
BRANCH  19  20
ATOM     20  C   UNL     1       0.763   9.907  18.386  0.00  0.00    +0.000 A 
ATOM     21  C   UNL     1       0.898  10.982  19.278  0.00  0.00    +0.000 A 
ATOM     22  C   UNL     1      -0.174  11.838  19.531  0.00  0.00    +0.000 A 
ATOM     23  C   UNL     1      -1.383  11.639  18.879  0.00  0.00    +0.000 A 
ATOM     24  F   UNL     1      -2.406  12.470  19.109  0.00  0.00    +0.000 F 
ATOM     25  C   UNL     1      -1.544  10.581  17.992  0.00  0.00    +0.000 A 
ATOM     26  C   UNL     1      -0.478   9.705  17.755  0.00  0.00    +0.000 A 
ENDBRANCH  19  20
ENDBRANCH  16  19
ENDBRANCH  14  15
ENDBRANCH   1  14
TORSDOF 6
ENDMDL
MODEL 3
REMARK VINA RESULT:      -7.6      3.688      8.764
REMARK  Name = 
REMARK  7 active torsions:
REMARK  status: ('A' for Active; 'I' for Inactive)
REMARK    1  A    between atoms: C_1  and  C_2
REMARK    2  A    between atoms: C_6  and  C_7
REMARK    3  A    between atoms: C_9  and  C_10
REMARK    4  A    between atoms: C_10  and  C_11
REMARK    5  A    between atoms: C_11  and  N_12
REMARK    6  A    between atoms: C_13  and  C_15
REMARK    7  A    between atoms: C_15  and  C_16
REMARK                            x       y       z     vdW  Elec       q    Type
REMARK                         _______ _______ _______ _____ _____    ______ ____
ROOT
ATOM      1  C   UNL     1       2.231   4.755  20.871  0.00  0.00    +0.000 C 
ENDROOT
BRANCH   1   4
ATOM      2  C   UNL     1       1.076   8.174  20.703  0.00  0.00    +0.000 A 
ATOM      3  N   UNL     1       1.245   6.994  21.272  0.00  0.00    +0.000 NA
ATOM      4  C   UNL     1       2.001   6.170  20.458  0.00  0.00    +0.000 A 
ATOM      5  C   UNL     1       2.450   6.762  19.293  0.00  0.00    +0.000 A 
ATOM      6  S   UNL     1       1.881   8.367  19.190  0.00  0.00    +0.000 S 
BRANCH   2  12
ATOM      7  C   UNL     1      -1.313  12.519  20.097  0.00  0.00    +0.000 C 
ATOM      8  C   UNL     1      -0.872  11.402  20.996  0.00  0.00    +0.000 A 
ATOM      9  C   UNL     1      -1.179  11.410  22.357  0.00  0.00    +0.000 A 
ATOM     10  C   UNL     1      -0.758  10.368  23.184  0.00  0.00    +0.000 A 
ATOM     11  C   UNL     1      -0.030   9.307  22.651  0.00  0.00    +0.000 A 
ATOM     12  C   UNL     1       0.289   9.270  21.285  0.00  0.00    +0.000 A 
ATOM     13  C   UNL     1      -0.131  10.332  20.469  0.00  0.00    +0.000 A 
ENDBRANCH   2  12
ENDBRANCH   1   4
BRANCH   1  14
ATOM     14  C   UNL     1       2.119   3.759  19.716  0.00  0.00    +0.000 C 
BRANCH  14  15
ATOM     15  N   UNL     1       3.339   3.710  18.911  0.00  0.00    +0.000 N 
ATOM     16  C   UNL     1       3.270   3.608  17.543  0.00  0.00    +0.000 C 
ATOM     17  O   UNL     1       2.204   3.549  16.925  0.00  0.00    +0.000 OA
ATOM     18  H   UNL     1       4.215   3.493  19.375  0.00  0.00    +0.000 HD
BRANCH  16  19
ATOM     19  C   UNL     1       4.607   3.595  16.826  0.00  0.00    +0.000 C 
BRANCH  19  20
ATOM     20  C   UNL     1       5.524   4.742  17.181  0.00  0.00    +0.000 A 
ATOM     21  C   UNL     1       6.722   4.489  17.868  0.00  0.00    +0.000 A 
ATOM     22  C   UNL     1       7.613   5.523  18.153  0.00  0.00    +0.000 A 
ATOM     23  C   UNL     1       7.325   6.815  17.736  0.00  0.00    +0.000 A 
ATOM     24  F   UNL     1       8.188   7.804  17.996  0.00  0.00    +0.000 F 
ATOM     25  C   UNL     1       6.145   7.094  17.056  0.00  0.00    +0.000 A 
ATOM     26  C   UNL     1       5.237   6.063  16.790  0.00  0.00    +0.000 A 
ENDBRANCH  19  20
ENDBRANCH  16  19
ENDBRANCH  14  15
ENDBRANCH   1  14
TORSDOF 6
ENDMDL
MODEL 4
REMARK VINA RESULT:      -7.6      6.709      8.419
REMARK  Name = 
REMARK  7 active torsions:
REMARK  status: ('A' for Active; 'I' for Inactive)
REMARK    1  A    between atoms: C_1  and  C_2
REMARK    2  A    between atoms: C_6  and  C_7
REMARK    3  A    between atoms: C_9  and  C_10
REMARK    4  A    between atoms: C_10  and  C_11
REMARK    5  A    between atoms: C_11  and  N_12
REMARK    6  A    between atoms: C_13  and  C_15
REMARK    7  A    between atoms: C_15  and  C_16
REMARK                            x       y       z     vdW  Elec       q    Type
REMARK                         _______ _______ _______ _____ _____    ______ ____
ROOT
ATOM      1  C   UNL     1       8.077   6.540  18.579  0.00  0.00    +0.000 C 
ENDROOT
BRANCH   1   4
ATOM      2  C   UNL     1       5.113   4.633  17.788  0.00  0.00    +0.000 A 
ATOM      3  N   UNL     1       5.967   5.239  18.593  0.00  0.00    +0.000 NA
ATOM      4  C   UNL     1       6.954   5.873  17.859  0.00  0.00    +0.000 A 
ATOM      5  C   UNL     1       6.802   5.787  16.489  0.00  0.00    +0.000 A 
ATOM      6  S   UNL     1       5.423   4.859  16.106  0.00  0.00    +0.000 S 
BRANCH   2  12
ATOM      7  C   UNL     1       2.313   2.933  21.558  0.00  0.00    +0.000 C 
ATOM      8  C   UNL     1       2.600   2.992  20.087  0.00  0.00    +0.000 A 
ATOM      9  C   UNL     1       1.814   2.290  19.172  0.00  0.00    +0.000 A 
ATOM     10  C   UNL     1       2.094   2.349  17.807  0.00  0.00    +0.000 A 
ATOM     11  C   UNL     1       3.163   3.117  17.348  0.00  0.00    +0.000 A 
ATOM     12  C   UNL     1       3.967   3.836  18.244  0.00  0.00    +0.000 A 
ATOM     13  C   UNL     1       3.680   3.756  19.616  0.00  0.00    +0.000 A 
ENDBRANCH   2  12
ENDBRANCH   1   4
BRANCH   1  14
ATOM     14  C   UNL     1       8.243   8.016  18.213  0.00  0.00    +0.000 C 
BRANCH  14  15
ATOM     15  N   UNL     1       8.888   8.779  19.281  0.00  0.00    +0.000 N 
ATOM     16  C   UNL     1       9.164  10.114  19.116  0.00  0.00    +0.000 C 
ATOM     17  O   UNL     1       8.895  10.735  18.084  0.00  0.00    +0.000 OA
ATOM     18  H   UNL     1       9.356   8.270  20.023  0.00  0.00    +0.000 HD
BRANCH  16  19
ATOM     19  C   UNL     1       9.808  10.795  20.309  0.00  0.00    +0.000 C 
BRANCH  19  20
ATOM     20  C   UNL     1      10.409  12.150  20.013  0.00  0.00    +0.000 A 
ATOM     21  C   UNL     1       9.603  13.298  20.076  0.00  0.00    +0.000 A 
ATOM     22  C   UNL     1      10.149  14.565  19.867  0.00  0.00    +0.000 A 
ATOM     23  C   UNL     1      11.507  14.696  19.616  0.00  0.00    +0.000 A 
ATOM     24  F   UNL     1      12.033  15.913  19.432  0.00  0.00    +0.000 F 
ATOM     25  C   UNL     1      12.328  13.576  19.547  0.00  0.00    +0.000 A 
ATOM     26  C   UNL     1      11.779  12.302  19.731  0.00  0.00    +0.000 A 
ENDBRANCH  19  20
ENDBRANCH  16  19
ENDBRANCH  14  15
ENDBRANCH   1  14
TORSDOF 6
ENDMDL
MODEL 5
REMARK VINA RESULT:      -7.6      4.436      8.791
REMARK  Name = 
REMARK  7 active torsions:
REMARK  status: ('A' for Active; 'I' for Inactive)
REMARK    1  A    between atoms: C_1  and  C_2
REMARK    2  A    between atoms: C_6  and  C_7
REMARK    3  A    between atoms: C_9  and  C_10
REMARK    4  A    between atoms: C_10  and  C_11
REMARK    5  A    between atoms: C_11  and  N_12
REMARK    6  A    between atoms: C_13  and  C_15
REMARK    7  A    between atoms: C_15  and  C_16
REMARK                            x       y       z     vdW  Elec       q    Type
REMARK                         _______ _______ _______ _____ _____    ______ ____
ROOT
ATOM      1  C   UNL     1       2.141   9.028  19.135  0.00  0.00    +0.000 C 
ENDROOT
BRANCH   1   4
ATOM      2  C   UNL     1      -1.100  10.576  18.748  0.00  0.00    +0.000 A 
ATOM      3  N   UNL     1      -0.102   9.782  18.400  0.00  0.00    +0.000 NA
ATOM      4  C   UNL     1       0.879   9.786  19.375  0.00  0.00    +0.000 A 
ATOM      5  C   UNL     1       0.586  10.547  20.489  0.00  0.00    +0.000 A 
ATOM      6  S   UNL     1      -0.929  11.309  20.300  0.00  0.00    +0.000 S 
BRANCH   2  12
ATOM      7  C   UNL     1      -3.407  10.158  14.338  0.00  0.00    +0.000 C 
ATOM      8  C   UNL     1      -3.415  10.635  15.760  0.00  0.00    +0.000 A 
ATOM      9  C   UNL     1      -4.512  11.323  16.282  0.00  0.00    +0.000 A 
ATOM     10  C   UNL     1      -4.505  11.766  17.604  0.00  0.00    +0.000 A 
ATOM     11  C   UNL     1      -3.400  11.520  18.416  0.00  0.00    +0.000 A 
ATOM     12  C   UNL     1      -2.286  10.828  17.920  0.00  0.00    +0.000 A 
ATOM     13  C   UNL     1      -2.303  10.398  16.584  0.00  0.00    +0.000 A 
ENDBRANCH   2  12
ENDBRANCH   1   4
BRANCH   1  14
ATOM     14  C   UNL     1       2.195   8.353  17.764  0.00  0.00    +0.000 C 
BRANCH  14  15
ATOM     15  N   UNL     1       2.377   6.906  17.869  0.00  0.00    +0.000 N 
ATOM     16  C   UNL     1       3.601   6.336  17.612  0.00  0.00    +0.000 C 
ATOM     17  O   UNL     1       4.593   6.992  17.283  0.00  0.00    +0.000 OA
ATOM     18  H   UNL     1       1.553   6.315  17.876  0.00  0.00    +0.000 HD
BRANCH  16  19
ATOM     19  C   UNL     1       3.664   4.831  17.785  0.00  0.00    +0.000 C 
BRANCH  19  20
ATOM     20  C   UNL     1       2.853   4.294  18.942  0.00  0.00    +0.000 A 
ATOM     21  C   UNL     1       1.779   3.425  18.695  0.00  0.00    +0.000 A 
ATOM     22  C   UNL     1       1.055   2.868  19.750  0.00  0.00    +0.000 A 
ATOM     23  C   UNL     1       1.412   3.160  21.059  0.00  0.00    +0.000 A 
ATOM     24  F   UNL     1       0.727   2.613  22.070  0.00  0.00    +0.000 F 
ATOM     25  C   UNL     1       2.470   4.019  21.331  0.00  0.00    +0.000 A 
ATOM     26  C   UNL     1       3.183   4.598  20.275  0.00  0.00    +0.000 A 
ENDBRANCH  19  20
ENDBRANCH  16  19
ENDBRANCH  14  15
ENDBRANCH   1  14
TORSDOF 6
ENDMDL
MODEL 6
REMARK VINA RESULT:      -7.5      4.232      9.169
REMARK  Name = 
REMARK  7 active torsions:
REMARK  status: ('A' for Active; 'I' for Inactive)
REMARK    1  A    between atoms: C_1  and  C_2
REMARK    2  A    between atoms: C_6  and  C_7
REMARK    3  A    between atoms: C_9  and  C_10
REMARK    4  A    between atoms: C_10  and  C_11
REMARK    5  A    between atoms: C_11  and  N_12
REMARK    6  A    between atoms: C_13  and  C_15
REMARK    7  A    between atoms: C_15  and  C_16
REMARK                            x       y       z     vdW  Elec       q    Type
REMARK                         _______ _______ _______ _____ _____    ______ ____
ROOT
ATOM      1  C   UNL     1       1.328   9.244  21.570  0.00  0.00    +0.000 C 
ENDROOT
BRANCH   1   4
ATOM      2  C   UNL     1      -0.885  11.032  19.344  0.00  0.00    +0.000 A 
ATOM      3  N   UNL     1      -0.481   9.989  20.048  0.00  0.00    +0.000 NA
ATOM      4  C   UNL     1       0.651  10.310  20.777  0.00  0.00    +0.000 A 
ATOM      5  C   UNL     1       1.063  11.623  20.658  0.00  0.00    +0.000 A 
ATOM      6  S   UNL     1       0.042  12.466  19.582  0.00  0.00    +0.000 S 
BRANCH   2  12
ATOM      7  C   UNL     1      -2.795   9.881  14.875  0.00  0.00    +0.000 C 
ATOM      8  C   UNL     1      -2.974  10.468  16.243  0.00  0.00    +0.000 A 
ATOM      9  C   UNL     1      -4.197  11.012  16.638  0.00  0.00    +0.000 A 
ATOM     10  C   UNL     1      -4.349  11.561  17.912  0.00  0.00    +0.000 A 
ATOM     11  C   UNL     1      -3.276  11.563  18.802  0.00  0.00    +0.000 A 
ATOM     12  C   UNL     1      -2.037  11.020  18.433  0.00  0.00    +0.000 A 
ATOM     13  C   UNL     1      -1.896  10.483  17.144  0.00  0.00    +0.000 A 
ENDBRANCH   2  12
ENDBRANCH   1   4
BRANCH   1  14
ATOM     14  C   UNL     1       1.347   7.884  20.870  0.00  0.00    +0.000 C 
BRANCH  14  15
ATOM     15  N   UNL     1       2.091   7.924  19.611  0.00  0.00    +0.000 N 
ATOM     16  C   UNL     1       2.468   6.760  18.986  0.00  0.00    +0.000 C 
ATOM     17  O   UNL     1       2.211   5.640  19.437  0.00  0.00    +0.000 OA
ATOM     18  H   UNL     1       2.544   8.791  19.345  0.00  0.00    +0.000 HD
BRANCH  16  19
ATOM     19  C   UNL     1       3.209   6.939  17.675  0.00  0.00    +0.000 C 
BRANCH  19  20
ATOM     20  C   UNL     1       4.554   6.252  17.611  0.00  0.00    +0.000 A 
ATOM     21  C   UNL     1       5.133   5.744  18.784  0.00  0.00    +0.000 A 
ATOM     22  C   UNL     1       6.344   5.053  18.741  0.00  0.00    +0.000 A 
ATOM     23  C   UNL     1       6.976   4.847  17.523  0.00  0.00    +0.000 A 
ATOM     24  F   UNL     1       8.129   4.170  17.480  0.00  0.00    +0.000 F 
ATOM     25  C   UNL     1       6.425   5.342  16.346  0.00  0.00    +0.000 A 
ATOM     26  C   UNL     1       5.223   6.057  16.389  0.00  0.00    +0.000 A 
ENDBRANCH  19  20
ENDBRANCH  16  19
ENDBRANCH  14  15
ENDBRANCH   1  14
TORSDOF 6
ENDMDL
MODEL 7
REMARK VINA RESULT:      -7.4      7.075      9.078
REMARK  Name = 
REMARK  7 active torsions:
REMARK  status: ('A' for Active; 'I' for Inactive)
REMARK    1  A    between atoms: C_1  and  C_2
REMARK    2  A    between atoms: C_6  and  C_7
REMARK    3  A    between atoms: C_9  and  C_10
REMARK    4  A    between atoms: C_10  and  C_11
REMARK    5  A    between atoms: C_11  and  N_12
REMARK    6  A    between atoms: C_13  and  C_15
REMARK    7  A    between atoms: C_15  and  C_16
REMARK                            x       y       z     vdW  Elec       q    Type
REMARK                         _______ _______ _______ _____ _____    ______ ____
ROOT
ATOM      1  C   UNL     1       8.162   9.187  17.736  0.00  0.00    +0.000 C 
ENDROOT
BRANCH   1   4
ATOM      2  C   UNL     1       9.542  12.443  18.475  0.00  0.00    +0.000 A 
ATOM      3  N   UNL     1       8.852  11.568  17.765  0.00  0.00    +0.000 NA
ATOM      4  C   UNL     1       8.813  10.346  18.413  0.00  0.00    +0.000 A 
ATOM      5  C   UNL     1       9.433  10.325  19.647  0.00  0.00    +0.000 A 
ATOM      6  S   UNL     1      10.117  11.850  19.989  0.00  0.00    +0.000 S 
BRANCH   2  12
ATOM      7  C   UNL     1       8.120  17.230  18.372  0.00  0.00    +0.000 C 
ATOM      8  C   UNL     1       9.109  16.168  17.993  0.00  0.00    +0.000 A 
ATOM      9  C   UNL     1      10.243  16.477  17.240  0.00  0.00    +0.000 A 
ATOM     10  C   UNL     1      11.152  15.478  16.889  0.00  0.00    +0.000 A 
ATOM     11  C   UNL     1      10.935  14.163  17.294  0.00  0.00    +0.000 A 
ATOM     12  C   UNL     1       9.806  13.825  18.055  0.00  0.00    +0.000 A 
ATOM     13  C   UNL     1       8.894  14.838  18.390  0.00  0.00    +0.000 A 
ENDBRANCH   2  12
ENDBRANCH   1   4
BRANCH   1  14
ATOM     14  C   UNL     1       8.276   7.880  18.523  0.00  0.00    +0.000 C 
BRANCH  14  15
ATOM     15  N   UNL     1       7.557   6.784  17.876  0.00  0.00    +0.000 N 
ATOM     16  C   UNL     1       7.396   5.580  18.518  0.00  0.00    +0.000 C 
ATOM     17  O   UNL     1       7.837   5.355  19.648  0.00  0.00    +0.000 OA
ATOM     18  H   UNL     1       7.411   6.828  16.873  0.00  0.00    +0.000 HD
BRANCH  16  19
ATOM     19  C   UNL     1       6.607   4.536  17.749  0.00  0.00    +0.000 C 
BRANCH  19  20
ATOM     20  C   UNL     1       5.146   4.447  18.125  0.00  0.00    +0.000 A 
ATOM     21  C   UNL     1       4.751   3.629  19.195  0.00  0.00    +0.000 A 
ATOM     22  C   UNL     1       3.416   3.578  19.598  0.00  0.00    +0.000 A 
ATOM     23  C   UNL     1       2.470   4.359  18.949  0.00  0.00    +0.000 A 
ATOM     24  F   UNL     1       1.193   4.321  19.347  0.00  0.00    +0.000 F 
ATOM     25  C   UNL     1       2.835   5.175  17.885  0.00  0.00    +0.000 A 
ATOM     26  C   UNL     1       4.168   5.210  17.462  0.00  0.00    +0.000 A 
ENDBRANCH  19  20
ENDBRANCH  16  19
ENDBRANCH  14  15
ENDBRANCH   1  14
TORSDOF 6
ENDMDL
MODEL 8
REMARK VINA RESULT:      -7.4      3.990      9.443
REMARK  Name = 
REMARK  7 active torsions:
REMARK  status: ('A' for Active; 'I' for Inactive)
REMARK    1  A    between atoms: C_1  and  C_2
REMARK    2  A    between atoms: C_6  and  C_7
REMARK    3  A    between atoms: C_9  and  C_10
REMARK    4  A    between atoms: C_10  and  C_11
REMARK    5  A    between atoms: C_11  and  N_12
REMARK    6  A    between atoms: C_13  and  C_15
REMARK    7  A    between atoms: C_15  and  C_16
REMARK                            x       y       z     vdW  Elec       q    Type
REMARK                         _______ _______ _______ _____ _____    ______ ____
ROOT
ATOM      1  C   UNL     1       2.097   8.373  18.382  0.00  0.00    +0.000 C 
ENDROOT
BRANCH   1   4
ATOM      2  C   UNL     1      -0.716  10.616  18.052  0.00  0.00    +0.000 A 
ATOM      3  N   UNL     1      -0.092   9.455  17.956  0.00  0.00    +0.000 NA
ATOM      4  C   UNL     1       1.186   9.550  18.478  0.00  0.00    +0.000 A 
ATOM      5  C   UNL     1       1.499  10.781  19.021  0.00  0.00    +0.000 A 
ATOM      6  S   UNL     1       0.188  11.857  18.839  0.00  0.00    +0.000 S 
BRANCH   2  12
ATOM      7  C   UNL     1      -5.338  12.297  18.918  0.00  0.00    +0.000 C 
ATOM      8  C   UNL     1      -4.343  11.681  17.981  0.00  0.00    +0.000 A 
ATOM      9  C   UNL     1      -4.702  11.332  16.678  0.00  0.00    +0.000 A 
ATOM     10  C   UNL     1      -3.768  10.754  15.818  0.00  0.00    +0.000 A 
ATOM     11  C   UNL     1      -2.465  10.525  16.256  0.00  0.00    +0.000 A 
ATOM     12  C   UNL     1      -2.075  10.869  17.558  0.00  0.00    +0.000 A 
ATOM     13  C   UNL     1      -3.030  11.438  18.416  0.00  0.00    +0.000 A 
ENDBRANCH   2  12
ENDBRANCH   1   4
BRANCH   1  14
ATOM     14  C   UNL     1       2.116   7.514  19.648  0.00  0.00    +0.000 C 
BRANCH  14  15
ATOM     15  N   UNL     1       3.181   6.512  19.617  0.00  0.00    +0.000 N 
ATOM     16  C   UNL     1       2.906   5.210  19.277  0.00  0.00    +0.000 C 
ATOM     17  O   UNL     1       1.773   4.815  18.987  0.00  0.00    +0.000 OA
ATOM     18  H   UNL     1       4.054   6.721  20.090  0.00  0.00    +0.000 HD
BRANCH  16  19
ATOM     19  C   UNL     1       4.102   4.279  19.255  0.00  0.00    +0.000 C 
BRANCH  19  20
ATOM     20  C   UNL     1       4.988   4.418  18.039  0.00  0.00    +0.000 A 
ATOM     21  C   UNL     1       6.361   4.662  18.201  0.00  0.00    +0.000 A 
ATOM     22  C   UNL     1       7.208   4.734  17.095  0.00  0.00    +0.000 A 
ATOM     23  C   UNL     1       6.695   4.541  15.820  0.00  0.00    +0.000 A 
ATOM     24  F   UNL     1       7.511   4.594  14.761  0.00  0.00    +0.000 F 
ATOM     25  C   UNL     1       5.339   4.300  15.631  0.00  0.00    +0.000 A 
ATOM     26  C   UNL     1       4.482   4.252  16.736  0.00  0.00    +0.000 A 
ENDBRANCH  19  20
ENDBRANCH  16  19
ENDBRANCH  14  15
ENDBRANCH   1  14
TORSDOF 6
ENDMDL
MODEL 9
REMARK VINA RESULT:      -7.4      4.218      6.483
REMARK  Name = 
REMARK  7 active torsions:
REMARK  status: ('A' for Active; 'I' for Inactive)
REMARK    1  A    between atoms: C_1  and  C_2
REMARK    2  A    between atoms: C_6  and  C_7
REMARK    3  A    between atoms: C_9  and  C_10
REMARK    4  A    between atoms: C_10  and  C_11
REMARK    5  A    between atoms: C_11  and  N_12
REMARK    6  A    between atoms: C_13  and  C_15
REMARK    7  A    between atoms: C_15  and  C_16
REMARK                            x       y       z     vdW  Elec       q    Type
REMARK                         _______ _______ _______ _____ _____    ______ ____
ROOT
ATOM      1  C   UNL     1       1.097   8.891  21.823  0.00  0.00    +0.000 C 
ENDROOT
BRANCH   1   4
ATOM      2  C   UNL     1       2.366   7.452  18.762  0.00  0.00    +0.000 A 
ATOM      3  N   UNL     1       2.054   7.452  20.046  0.00  0.00    +0.000 NA
ATOM      4  C   UNL     1       1.445   8.645  20.394  0.00  0.00    +0.000 A 
ATOM      5  C   UNL     1       1.248   9.521  19.345  0.00  0.00    +0.000 A 
ATOM      6  S   UNL     1       1.875   8.863  17.901  0.00  0.00    +0.000 S 
BRANCH   2  12
ATOM      7  C   UNL     1       2.546   2.611  17.544  0.00  0.00    +0.000 C 
ATOM      8  C   UNL     1       3.156   3.981  17.488  0.00  0.00    +0.000 A 
ATOM      9  C   UNL     1       4.362   4.205  16.823  0.00  0.00    +0.000 A 
ATOM     10  C   UNL     1       4.922   5.482  16.784  0.00  0.00    +0.000 A 
ATOM     11  C   UNL     1       4.273   6.547  17.406  0.00  0.00    +0.000 A 
ATOM     12  C   UNL     1       3.057   6.352  18.078  0.00  0.00    +0.000 A 
ATOM     13  C   UNL     1       2.513   5.058  18.120  0.00  0.00    +0.000 A 
ENDBRANCH   2  12
ENDBRANCH   1   4
BRANCH   1  14
ATOM     14  C   UNL     1      -0.408   8.874  22.095  0.00  0.00    +0.000 C 
BRANCH  14  15
ATOM     15  N   UNL     1      -0.846  10.054  22.840  0.00  0.00    +0.000 N 
ATOM     16  C   UNL     1      -1.176  11.213  22.180  0.00  0.00    +0.000 C 
ATOM     17  O   UNL     1      -1.122  11.328  20.953  0.00  0.00    +0.000 OA
ATOM     18  H   UNL     1      -0.658  10.093  23.836  0.00  0.00    +0.000 HD
BRANCH  16  19
ATOM     19  C   UNL     1      -1.642  12.352  23.066  0.00  0.00    +0.000 C 
BRANCH  19  20
ATOM     20  C   UNL     1      -3.142  12.506  23.159  0.00  0.00    +0.000 A 
ATOM     21  C   UNL     1      -3.778  12.397  24.406  0.00  0.00    +0.000 A 
ATOM     22  C   UNL     1      -5.154  12.596  24.525  0.00  0.00    +0.000 A 
ATOM     23  C   UNL     1      -5.901  12.926  23.404  0.00  0.00    +0.000 A 
ATOM     24  F   UNL     1      -7.218  13.133  23.521  0.00  0.00    +0.000 F 
ATOM     25  C   UNL     1      -5.297  13.039  22.156  0.00  0.00    +0.000 A 
ATOM     26  C   UNL     1      -3.922  12.815  22.029  0.00  0.00    +0.000 A 
ENDBRANCH  19  20
ENDBRANCH  16  19
ENDBRANCH  14  15
ENDBRANCH   1  14
TORSDOF 6
ENDMDL
