MODEL 1
REMARK VINA RESULT:      -7.5      0.000      0.000
REMARK  Name = 
REMARK  6 active torsions:
REMARK  status: ('A' for Active; 'I' for Inactive)
REMARK    1  A    between atoms: C_1  and  N_2
REMARK    2  A    between atoms: N_2  and  C_3
REMARK    3  A    between atoms: N_2  and  C_4
REMARK    4  A    between atoms: C_7  and  C_8
REMARK    5  A    between atoms: C_9  and  C_10
REMARK    6  A    between atoms: C_10  and  C_12
REMARK                            x       y       z     vdW  Elec       q    Type
REMARK                         _______ _______ _______ _____ _____    ______ ____
ROOT
ATOM      1  C   UNL     1       2.960   6.306  18.183  0.00  0.00    +0.000 C 
ATOM      2  C   UNL     1       2.719   5.105  18.727  0.00  0.00    +0.000 C 
ENDROOT
BRANCH   1   6
ATOM      3  C   UNL     1       0.920   9.881  19.562  0.00  0.00    +0.000 A 
ATOM      4  C   UNL     1       1.246   8.813  20.414  0.00  0.00    +0.000 A 
ATOM      5  C   UNL     1       1.912   7.663  19.960  0.00  0.00    +0.000 A 
ATOM      6  C   UNL     1       2.284   7.535  18.623  0.00  0.00    +0.000 A 
ATOM      7  C   UNL     1       2.016   8.605  17.767  0.00  0.00    +0.000 A 
ATOM      8  C   UNL     1       1.342   9.746  18.229  0.00  0.00    +0.000 A 
BRANCH   3  10
ATOM      9  C   UNL     1      -1.100  11.315  19.520  0.00  0.00    +0.000 C 
ATOM     10  N   UNL     1       0.240  11.009  20.008  0.00  0.00    +0.000 N 
ATOM     11  C   UNL     1       0.938  12.049  20.753  0.00  0.00    +0.000 C 
ENDBRANCH   3  10
ENDBRANCH   1   6
BRANCH   2  12
ATOM     12  C   UNL     1       3.443   3.892  18.265  0.00  0.00    +0.000 C 
ATOM     13  O   UNL     1       2.962   2.769  18.320  0.00  0.00    +0.000 OA
BRANCH  12  14
ATOM     14  C   UNL     1       4.787   4.117  17.676  0.00  0.00    +0.000 A 
ATOM     15  C   UNL     1       5.863   4.533  18.468  0.00  0.00    +0.000 A 
ATOM     16  C   UNL     1       7.100   4.764  17.875  0.00  0.00    +0.000 A 
ATOM     17  F   UNL     1       8.121   5.178  18.635  0.00  0.00    +0.000 F 
ATOM     18  C   UNL     1       7.290   4.575  16.515  0.00  0.00    +0.000 A 
ATOM     19  C   UNL     1       6.223   4.136  15.743  0.00  0.00    +0.000 A 
ATOM     20  F   UNL     1       6.398   3.947  14.430  0.00  0.00    +0.000 F 
ATOM     21  C   UNL     1       4.973   3.897  16.308  0.00  0.00    +0.000 A 
ENDBRANCH  12  14
ENDBRANCH   2  12
TORSDOF 4
ENDMDL
MODEL 2
REMARK VINA RESULT:      -7.5      0.657      1.926
REMARK  Name = 
REMARK  6 active torsions:
REMARK  status: ('A' for Active; 'I' for Inactive)
REMARK    1  A    between atoms: C_1  and  N_2
REMARK    2  A    between atoms: N_2  and  C_3
REMARK    3  A    between atoms: N_2  and  C_4
REMARK    4  A    between atoms: C_7  and  C_8
REMARK    5  A    between atoms: C_9  and  C_10
REMARK    6  A    between atoms: C_10  and  C_12
REMARK                            x       y       z     vdW  Elec       q    Type
REMARK                         _______ _______ _______ _____ _____    ______ ____
ROOT
ATOM      1  C   UNL     1       2.877   6.370  17.916  0.00  0.00    +0.000 C 
ATOM      2  C   UNL     1       2.700   5.108  18.333  0.00  0.00    +0.000 C 
ENDROOT
BRANCH   1   6
ATOM      3  C   UNL     1       0.959   9.715  19.906  0.00  0.00    +0.000 A 
ATOM      4  C   UNL     1       1.359   8.553  20.585  0.00  0.00    +0.000 A 
ATOM      5  C   UNL     1       1.986   7.478  19.934  0.00  0.00    +0.000 A 
ATOM      6  C   UNL     1       2.240   7.524  18.564  0.00  0.00    +0.000 A 
ATOM      7  C   UNL     1       1.898   8.691  17.877  0.00  0.00    +0.000 A 
ATOM      8  C   UNL     1       1.264   9.755  18.536  0.00  0.00    +0.000 A 
BRANCH   3  10
ATOM      9  C   UNL     1       0.389  12.124  20.012  0.00  0.00    +0.000 C 
ATOM     10  N   UNL     1       0.318  10.770  20.548  0.00  0.00    +0.000 N 
ATOM     11  C   UNL     1      -0.206  10.607  21.899  0.00  0.00    +0.000 C 
ENDBRANCH   3  10
ENDBRANCH   1   6
BRANCH   2  12
ATOM     12  C   UNL     1       3.384   3.972  17.660  0.00  0.00    +0.000 C 
ATOM     13  O   UNL     1       2.838   2.899  17.447  0.00  0.00    +0.000 OA
BRANCH  12  14
ATOM     14  C   UNL     1       4.774   4.223  17.203  0.00  0.00    +0.000 A 
ATOM     15  C   UNL     1       5.106   4.178  15.845  0.00  0.00    +0.000 A 
ATOM     16  C   UNL     1       6.426   4.387  15.456  0.00  0.00    +0.000 A 
ATOM     17  F   UNL     1       6.741   4.327  14.157  0.00  0.00    +0.000 F 
ATOM     18  C   UNL     1       7.416   4.652  16.391  0.00  0.00    +0.000 A 
ATOM     19  C   UNL     1       7.069   4.720  17.733  0.00  0.00    +0.000 A 
ATOM     20  F   UNL     1       8.017   4.979  18.642  0.00  0.00    +0.000 F 
ATOM     21  C   UNL     1       5.758   4.516  18.152  0.00  0.00    +0.000 A 
ENDBRANCH  12  14
ENDBRANCH   2  12
TORSDOF 4
ENDMDL
MODEL 3
REMARK VINA RESULT:      -7.5      5.923      7.056
REMARK  Name = 
REMARK  6 active torsions:
REMARK  status: ('A' for Active; 'I' for Inactive)
REMARK    1  A    between atoms: C_1  and  N_2
REMARK    2  A    between atoms: N_2  and  C_3
REMARK    3  A    between atoms: N_2  and  C_4
REMARK    4  A    between atoms: C_7  and  C_8
REMARK    5  A    between atoms: C_9  and  C_10
REMARK    6  A    between atoms: C_10  and  C_12
REMARK                            x       y       z     vdW  Elec       q    Type
REMARK                         _______ _______ _______ _____ _____    ______ ____
ROOT
ATOM      1  C   UNL     1       8.007   9.039  17.527  0.00  0.00    +0.000 C 
ATOM      2  C   UNL     1       7.856   7.797  18.012  0.00  0.00    +0.000 C 
ENDROOT
BRANCH   1   6
ATOM      3  C   UNL     1       9.923  12.290  19.670  0.00  0.00    +0.000 A 
ATOM      4  C   UNL     1       9.288  12.465  18.430  0.00  0.00    +0.000 A 
ATOM      5  C   UNL     1       8.664  11.408  17.747  0.00  0.00    +0.000 A 
ATOM      6  C   UNL     1       8.650  10.122  18.283  0.00  0.00    +0.000 A 
ATOM      7  C   UNL     1       9.231   9.933  19.539  0.00  0.00    +0.000 A 
ATOM      8  C   UNL     1       9.859  10.994  20.209  0.00  0.00    +0.000 A 
BRANCH   3  10
ATOM      9  C   UNL     1       9.948  13.960  21.500  0.00  0.00    +0.000 C 
ATOM     10  N   UNL     1      10.560  13.332  20.335  0.00  0.00    +0.000 N 
ATOM     11  C   UNL     1      11.710  14.000  19.736  0.00  0.00    +0.000 C 
ENDBRANCH   3  10
ENDBRANCH   1   6
BRANCH   2  12
ATOM     12  C   UNL     1       7.220   6.727  17.202  0.00  0.00    +0.000 C 
ATOM     13  O   UNL     1       7.705   6.302  16.163  0.00  0.00    +0.000 OA
BRANCH  12  14
ATOM     14  C   UNL     1       5.968   6.147  17.749  0.00  0.00    +0.000 A 
ATOM     15  C   UNL     1       4.727   6.746  17.503  0.00  0.00    +0.000 A 
ATOM     16  C   UNL     1       3.578   6.193  18.059  0.00  0.00    +0.000 A 
ATOM     17  F   UNL     1       2.396   6.780  17.834  0.00  0.00    +0.000 F 
ATOM     18  C   UNL     1       3.638   5.049  18.840  0.00  0.00    +0.000 A 
ATOM     19  C   UNL     1       4.871   4.448  19.055  0.00  0.00    +0.000 A 
ATOM     20  F   UNL     1       4.938   3.341  19.806  0.00  0.00    +0.000 F 
ATOM     21  C   UNL     1       6.038   4.979  18.513  0.00  0.00    +0.000 A 
ENDBRANCH  12  14
ENDBRANCH   2  12
TORSDOF 4
ENDMDL
MODEL 4
REMARK VINA RESULT:      -7.4      0.565      2.185
REMARK  Name = 
REMARK  6 active torsions:
REMARK  status: ('A' for Active; 'I' for Inactive)
REMARK    1  A    between atoms: C_1  and  N_2
REMARK    2  A    between atoms: N_2  and  C_3
REMARK    3  A    between atoms: N_2  and  C_4
REMARK    4  A    between atoms: C_7  and  C_8
REMARK    5  A    between atoms: C_9  and  C_10
REMARK    6  A    between atoms: C_10  and  C_12
REMARK                            x       y       z     vdW  Elec       q    Type
REMARK                         _______ _______ _______ _____ _____    ______ ____
ROOT
ATOM      1  C   UNL     1       3.160   6.338  18.437  0.00  0.00    +0.000 C 
ATOM      2  C   UNL     1       2.620   5.135  18.193  0.00  0.00    +0.000 C 
ENDROOT
BRANCH   1   6
ATOM      3  C   UNL     1       0.841   9.870  19.430  0.00  0.00    +0.000 A 
ATOM      4  C   UNL     1       1.337   9.622  18.140  0.00  0.00    +0.000 A 
ATOM      5  C   UNL     1       2.080   8.473  17.826  0.00  0.00    +0.000 A 
ATOM      6  C   UNL     1       2.359   7.516  18.800  0.00  0.00    +0.000 A 
ATOM      7  C   UNL     1       1.833   7.715  20.079  0.00  0.00    +0.000 A 
ATOM      8  C   UNL     1       1.099   8.871  20.383  0.00  0.00    +0.000 A 
BRANCH   3  10
ATOM      9  C   UNL     1      -0.386  11.236  21.094  0.00  0.00    +0.000 C 
ATOM     10  N   UNL     1       0.124  11.020  19.745  0.00  0.00    +0.000 N 
ATOM     11  C   UNL     1      -0.366  11.900  18.691  0.00  0.00    +0.000 C 
ENDBRANCH   3  10
ENDBRANCH   1   6
BRANCH   2  12
ATOM     12  C   UNL     1       3.472   3.965  17.853  0.00  0.00    +0.000 C 
ATOM     13  O   UNL     1       3.087   2.809  17.958  0.00  0.00    +0.000 OA
BRANCH  12  14
ATOM     14  C   UNL     1       4.822   4.272  17.319  0.00  0.00    +0.000 A 
ATOM     15  C   UNL     1       5.055   4.345  15.941  0.00  0.00    +0.000 A 
ATOM     16  C   UNL     1       6.341   4.603  15.476  0.00  0.00    +0.000 A 
ATOM     17  F   UNL     1       6.560   4.655  14.157  0.00  0.00    +0.000 F 
ATOM     18  C   UNL     1       7.394   4.804  16.356  0.00  0.00    +0.000 A 
ATOM     19  C   UNL     1       7.147   4.755  17.721  0.00  0.00    +0.000 A 
ATOM     20  F   UNL     1       8.157   4.951  18.577  0.00  0.00    +0.000 F 
ATOM     21  C   UNL     1       5.870   4.499  18.215  0.00  0.00    +0.000 A 
ENDBRANCH  12  14
ENDBRANCH   2  12
TORSDOF 4
ENDMDL
MODEL 5
REMARK VINA RESULT:      -7.4      5.954      7.034
REMARK  Name = 
REMARK  6 active torsions:
REMARK  status: ('A' for Active; 'I' for Inactive)
REMARK    1  A    between atoms: C_1  and  N_2
REMARK    2  A    between atoms: N_2  and  C_3
REMARK    3  A    between atoms: N_2  and  C_4
REMARK    4  A    between atoms: C_7  and  C_8
REMARK    5  A    between atoms: C_9  and  C_10
REMARK    6  A    between atoms: C_10  and  C_12
REMARK                            x       y       z     vdW  Elec       q    Type
REMARK                         _______ _______ _______ _____ _____    ______ ____
ROOT
ATOM      1  C   UNL     1       7.885   9.067  17.562  0.00  0.00    +0.000 C 
ATOM      2  C   UNL     1       7.956   7.778  17.924  0.00  0.00    +0.000 C 
ENDROOT
BRANCH   1   6
ATOM      3  C   UNL     1      10.003  12.283  19.565  0.00  0.00    +0.000 A 
ATOM      4  C   UNL     1       9.280  12.472  18.376  0.00  0.00    +0.000 A 
ATOM      5  C   UNL     1       8.591  11.427  17.739  0.00  0.00    +0.000 A 
ATOM      6  C   UNL     1       8.598  10.139  18.271  0.00  0.00    +0.000 A 
ATOM      7  C   UNL     1       9.268   9.937  19.480  0.00  0.00    +0.000 A 
ATOM      8  C   UNL     1       9.960  10.987  20.104  0.00  0.00    +0.000 A 
BRANCH   3  10
ATOM      9  C   UNL     1      10.115  14.056  21.291  0.00  0.00    +0.000 C 
ATOM     10  N   UNL     1      10.703  13.314  20.184  0.00  0.00    +0.000 N 
ATOM     11  C   UNL     1      11.913  13.855  19.577  0.00  0.00    +0.000 C 
ENDBRANCH   3  10
ENDBRANCH   1   6
BRANCH   2  12
ATOM     12  C   UNL     1       7.235   6.725  17.163  0.00  0.00    +0.000 C 
ATOM     13  O   UNL     1       7.671   6.234  16.131  0.00  0.00    +0.000 OA
BRANCH  12  14
ATOM     14  C   UNL     1       5.958   6.249  17.751  0.00  0.00    +0.000 A 
ATOM     15  C   UNL     1       5.917   5.108  18.560  0.00  0.00    +0.000 A 
ATOM     16  C   UNL     1       4.697   4.673  19.068  0.00  0.00    +0.000 A 
ATOM     17  F   UNL     1       4.661   3.571  19.827  0.00  0.00    +0.000 F 
ATOM     18  C   UNL     1       3.522   5.359  18.799  0.00  0.00    +0.000 A 
ATOM     19  C   UNL     1       3.579   6.505  18.017  0.00  0.00    +0.000 A 
ATOM     20  F   UNL     1       2.451   7.176  17.755  0.00  0.00    +0.000 F 
ATOM     21  C   UNL     1       4.785   6.964  17.495  0.00  0.00    +0.000 A 
ENDBRANCH  12  14
ENDBRANCH   2  12
TORSDOF 4
ENDMDL
MODEL 6
REMARK VINA RESULT:      -7.4      4.372      6.148
REMARK  Name = 
REMARK  6 active torsions:
REMARK  status: ('A' for Active; 'I' for Inactive)
REMARK    1  A    between atoms: C_1  and  N_2
REMARK    2  A    between atoms: N_2  and  C_3
REMARK    3  A    between atoms: N_2  and  C_4
REMARK    4  A    between atoms: C_7  and  C_8
REMARK    5  A    between atoms: C_9  and  C_10
REMARK    6  A    between atoms: C_10  and  C_12
REMARK                            x       y       z     vdW  Elec       q    Type
REMARK                         _______ _______ _______ _____ _____    ______ ____
ROOT
ATOM      1  C   UNL     1       5.696   3.929  15.860  0.00  0.00    +0.000 C 
ATOM      2  C   UNL     1       6.104   5.016  15.189  0.00  0.00    +0.000 C 
ENDROOT
BRANCH   1   6
ATOM      3  C   UNL     1       3.268   4.155  19.450  0.00  0.00    +0.000 A 
ATOM      4  C   UNL     1       2.761   3.724  18.214  0.00  0.00    +0.000 A 
ATOM      5  C   UNL     1       3.556   3.647  17.059  0.00  0.00    +0.000 A 
ATOM      6  C   UNL     1       4.903   4.001  17.096  0.00  0.00    +0.000 A 
ATOM      7  C   UNL     1       5.443   4.384  18.325  0.00  0.00    +0.000 A 
ATOM      8  C   UNL     1       4.637   4.466  19.471  0.00  0.00    +0.000 A 
BRANCH   3  10
ATOM      9  C   UNL     1       2.272   3.100  21.459  0.00  0.00    +0.000 C 
ATOM     10  N   UNL     1       2.474   4.252  20.589  0.00  0.00    +0.000 N 
ATOM     11  C   UNL     1       1.614   5.411  20.795  0.00  0.00    +0.000 C 
ENDBRANCH   3  10
ENDBRANCH   1   6
BRANCH   2  12
ATOM     12  C   UNL     1       6.885   4.895  13.930  0.00  0.00    +0.000 C 
ATOM     13  O   UNL     1       7.933   5.495  13.737  0.00  0.00    +0.000 OA
BRANCH  12  14
ATOM     14  C   UNL     1       6.350   3.952  12.917  0.00  0.00    +0.000 A 
ATOM     15  C   UNL     1       4.987   3.929  12.600  0.00  0.00    +0.000 A 
ATOM     16  C   UNL     1       4.517   3.010  11.667  0.00  0.00    +0.000 A 
ATOM     17  F   UNL     1       3.209   2.981  11.381  0.00  0.00    +0.000 F 
ATOM     18  C   UNL     1       5.377   2.126  11.034  0.00  0.00    +0.000 A 
ATOM     19  C   UNL     1       6.731   2.175  11.337  0.00  0.00    +0.000 A 
ATOM     20  F   UNL     1       7.570   1.328  10.729  0.00  0.00    +0.000 F 
ATOM     21  C   UNL     1       7.231   3.084  12.266  0.00  0.00    +0.000 A 
ENDBRANCH  12  14
ENDBRANCH   2  12
TORSDOF 4
ENDMDL
MODEL 7
REMARK VINA RESULT:      -7.4      0.338      1.275
REMARK  Name = 
REMARK  6 active torsions:
REMARK  status: ('A' for Active; 'I' for Inactive)
REMARK    1  A    between atoms: C_1  and  N_2
REMARK    2  A    between atoms: N_2  and  C_3
REMARK    3  A    between atoms: N_2  and  C_4
REMARK    4  A    between atoms: C_7  and  C_8
REMARK    5  A    between atoms: C_9  and  C_10
REMARK    6  A    between atoms: C_10  and  C_12
REMARK                            x       y       z     vdW  Elec       q    Type
REMARK                         _______ _______ _______ _____ _____    ______ ____
ROOT
ATOM      1  C   UNL     1       2.991   6.323  18.345  0.00  0.00    +0.000 C 
ATOM      2  C   UNL     1       2.691   5.124  18.866  0.00  0.00    +0.000 C 
ENDROOT
BRANCH   1   6
ATOM      3  C   UNL     1       0.997  10.028  19.408  0.00  0.00    +0.000 A 
ATOM      4  C   UNL     1       1.478   9.766  18.115  0.00  0.00    +0.000 A 
ATOM      5  C   UNL     1       2.116   8.561  17.778  0.00  0.00    +0.000 A 
ATOM      6  C   UNL     1       2.299   7.560  18.731  0.00  0.00    +0.000 A 
ATOM      7  C   UNL     1       1.783   7.777  20.011  0.00  0.00    +0.000 A 
ATOM      8  C   UNL     1       1.156   8.988  20.338  0.00  0.00    +0.000 A 
BRANCH   3  10
ATOM      9  C   UNL     1       0.404  11.718  21.120  0.00  0.00    +0.000 C 
ATOM     10  N   UNL     1       0.386  11.231  19.746  0.00  0.00    +0.000 N 
ATOM     11  C   UNL     1      -0.511  11.896  18.808  0.00  0.00    +0.000 C 
ENDBRANCH   3  10
ENDBRANCH   1   6
BRANCH   2  12
ATOM     12  C   UNL     1       3.434   3.902  18.463  0.00  0.00    +0.000 C 
ATOM     13  O   UNL     1       2.995   2.772  18.627  0.00  0.00    +0.000 OA
BRANCH  12  14
ATOM     14  C   UNL     1       4.739   4.121  17.792  0.00  0.00    +0.000 A 
ATOM     15  C   UNL     1       5.864   4.533  18.515  0.00  0.00    +0.000 A 
ATOM     16  C   UNL     1       7.063   4.759  17.846  0.00  0.00    +0.000 A 
ATOM     17  F   UNL     1       8.131   5.169  18.541  0.00  0.00    +0.000 F 
ATOM     18  C   UNL     1       7.167   4.569  16.477  0.00  0.00    +0.000 A 
ATOM     19  C   UNL     1       6.052   4.134  15.773  0.00  0.00    +0.000 A 
ATOM     20  F   UNL     1       6.145   3.945  14.451  0.00  0.00    +0.000 F 
ATOM     21  C   UNL     1       4.839   3.900  16.415  0.00  0.00    +0.000 A 
ENDBRANCH  12  14
ENDBRANCH   2  12
TORSDOF 4
ENDMDL
MODEL 8
REMARK VINA RESULT:      -7.3      5.756      6.771
REMARK  Name = 
REMARK  6 active torsions:
REMARK  status: ('A' for Active; 'I' for Inactive)
REMARK    1  A    between atoms: C_1  and  N_2
REMARK    2  A    between atoms: N_2  and  C_3
REMARK    3  A    between atoms: N_2  and  C_4
REMARK    4  A    between atoms: C_7  and  C_8
REMARK    5  A    between atoms: C_9  and  C_10
REMARK    6  A    between atoms: C_10  and  C_12
REMARK                            x       y       z     vdW  Elec       q    Type
REMARK                         _______ _______ _______ _____ _____    ______ ____
ROOT
ATOM      1  C   UNL     1       7.695   8.845  17.524  0.00  0.00    +0.000 C 
ATOM      2  C   UNL     1       7.874   7.563  17.874  0.00  0.00    +0.000 C 
ENDROOT
BRANCH   1   6
ATOM      3  C   UNL     1       9.733  12.087  19.568  0.00  0.00    +0.000 A 
ATOM      4  C   UNL     1       9.726  10.768  20.049  0.00  0.00    +0.000 A 
ATOM      5  C   UNL     1       9.069   9.723  19.378  0.00  0.00    +0.000 A 
ATOM      6  C   UNL     1       8.388   9.960  18.185  0.00  0.00    +0.000 A 
ATOM      7  C   UNL     1       8.424  11.253  17.659  0.00  0.00    +0.000 A 
ATOM      8  C   UNL     1       9.075  12.291  18.344  0.00  0.00    +0.000 A 
BRANCH   3  10
ATOM      9  C   UNL     1      11.660  13.624  19.806  0.00  0.00    +0.000 C 
ATOM     10  N   UNL     1      10.364  13.125  20.246  0.00  0.00    +0.000 N 
ATOM     11  C   UNL     1       9.886  13.553  21.556  0.00  0.00    +0.000 C 
ENDBRANCH   3  10
ENDBRANCH   1   6
BRANCH   2  12
ATOM     12  C   UNL     1       7.169   6.466  17.161  0.00  0.00    +0.000 C 
ATOM     13  O   UNL     1       7.600   5.952  16.138  0.00  0.00    +0.000 OA
BRANCH  12  14
ATOM     14  C   UNL     1       5.916   5.977  17.788  0.00  0.00    +0.000 A 
ATOM     15  C   UNL     1       5.914   4.845  18.610  0.00  0.00    +0.000 A 
ATOM     16  C   UNL     1       4.715   4.396  19.155  0.00  0.00    +0.000 A 
ATOM     17  F   UNL     1       4.716   3.303  19.927  0.00  0.00    +0.000 F 
ATOM     18  C   UNL     1       3.522   5.061  18.910  0.00  0.00    +0.000 A 
ATOM     19  C   UNL     1       3.540   6.199  18.115  0.00  0.00    +0.000 A 
ATOM     20  F   UNL     1       2.395   6.849  17.875  0.00  0.00    +0.000 F 
ATOM     21  C   UNL     1       4.725   6.671  17.555  0.00  0.00    +0.000 A 
ENDBRANCH  12  14
ENDBRANCH   2  12
TORSDOF 4
ENDMDL
MODEL 9
REMARK VINA RESULT:      -7.3      1.021      1.220
REMARK  Name = 
REMARK  6 active torsions:
REMARK  status: ('A' for Active; 'I' for Inactive)
REMARK    1  A    between atoms: C_1  and  N_2
REMARK    2  A    between atoms: N_2  and  C_3
REMARK    3  A    between atoms: N_2  and  C_4
REMARK    4  A    between atoms: C_7  and  C_8
REMARK    5  A    between atoms: C_9  and  C_10
REMARK    6  A    between atoms: C_10  and  C_12
REMARK                            x       y       z     vdW  Elec       q    Type
REMARK                         _______ _______ _______ _____ _____    ______ ____
ROOT
ATOM      1  C   UNL     1       2.686   7.097  18.044  0.00  0.00    +0.000 C 
ATOM      2  C   UNL     1       2.559   5.840  18.494  0.00  0.00    +0.000 C 
ENDROOT
BRANCH   1   6
ATOM      3  C   UNL     1       0.624  10.413  19.938  0.00  0.00    +0.000 A 
ATOM      4  C   UNL     1       0.925   9.218  20.612  0.00  0.00    +0.000 A 
ATOM      5  C   UNL     1       1.599   8.153  19.993  0.00  0.00    +0.000 A 
ATOM      6  C   UNL     1       2.004   8.242  18.662  0.00  0.00    +0.000 A 
ATOM      7  C   UNL     1       1.761   9.440  17.986  0.00  0.00    +0.000 A 
ATOM      8  C   UNL     1       1.079  10.494  18.612  0.00  0.00    +0.000 A 
BRANCH   3  10
ATOM      9  C   UNL     1      -0.329  11.445  21.979  0.00  0.00    +0.000 C 
ATOM     10  N   UNL     1      -0.064  11.459  20.546  0.00  0.00    +0.000 N 
ATOM     11  C   UNL     1      -0.767  12.450  19.740  0.00  0.00    +0.000 C 
ENDBRANCH   3  10
ENDBRANCH   1   6
BRANCH   2  12
ATOM     12  C   UNL     1       3.287   4.716  17.851  0.00  0.00    +0.000 C 
ATOM     13  O   UNL     1       2.718   3.778  17.310  0.00  0.00    +0.000 OA
BRANCH  12  14
ATOM     14  C   UNL     1       4.768   4.810  17.850  0.00  0.00    +0.000 A 
ATOM     15  C   UNL     1       5.469   5.177  19.004  0.00  0.00    +0.000 A 
ATOM     16  C   UNL     1       6.856   5.286  18.958  0.00  0.00    +0.000 A 
ATOM     17  F   UNL     1       7.519   5.653  20.060  0.00  0.00    +0.000 F 
ATOM     18  C   UNL     1       7.557   5.022  17.791  0.00  0.00    +0.000 A 
ATOM     19  C   UNL     1       6.853   4.633  16.659  0.00  0.00    +0.000 A 
ATOM     20  F   UNL     1       7.522   4.374  15.529  0.00  0.00    +0.000 F 
ATOM     21  C   UNL     1       5.466   4.516  16.675  0.00  0.00    +0.000 A 
ENDBRANCH  12  14
ENDBRANCH   2  12
TORSDOF 4
ENDMDL
