MODEL 1
REMARK VINA RESULT:      -6.7      0.000      0.000
REMARK  Name = 
REMARK  4 active torsions:
REMARK  status: ('A' for Active; 'I' for Inactive)
REMARK    1  A    between atoms: C_1  and  N_2
REMARK    2  A    between atoms: C_6  and  C_7
REMARK    3  A    between atoms: N_11  and  C_12
REMARK    4  A    between atoms: C_12  and  C_13
REMARK                            x       y       z     vdW  Elec       q    Type
REMARK                         _______ _______ _______ _____ _____    ______ ____
ROOT
ATOM      1  C   UNL     1       1.311   9.316  19.371  0.00  0.00    +0.000 A 
ATOM      2  C   UNL     1       1.797   9.265  18.076  0.00  0.00    +0.000 A 
ATOM      3  C   UNL     1       2.462   8.115  17.655  0.00  0.00    +0.000 A 
ATOM      4  C   UNL     1       2.662   7.066  18.543  0.00  0.00    +0.000 A 
ATOM      5  N   UNL     1       3.290   5.908  18.067  0.00  0.00    +0.000 N 
ATOM      6  N   UNL     1       2.203   7.167  19.805  0.00  0.00    +0.000 NA
ATOM      7  N   UNL     1       1.512   8.286  20.217  0.00  0.00    +0.000 NA
ATOM      8  H   UNL     1       2.654   5.449  17.418  0.00  0.00    +0.000 HD
ENDROOT
BRANCH   1  14
ATOM      9  C   UNL     1      -1.543  10.229  18.452  0.00  0.00    +0.000 C 
ATOM     10  N   UNL     1      -0.707  10.863  19.447  0.00  0.00    +0.000 N 
ATOM     11  C   UNL     1      -1.052  11.997  20.130  0.00  0.00    +0.000 A 
ATOM     12  C   UNL     1       0.005  12.254  20.966  0.00  0.00    +0.000 A 
ATOM     13  N   UNL     1       0.985  11.313  20.797  0.00  0.00    +0.000 NA
ATOM     14  C   UNL     1       0.551  10.468  19.869  0.00  0.00    +0.000 A 
ENDBRANCH   1  14
BRANCH   5  15
ATOM     15  C   UNL     1       3.822   4.978  19.068  0.00  0.00    +0.000 C 
BRANCH  15  16
ATOM     16  C   UNL     1       3.684   3.515  18.586  0.00  0.00    +0.000 C 
ATOM     17  C   UNL     1       2.787   3.379  17.341  0.00  0.00    +0.000 C 
ATOM     18  O   UNL     1       1.400   3.573  17.657  0.00  0.00    +0.000 OA
ATOM     19  C   UNL     1       0.995   2.617  18.645  0.00  0.00    +0.000 C 
ATOM     20  C   UNL     1       1.820   2.807  19.913  0.00  0.00    +0.000 C 
ATOM     21  O   UNL     1       3.219   2.647  19.645  0.00  0.00    +0.000 OA
ENDBRANCH  15  16
ENDBRANCH   5  15
TORSDOF 3
ENDMDL
MODEL 2
REMARK VINA RESULT:      -6.5      4.805      7.491
REMARK  Name = 
REMARK  4 active torsions:
REMARK  status: ('A' for Active; 'I' for Inactive)
REMARK    1  A    between atoms: C_1  and  N_2
REMARK    2  A    between atoms: C_6  and  C_7
REMARK    3  A    between atoms: N_11  and  C_12
REMARK    4  A    between atoms: C_12  and  C_13
REMARK                            x       y       z     vdW  Elec       q    Type
REMARK                         _______ _______ _______ _____ _____    ______ ____
ROOT
ATOM      1  C   UNL     1       6.558   4.979  15.689  0.00  0.00    +0.000 A 
ATOM      2  C   UNL     1       7.377   4.755  16.782  0.00  0.00    +0.000 A 
ATOM      3  C   UNL     1       6.798   4.677  18.048  0.00  0.00    +0.000 A 
ATOM      4  C   UNL     1       5.429   4.864  18.195  0.00  0.00    +0.000 A 
ATOM      5  N   UNL     1       4.879   4.727  19.477  0.00  0.00    +0.000 N 
ATOM      6  N   UNL     1       4.671   5.113  17.111  0.00  0.00    +0.000 NA
ATOM      7  N   UNL     1       5.232   5.155  15.852  0.00  0.00    +0.000 NA
ATOM      8  H   UNL     1       4.936   3.745  19.741  0.00  0.00    +0.000 HD
ENDROOT
BRANCH   1  14
ATOM      9  C   UNL     1       5.532   3.332  13.228  0.00  0.00    +0.000 C 
ATOM     10  N   UNL     1       6.625   4.278  13.245  0.00  0.00    +0.000 N 
ATOM     11  C   UNL     1       7.399   4.574  12.156  0.00  0.00    +0.000 A 
ATOM     12  C   UNL     1       8.306   5.506  12.598  0.00  0.00    +0.000 A 
ATOM     13  N   UNL     1       8.108   5.769  13.927  0.00  0.00    +0.000 NA
ATOM     14  C   UNL     1       7.086   5.017  14.320  0.00  0.00    +0.000 A 
ENDBRANCH   1  14
BRANCH   5  15
ATOM     15  C   UNL     1       3.537   5.279  19.688  0.00  0.00    +0.000 C 
BRANCH  15  16
ATOM     16  C   UNL     1       2.584   4.199  20.251  0.00  0.00    +0.000 C 
ATOM     17  C   UNL     1       3.232   2.804  20.314  0.00  0.00    +0.000 C 
ATOM     18  O   UNL     1       3.378   2.222  19.009  0.00  0.00    +0.000 OA
ATOM     19  C   UNL     1       2.093   2.124  18.381  0.00  0.00    +0.000 C 
ATOM     20  C   UNL     1       1.485   3.514  18.235  0.00  0.00    +0.000 C 
ATOM     21  O   UNL     1       1.341   4.149  19.513  0.00  0.00    +0.000 OA
ENDBRANCH  15  16
ENDBRANCH   5  15
TORSDOF 3
ENDMDL
MODEL 3
REMARK VINA RESULT:      -6.5      1.627      2.111
REMARK  Name = 
REMARK  4 active torsions:
REMARK  status: ('A' for Active; 'I' for Inactive)
REMARK    1  A    between atoms: C_1  and  N_2
REMARK    2  A    between atoms: C_6  and  C_7
REMARK    3  A    between atoms: N_11  and  C_12
REMARK    4  A    between atoms: C_12  and  C_13
REMARK                            x       y       z     vdW  Elec       q    Type
REMARK                         _______ _______ _______ _____ _____    ______ ____
ROOT
ATOM      1  C   UNL     1       1.040   9.774  19.212  0.00  0.00    +0.000 A 
ATOM      2  C   UNL     1       0.971   9.255  20.492  0.00  0.00    +0.000 A 
ATOM      3  C   UNL     1       1.571   8.023  20.749  0.00  0.00    +0.000 A 
ATOM      4  C   UNL     1       2.188   7.326  19.718  0.00  0.00    +0.000 A 
ATOM      5  N   UNL     1       2.823   6.116  20.027  0.00  0.00    +0.000 N 
ATOM      6  N   UNL     1       2.206   7.850  18.477  0.00  0.00    +0.000 NA
ATOM      7  N   UNL     1       1.646   9.084  18.225  0.00  0.00    +0.000 NA
ATOM      8  H   UNL     1       3.645   6.327  20.591  0.00  0.00    +0.000 HD
ENDROOT
BRANCH   1  14
ATOM      9  C   UNL     1      -1.860  10.387  18.193  0.00  0.00    +0.000 C 
ATOM     10  N   UNL     1      -0.800  11.343  18.422  0.00  0.00    +0.000 N 
ATOM     11  C   UNL     1      -0.918  12.688  18.196  0.00  0.00    +0.000 A 
ATOM     12  C   UNL     1       0.299  13.222  18.540  0.00  0.00    +0.000 A 
ATOM     13  N   UNL     1       1.152  12.234  18.953  0.00  0.00    +0.000 NA
ATOM     14  C   UNL     1       0.482  11.090  18.878  0.00  0.00    +0.000 A 
ENDBRANCH   1  14
BRANCH   5  15
ATOM     15  C   UNL     1       3.138   5.222  18.907  0.00  0.00    +0.000 C 
BRANCH  15  16
ATOM     16  C   UNL     1       2.268   3.946  18.964  0.00  0.00    +0.000 C 
ATOM     17  C   UNL     1       1.172   4.017  20.044  0.00  0.00    +0.000 C 
ATOM     18  O   UNL     1       1.717   3.897  21.368  0.00  0.00    +0.000 OA
ATOM     19  C   UNL     1       2.423   2.655  21.485  0.00  0.00    +0.000 C 
ATOM     20  C   UNL     1       3.566   2.617  20.476  0.00  0.00    +0.000 C 
ATOM     21  O   UNL     1       3.075   2.759  19.136  0.00  0.00    +0.000 OA
ENDBRANCH  15  16
ENDBRANCH   5  15
TORSDOF 3
ENDMDL
MODEL 4
REMARK VINA RESULT:      -6.5      2.990      4.121
REMARK  Name = 
REMARK  4 active torsions:
REMARK  status: ('A' for Active; 'I' for Inactive)
REMARK    1  A    between atoms: C_1  and  N_2
REMARK    2  A    between atoms: C_6  and  C_7
REMARK    3  A    between atoms: N_11  and  C_12
REMARK    4  A    between atoms: C_12  and  C_13
REMARK                            x       y       z     vdW  Elec       q    Type
REMARK                         _______ _______ _______ _____ _____    ______ ____
ROOT
ATOM      1  C   UNL     1       2.226   7.412  19.513  0.00  0.00    +0.000 A 
ATOM      2  C   UNL     1       2.231   6.072  19.859  0.00  0.00    +0.000 A 
ATOM      3  C   UNL     1       3.101   5.211  19.192  0.00  0.00    +0.000 A 
ATOM      4  C   UNL     1       3.911   5.698  18.174  0.00  0.00    +0.000 A 
ATOM      5  N   UNL     1       4.807   4.811  17.563  0.00  0.00    +0.000 N 
ATOM      6  N   UNL     1       3.854   7.002  17.845  0.00  0.00    +0.000 NA
ATOM      7  N   UNL     1       3.022   7.866  18.525  0.00  0.00    +0.000 NA
ATOM      8  H   UNL     1       5.528   4.574  18.243  0.00  0.00    +0.000 HD
ENDROOT
BRANCH   1  14
ATOM      9  C   UNL     1       0.636   9.784  18.220  0.00  0.00    +0.000 C 
ATOM     10  N   UNL     1       0.689   9.437  19.623  0.00  0.00    +0.000 N 
ATOM     11  C   UNL     1       0.048  10.134  20.611  0.00  0.00    +0.000 A 
ATOM     12  C   UNL     1       0.355   9.476  21.776  0.00  0.00    +0.000 A 
ATOM     13  N   UNL     1       1.175   8.410  21.520  0.00  0.00    +0.000 NA
ATOM     14  C   UNL     1       1.381   8.389  20.208  0.00  0.00    +0.000 A 
ENDBRANCH   1  14
BRANCH   5  15
ATOM     15  C   UNL     1       5.376   5.220  16.275  0.00  0.00    +0.000 C 
BRANCH  15  16
ATOM     16  C   UNL     1       6.921   5.182  16.321  0.00  0.00    +0.000 C 
ATOM     17  C   UNL     1       7.463   4.442  17.558  0.00  0.00    +0.000 C 
ATOM     18  O   UNL     1       7.287   5.207  18.761  0.00  0.00    +0.000 OA
ATOM     19  C   UNL     1       7.955   6.468  18.628  0.00  0.00    +0.000 C 
ATOM     20  C   UNL     1       7.360   7.245  17.459  0.00  0.00    +0.000 C 
ATOM     21  O   UNL     1       7.489   6.509  16.235  0.00  0.00    +0.000 OA
ENDBRANCH  15  16
ENDBRANCH   5  15
TORSDOF 3
ENDMDL
MODEL 5
REMARK VINA RESULT:      -6.5      0.886      1.103
REMARK  Name = 
REMARK  4 active torsions:
REMARK  status: ('A' for Active; 'I' for Inactive)
REMARK    1  A    between atoms: C_1  and  N_2
REMARK    2  A    between atoms: C_6  and  C_7
REMARK    3  A    between atoms: N_11  and  C_12
REMARK    4  A    between atoms: C_12  and  C_13
REMARK                            x       y       z     vdW  Elec       q    Type
REMARK                         _______ _______ _______ _____ _____    ______ ____
ROOT
ATOM      1  C   UNL     1       1.297   9.458  19.387  0.00  0.00    +0.000 A 
ATOM      2  C   UNL     1       1.880   9.388  18.134  0.00  0.00    +0.000 A 
ATOM      3  C   UNL     1       2.516   8.206  17.757  0.00  0.00    +0.000 A 
ATOM      4  C   UNL     1       2.588   7.144  18.649  0.00  0.00    +0.000 A 
ATOM      5  N   UNL     1       3.191   5.956  18.213  0.00  0.00    +0.000 N 
ATOM      6  N   UNL     1       2.037   7.263  19.871  0.00  0.00    +0.000 NA
ATOM      7  N   UNL     1       1.375   8.416  20.237  0.00  0.00    +0.000 NA
ATOM      8  H   UNL     1       2.585   5.535  17.512  0.00  0.00    +0.000 HD
ENDROOT
BRANCH   1  14
ATOM      9  C   UNL     1      -1.579  10.336  18.501  0.00  0.00    +0.000 C 
ATOM     10  N   UNL     1      -0.707  11.025  19.427  0.00  0.00    +0.000 N 
ATOM     11  C   UNL     1      -1.023  12.204  20.046  0.00  0.00    +0.000 A 
ATOM     12  C   UNL     1       0.063  12.504  20.830  0.00  0.00    +0.000 A 
ATOM     13  N   UNL     1       1.030  11.546  20.691  0.00  0.00    +0.000 NA
ATOM     14  C   UNL     1       0.561  10.647  19.833  0.00  0.00    +0.000 A 
ENDBRANCH   1  14
BRANCH   5  15
ATOM     15  C   UNL     1       3.592   4.995  19.246  0.00  0.00    +0.000 C 
BRANCH  15  16
ATOM     16  C   UNL     1       2.899   3.631  19.023  0.00  0.00    +0.000 C 
ATOM     17  C   UNL     1       1.363   3.728  19.065  0.00  0.00    +0.000 C 
ATOM     18  O   UNL     1       0.876   3.937  20.400  0.00  0.00    +0.000 OA
ATOM     19  C   UNL     1       1.310   2.862  21.243  0.00  0.00    +0.000 C 
ATOM     20  C   UNL     1       2.834   2.818  21.276  0.00  0.00    +0.000 C 
ATOM     21  O   UNL     1       3.372   2.635  19.959  0.00  0.00    +0.000 OA
ENDBRANCH  15  16
ENDBRANCH   5  15
TORSDOF 3
ENDMDL
MODEL 6
REMARK VINA RESULT:      -6.4      3.060      4.199
REMARK  Name = 
REMARK  4 active torsions:
REMARK  status: ('A' for Active; 'I' for Inactive)
REMARK    1  A    between atoms: C_1  and  N_2
REMARK    2  A    between atoms: C_6  and  C_7
REMARK    3  A    between atoms: N_11  and  C_12
REMARK    4  A    between atoms: C_12  and  C_13
REMARK                            x       y       z     vdW  Elec       q    Type
REMARK                         _______ _______ _______ _____ _____    ______ ____
ROOT
ATOM      1  C   UNL     1       2.126   8.018  18.958  0.00  0.00    +0.000 A 
ATOM      2  C   UNL     1       2.208   6.844  19.684  0.00  0.00    +0.000 A 
ATOM      3  C   UNL     1       3.142   5.882  19.302  0.00  0.00    +0.000 A 
ATOM      4  C   UNL     1       3.939   6.098  18.185  0.00  0.00    +0.000 A 
ATOM      5  N   UNL     1       4.900   5.130  17.864  0.00  0.00    +0.000 N 
ATOM      6  N   UNL     1       3.807   7.240  17.484  0.00  0.00    +0.000 NA
ATOM      7  N   UNL     1       2.911   8.211  17.879  0.00  0.00    +0.000 NA
ATOM      8  H   UNL     1       5.622   5.153  18.582  0.00  0.00    +0.000 HD
ENDROOT
BRANCH   1  14
ATOM      9  C   UNL     1       1.354   8.910  21.862  0.00  0.00    +0.000 C 
ATOM     10  N   UNL     1       0.872   9.478  20.622  0.00  0.00    +0.000 N 
ATOM     11  C   UNL     1      -0.033  10.501  20.547  0.00  0.00    +0.000 A 
ATOM     12  C   UNL     1      -0.211  10.731  19.205  0.00  0.00    +0.000 A 
ATOM     13  N   UNL     1       0.552   9.866  18.469  0.00  0.00    +0.000 NA
ATOM     14  C   UNL     1       1.209   9.100  19.333  0.00  0.00    +0.000 A 
ENDBRANCH   1  14
BRANCH   5  15
ATOM     15  C   UNL     1       5.466   5.177  16.511  0.00  0.00    +0.000 C 
BRANCH  15  16
ATOM     16  C   UNL     1       7.011   5.157  16.563  0.00  0.00    +0.000 C 
ATOM     17  C   UNL     1       7.557   4.654  17.913  0.00  0.00    +0.000 C 
ATOM     18  O   UNL     1       7.375   5.622  18.958  0.00  0.00    +0.000 OA
ATOM     19  C   UNL     1       8.035   6.844  18.601  0.00  0.00    +0.000 C 
ATOM     20  C   UNL     1       7.437   7.393  17.311  0.00  0.00    +0.000 C 
ATOM     21  O   UNL     1       7.571   6.450  16.239  0.00  0.00    +0.000 OA
ENDBRANCH  15  16
ENDBRANCH   5  15
TORSDOF 3
ENDMDL
MODEL 7
REMARK VINA RESULT:      -6.4      1.076      1.507
REMARK  Name = 
REMARK  4 active torsions:
REMARK  status: ('A' for Active; 'I' for Inactive)
REMARK    1  A    between atoms: C_1  and  N_2
REMARK    2  A    between atoms: C_6  and  C_7
REMARK    3  A    between atoms: N_11  and  C_12
REMARK    4  A    between atoms: C_12  and  C_13
REMARK                            x       y       z     vdW  Elec       q    Type
REMARK                         _______ _______ _______ _____ _____    ______ ____
ROOT
ATOM      1  C   UNL     1       1.189   9.471  19.114  0.00  0.00    +0.000 A 
ATOM      2  C   UNL     1       1.759   9.289  17.866  0.00  0.00    +0.000 A 
ATOM      3  C   UNL     1       2.511   8.138  17.634  0.00  0.00    +0.000 A 
ATOM      4  C   UNL     1       2.707   7.222  18.659  0.00  0.00    +0.000 A 
ATOM      5  N   UNL     1       3.426   6.054  18.371  0.00  0.00    +0.000 N 
ATOM      6  N   UNL     1       2.163   7.450  19.870  0.00  0.00    +0.000 NA
ATOM      7  N   UNL     1       1.388   8.568  20.095  0.00  0.00    +0.000 NA
ATOM      8  H   UNL     1       2.859   5.480  17.751  0.00  0.00    +0.000 HD
ENDROOT
BRANCH   1  14
ATOM      9  C   UNL     1       2.002  12.495  18.979  0.00  0.00    +0.000 C 
ATOM     10  N   UNL     1       0.714  11.958  19.359  0.00  0.00    +0.000 N 
ATOM     11  C   UNL     1      -0.352  12.724  19.744  0.00  0.00    +0.000 A 
ATOM     12  C   UNL     1      -1.361  11.832  20.011  0.00  0.00    +0.000 A 
ATOM     13  N   UNL     1      -0.928  10.549  19.810  0.00  0.00    +0.000 NA
ATOM     14  C   UNL     1       0.337  10.627  19.416  0.00  0.00    +0.000 A 
ENDBRANCH   1  14
BRANCH   5  15
ATOM     15  C   UNL     1       3.941   5.289  19.513  0.00  0.00    +0.000 C 
BRANCH  15  16
ATOM     16  C   UNL     1       4.621   3.986  19.037  0.00  0.00    +0.000 C 
ATOM     17  C   UNL     1       4.459   3.745  17.524  0.00  0.00    +0.000 C 
ATOM     18  O   UNL     1       3.118   3.357  17.185  0.00  0.00    +0.000 OA
ATOM     19  C   UNL     1       2.768   2.165  17.898  0.00  0.00    +0.000 C 
ATOM     20  C   UNL     1       2.841   2.424  19.399  0.00  0.00    +0.000 C 
ATOM     21  O   UNL     1       4.158   2.839  19.786  0.00  0.00    +0.000 OA
ENDBRANCH  15  16
ENDBRANCH   5  15
TORSDOF 3
ENDMDL
MODEL 8
REMARK VINA RESULT:      -6.4      1.728      2.488
REMARK  Name = 
REMARK  4 active torsions:
REMARK  status: ('A' for Active; 'I' for Inactive)
REMARK    1  A    between atoms: C_1  and  N_2
REMARK    2  A    between atoms: C_6  and  C_7
REMARK    3  A    between atoms: N_11  and  C_12
REMARK    4  A    between atoms: C_12  and  C_13
REMARK                            x       y       z     vdW  Elec       q    Type
REMARK                         _______ _______ _______ _____ _____    ______ ____
ROOT
ATOM      1  C   UNL     1       0.763   9.782  19.269  0.00  0.00    +0.000 A 
ATOM      2  C   UNL     1       0.729   9.299  20.565  0.00  0.00    +0.000 A 
ATOM      3  C   UNL     1       1.441   8.139  20.867  0.00  0.00    +0.000 A 
ATOM      4  C   UNL     1       2.132   7.471  19.865  0.00  0.00    +0.000 A 
ATOM      5  N   UNL     1       2.876   6.337  20.220  0.00  0.00    +0.000 N 
ATOM      6  N   UNL     1       2.114   7.954  18.608  0.00  0.00    +0.000 NA
ATOM      7  N   UNL     1       1.442   9.120  18.311  0.00  0.00    +0.000 NA
ATOM      8  H   UNL     1       3.667   6.643  20.783  0.00  0.00    +0.000 HD
ENDROOT
BRANCH   1  14
ATOM      9  C   UNL     1       2.088  12.589  18.839  0.00  0.00    +0.000 C 
ATOM     10  N   UNL     1       0.686  12.262  18.708  0.00  0.00    +0.000 N 
ATOM     11  C   UNL     1      -0.287  13.169  18.388  0.00  0.00    +0.000 A 
ATOM     12  C   UNL     1      -1.458  12.453  18.366  0.00  0.00    +0.000 A 
ATOM     13  N   UNL     1      -1.219  11.141  18.676  0.00  0.00    +0.000 NA
ATOM     14  C   UNL     1       0.087  11.027  18.887  0.00  0.00    +0.000 A 
ENDBRANCH   1  14
BRANCH   5  15
ATOM     15  C   UNL     1       3.286   5.442  19.133  0.00  0.00    +0.000 C 
BRANCH  15  16
ATOM     16  C   UNL     1       2.370   4.197  19.073  0.00  0.00    +0.000 C 
ATOM     17  C   UNL     1       1.291   4.197  20.171  0.00  0.00    +0.000 C 
ATOM     18  O   UNL     1       1.845   3.924  21.467  0.00  0.00    +0.000 OA
ATOM     19  C   UNL     1       2.507   2.653  21.448  0.00  0.00    +0.000 C 
ATOM     20  C   UNL     1       3.637   2.677  20.424  0.00  0.00    +0.000 C 
ATOM     21  O   UNL     1       3.136   2.972  19.113  0.00  0.00    +0.000 OA
ENDBRANCH  15  16
ENDBRANCH   5  15
TORSDOF 3
ENDMDL
MODEL 9
REMARK VINA RESULT:      -6.4      0.909      1.148
REMARK  Name = 
REMARK  4 active torsions:
REMARK  status: ('A' for Active; 'I' for Inactive)
REMARK    1  A    between atoms: C_1  and  N_2
REMARK    2  A    between atoms: C_6  and  C_7
REMARK    3  A    between atoms: N_11  and  C_12
REMARK    4  A    between atoms: C_12  and  C_13
REMARK                            x       y       z     vdW  Elec       q    Type
REMARK                         _______ _______ _______ _____ _____    ______ ____
ROOT
ATOM      1  C   UNL     1       1.474   8.954  19.581  0.00  0.00    +0.000 A 
ATOM      2  C   UNL     1       1.828   8.974  18.244  0.00  0.00    +0.000 A 
ATOM      3  C   UNL     1       2.461   7.857  17.701  0.00  0.00    +0.000 A 
ATOM      4  C   UNL     1       2.760   6.770  18.511  0.00  0.00    +0.000 A 
ATOM      5  N   UNL     1       3.351   5.647  17.916  0.00  0.00    +0.000 N 
ATOM      6  N   UNL     1       2.429   6.801  19.815  0.00  0.00    +0.000 NA
ATOM      7  N   UNL     1       1.770   7.887  20.350  0.00  0.00    +0.000 NA
ATOM      8  H   UNL     1       2.658   5.210  17.311  0.00  0.00    +0.000 HD
ENDROOT
BRANCH   1  14
ATOM      9  C   UNL     1      -0.477   8.792  22.029  0.00  0.00    +0.000 C 
ATOM     10  N   UNL     1      -0.110   9.978  21.288  0.00  0.00    +0.000 N 
ATOM     11  C   UNL     1      -0.599  11.229  21.551  0.00  0.00    +0.000 A 
ATOM     12  C   UNL     1      -0.001  12.053  20.630  0.00  0.00    +0.000 A 
ATOM     13  N   UNL     1       0.824  11.332  19.810  0.00  0.00    +0.000 NA
ATOM     14  C   UNL     1       0.754  10.067  20.210  0.00  0.00    +0.000 A 
ENDBRANCH   1  14
BRANCH   5  15
ATOM     15  C   UNL     1       3.991   4.677  18.811  0.00  0.00    +0.000 C 
BRANCH  15  16
ATOM     16  C   UNL     1       3.651   3.231  18.386  0.00  0.00    +0.000 C 
ATOM     17  C   UNL     1       2.594   3.170  17.267  0.00  0.00    +0.000 C 
ATOM     18  O   UNL     1       1.284   3.506  17.749  0.00  0.00    +0.000 OA
ATOM     19  C   UNL     1       0.915   2.607  18.803  0.00  0.00    +0.000 C 
ATOM     20  C   UNL     1       1.909   2.729  19.953  0.00  0.00    +0.000 C 
ATOM     21  O   UNL     1       3.241   2.426  19.515  0.00  0.00    +0.000 OA
ENDBRANCH  15  16
ENDBRANCH   5  15
TORSDOF 3
ENDMDL
