MODEL 1
REMARK VINA RESULT:      -7.7      0.000      0.000
REMARK  Name = 
REMARK  7 active torsions:
REMARK  status: ('A' for Active; 'I' for Inactive)
REMARK    1  A    between atoms: N_1  and  C_2
REMARK    2  A    between atoms: C_2  and  C_3
REMARK    3  A    between atoms: C_2  and  C_30
REMARK    4  A    between atoms: C_7  and  C_8
REMARK    5  A    between atoms: C_8  and  N_9
REMARK    6  A    between atoms: N_9  and  C_10
REMARK    7  A    between atoms: N_20  and  C_21
REMARK                            x       y       z     vdW  Elec       q    Type
REMARK                         _______ _______ _______ _____ _____    ______ ____
ROOT
ATOM      1  C   UNL     1       2.102   6.421  19.998  0.00  0.00    +0.000 C 
ATOM      2  O   UNL     1       2.530   5.817  20.987  0.00  0.00    +0.000 OA
ATOM      3  N   UNL     1       1.753   7.760  20.088  0.00  0.00    +0.000 N 
ATOM      4  C   UNL     1       1.984   8.520  21.302  0.00  0.00    +0.000 C 
ATOM      5  C   UNL     1       0.867   9.568  21.332  0.00  0.00    +0.000 C 
ATOM      6  C   UNL     1       0.447   9.673  19.839  0.00  0.00    +0.000 C 
ATOM      7  C   UNL     1       1.219   8.602  19.047  0.00  0.00    +0.000 C 
ATOM      8  C   UNL     1      -1.070   9.565  19.617  0.00  0.00    +0.000 C 
ATOM      9  N   UNL     1      -0.898  10.333  18.437  0.00  0.00    +0.000 N 
ATOM     10  C   UNL     1       0.274  10.975  18.971  0.00  0.00    +0.000 C 
ENDROOT
BRANCH   9  11
ATOM     11  C   UNL     1      -1.957  10.766  17.625  0.00  0.00    +0.000 A 
ATOM     12  C   UNL     1      -2.981  11.552  18.184  0.00  0.00    +0.000 A 
ATOM     13  C   UNL     1      -4.183  11.743  17.519  0.00  0.00    +0.000 A 
ATOM     14  F   UNL     1      -5.158  12.436  18.126  0.00  0.00    +0.000 F 
ATOM     15  C   UNL     1      -4.402  11.175  16.283  0.00  0.00    +0.000 A 
ATOM     16  C   UNL     1      -3.374  10.446  15.695  0.00  0.00    +0.000 A 
ATOM     17  F   UNL     1      -3.591   9.867  14.507  0.00  0.00    +0.000 F 
ATOM     18  C   UNL     1      -2.149  10.253  16.340  0.00  0.00    +0.000 A 
ENDBRANCH   9  11
BRANCH   1  19
ATOM     19  C   UNL     1       1.997   5.670  18.632  0.00  0.00    +0.000 C 
BRANCH  19  20
ATOM     20  C   UNL     1       3.273   5.611  17.798  0.00  0.00    +0.000 A 
ATOM     21  C   UNL     1       3.737   4.380  17.296  0.00  0.00    +0.000 A 
ATOM     22  C   UNL     1       4.881   4.306  16.500  0.00  0.00    +0.000 A 
ATOM     23  C   UNL     1       5.578   5.466  16.177  0.00  0.00    +0.000 A 
ATOM     24  C   UNL     1       5.121   6.699  16.637  0.00  0.00    +0.000 A 
ATOM     25  C   UNL     1       3.969   6.774  17.428  0.00  0.00    +0.000 A 
ENDBRANCH  19  20
BRANCH  19  26
ATOM     26  N   UNL     1       1.372   4.341  18.839  0.00  0.00    +0.000 NA
ATOM     27  H   UNL     1       0.706   4.185  18.083  0.00  0.00    +0.000 HD
ATOM     28  H   UNL     1       0.842   4.346  19.702  0.00  0.00    +0.000 HD
ENDBRANCH  19  26
ENDBRANCH   1  19
BRANCH   5  29
ATOM     29  C   UNL     1      -0.291   9.050  22.214  0.00  0.00    +0.000 C 
BRANCH  29  30
ATOM     30  N   UNL     1      -0.614   9.929  23.334  0.00  0.00    +0.000 N 
ATOM     31  H   UNL     1       0.167  10.069  23.974  0.00  0.00    +0.000 HD
BRANCH  30  32
ATOM     32  C   UNL     1      -1.230  11.155  23.007  0.00  0.00    +0.000 A 
ATOM     33  C   UNL     1      -2.527  11.501  23.427  0.00  0.00    +0.000 A 
ATOM     34  C   UNL     1      -3.078  12.752  23.138  0.00  0.00    +0.000 A 
ATOM     35  C   UNL     1      -2.323  13.686  22.445  0.00  0.00    +0.000 A 
ATOM     36  F   UNL     1      -2.846  14.889  22.173  0.00  0.00    +0.000 F 
ATOM     37  C   UNL     1      -1.025  13.392  22.049  0.00  0.00    +0.000 A 
ATOM     38  C   UNL     1      -0.479  12.138  22.344  0.00  0.00    +0.000 A 
ENDBRANCH  30  32
ENDBRANCH  29  30
ENDBRANCH   5  29
TORSDOF 7
ENDMDL
MODEL 2
REMARK VINA RESULT:      -7.5      4.188      9.010
REMARK  Name = 
REMARK  7 active torsions:
REMARK  status: ('A' for Active; 'I' for Inactive)
REMARK    1  A    between atoms: N_1  and  C_2
REMARK    2  A    between atoms: C_2  and  C_3
REMARK    3  A    between atoms: C_2  and  C_30
REMARK    4  A    between atoms: C_7  and  C_8
REMARK    5  A    between atoms: C_8  and  N_9
REMARK    6  A    between atoms: N_9  and  C_10
REMARK    7  A    between atoms: N_20  and  C_21
REMARK                            x       y       z     vdW  Elec       q    Type
REMARK                         _______ _______ _______ _____ _____    ______ ____
ROOT
ATOM      1  C   UNL     1       7.510   4.770  18.222  0.00  0.00    +0.000 C 
ATOM      2  O   UNL     1       8.143   4.107  17.393  0.00  0.00    +0.000 OA
ATOM      3  N   UNL     1       6.152   4.561  18.402  0.00  0.00    +0.000 N 
ATOM      4  C   UNL     1       5.456   3.489  17.715  0.00  0.00    +0.000 C 
ATOM      5  C   UNL     1       4.028   4.007  17.517  0.00  0.00    +0.000 C 
ATOM      6  C   UNL     1       3.894   5.094  18.620  0.00  0.00    +0.000 C 
ATOM      7  C   UNL     1       5.266   5.258  19.300  0.00  0.00    +0.000 C 
ATOM      8  C   UNL     1       3.351   6.435  18.101  0.00  0.00    +0.000 C 
ATOM      9  N   UNL     1       2.852   6.677  19.408  0.00  0.00    +0.000 N 
ATOM     10  C   UNL     1       2.737   5.267  19.674  0.00  0.00    +0.000 C 
ENDROOT
BRANCH   9  11
ATOM     11  C   UNL     1       2.080   7.796  19.755  0.00  0.00    +0.000 A 
ATOM     12  C   UNL     1       1.435   7.832  21.004  0.00  0.00    +0.000 A 
ATOM     13  C   UNL     1       0.432   8.752  21.266  0.00  0.00    +0.000 A 
ATOM     14  F   UNL     1      -0.207   8.697  22.445  0.00  0.00    +0.000 F 
ATOM     15  C   UNL     1       0.046   9.667  20.311  0.00  0.00    +0.000 A 
ATOM     16  C   UNL     1       0.719   9.678  19.095  0.00  0.00    +0.000 A 
ATOM     17  F   UNL     1       0.330  10.546  18.151  0.00  0.00    +0.000 F 
ATOM     18  C   UNL     1       1.743   8.770  18.812  0.00  0.00    +0.000 A 
ENDBRANCH   9  11
BRANCH   1  19
ATOM     19  C   UNL     1       8.268   5.821  19.095  0.00  0.00    +0.000 C 
BRANCH  19  20
ATOM     20  C   UNL     1       8.139   7.277  18.657  0.00  0.00    +0.000 A 
ATOM     21  C   UNL     1       8.939   8.270  19.253  0.00  0.00    +0.000 A 
ATOM     22  C   UNL     1       8.865   9.603  18.842  0.00  0.00    +0.000 A 
ATOM     23  C   UNL     1       7.999   9.966  17.816  0.00  0.00    +0.000 A 
ATOM     24  C   UNL     1       7.220   8.995  17.192  0.00  0.00    +0.000 A 
ATOM     25  C   UNL     1       7.300   7.658  17.596  0.00  0.00    +0.000 A 
ENDBRANCH  19  20
BRANCH  19  26
ATOM     26  N   UNL     1       7.941   5.610  20.527  0.00  0.00    +0.000 NA
ATOM     27  H   UNL     1       8.806   5.381  21.016  0.00  0.00    +0.000 HD
ATOM     28  H   UNL     1       7.328   4.809  20.620  0.00  0.00    +0.000 HD
ENDBRANCH  19  26
ENDBRANCH   1  19
BRANCH   5  29
ATOM     29  C   UNL     1       3.901   4.615  16.101  0.00  0.00    +0.000 C 
BRANCH  29  30
ATOM     30  N   UNL     1       5.114   5.282  15.637  0.00  0.00    +0.000 N 
ATOM     31  H   UNL     1       5.785   5.460  16.382  0.00  0.00    +0.000 HD
BRANCH  30  32
ATOM     32  C   UNL     1       5.744   4.715  14.510  0.00  0.00    +0.000 A 
ATOM     33  C   UNL     1       5.096   3.825  13.633  0.00  0.00    +0.000 A 
ATOM     34  C   UNL     1       5.733   3.335  12.490  0.00  0.00    +0.000 A 
ATOM     35  C   UNL     1       7.021   3.754  12.194  0.00  0.00    +0.000 A 
ATOM     36  F   UNL     1       7.631   3.292  11.094  0.00  0.00    +0.000 F 
ATOM     37  C   UNL     1       7.675   4.662  13.016  0.00  0.00    +0.000 A 
ATOM     38  C   UNL     1       7.031   5.150  14.158  0.00  0.00    +0.000 A 
ENDBRANCH  30  32
ENDBRANCH  29  30
ENDBRANCH   5  29
TORSDOF 7
ENDMDL
MODEL 3
REMARK VINA RESULT:      -7.4      3.281      8.621
REMARK  Name = 
REMARK  7 active torsions:
REMARK  status: ('A' for Active; 'I' for Inactive)
REMARK    1  A    between atoms: N_1  and  C_2
REMARK    2  A    between atoms: C_2  and  C_3
REMARK    3  A    between atoms: C_2  and  C_30
REMARK    4  A    between atoms: C_7  and  C_8
REMARK    5  A    between atoms: C_8  and  N_9
REMARK    6  A    between atoms: N_9  and  C_10
REMARK    7  A    between atoms: N_20  and  C_21
REMARK                            x       y       z     vdW  Elec       q    Type
REMARK                         _______ _______ _______ _____ _____    ______ ____
ROOT
ATOM      1  C   UNL     1      -3.602  10.682  17.554  0.00  0.00    +0.000 C 
ATOM      2  O   UNL     1      -3.293   9.688  16.888  0.00  0.00    +0.000 OA
ATOM      3  N   UNL     1      -2.644  11.357  18.295  0.00  0.00    +0.000 N 
ATOM      4  C   UNL     1      -1.240  10.995  18.223  0.00  0.00    +0.000 C 
ATOM      5  C   UNL     1      -0.673  11.333  19.606  0.00  0.00    +0.000 C 
ATOM      6  C   UNL     1      -1.677  12.390  20.147  0.00  0.00    +0.000 C 
ATOM      7  C   UNL     1      -2.836  12.509  19.140  0.00  0.00    +0.000 C 
ATOM      8  C   UNL     1      -2.182  12.087  21.567  0.00  0.00    +0.000 C 
ATOM      9  N   UNL     1      -2.391  13.482  21.730  0.00  0.00    +0.000 N 
ATOM     10  C   UNL     1      -1.356  13.794  20.780  0.00  0.00    +0.000 C 
ENDROOT
BRANCH   9  11
ATOM     11  C   UNL     1      -2.820  14.072  22.928  0.00  0.00    +0.000 A 
ATOM     12  C   UNL     1      -4.124  14.591  23.017  0.00  0.00    +0.000 A 
ATOM     13  C   UNL     1      -4.488  15.444  24.048  0.00  0.00    +0.000 A 
ATOM     14  F   UNL     1      -5.721  15.973  24.047  0.00  0.00    +0.000 F 
ATOM     15  C   UNL     1      -3.582  15.798  25.024  0.00  0.00    +0.000 A 
ATOM     16  C   UNL     1      -2.308  15.243  24.978  0.00  0.00    +0.000 A 
ATOM     17  F   UNL     1      -1.413  15.605  25.907  0.00  0.00    +0.000 F 
ATOM     18  C   UNL     1      -1.922  14.370  23.957  0.00  0.00    +0.000 A 
ENDBRANCH   9  11
BRANCH   1  19
ATOM     19  C   UNL     1      -5.077  11.195  17.521  0.00  0.00    +0.000 C 
BRANCH  19  20
ATOM     20  C   UNL     1      -5.867  11.050  18.818  0.00  0.00    +0.000 A 
ATOM     21  C   UNL     1      -5.877  12.095  19.762  0.00  0.00    +0.000 A 
ATOM     22  C   UNL     1      -6.622  12.001  20.939  0.00  0.00    +0.000 A 
ATOM     23  C   UNL     1      -7.387  10.865  21.187  0.00  0.00    +0.000 A 
ATOM     24  C   UNL     1      -7.416   9.833  20.253  0.00  0.00    +0.000 A 
ATOM     25  C   UNL     1      -6.676   9.930  19.070  0.00  0.00    +0.000 A 
ENDBRANCH  19  20
BRANCH  19  26
ATOM     26  N   UNL     1      -5.117  12.568  16.961  0.00  0.00    +0.000 NA
ATOM     27  H   UNL     1      -6.085  12.781  16.720  0.00  0.00    +0.000 HD
ATOM     28  H   UNL     1      -4.585  12.598  16.100  0.00  0.00    +0.000 HD
ENDBRANCH  19  26
ENDBRANCH   1  19
BRANCH   5  29
ATOM     29  C   UNL     1      -0.666  10.056  20.477  0.00  0.00    +0.000 C 
BRANCH  29  30
ATOM     30  N   UNL     1       0.671   9.627  20.879  0.00  0.00    +0.000 N 
ATOM     31  H   UNL     1       0.729   9.361  21.860  0.00  0.00    +0.000 HD
BRANCH  30  32
ATOM     32  C   UNL     1       1.291   8.667  20.053  0.00  0.00    +0.000 A 
ATOM     33  C   UNL     1       1.709   8.938  18.737  0.00  0.00    +0.000 A 
ATOM     34  C   UNL     1       2.379   7.980  17.973  0.00  0.00    +0.000 A 
ATOM     35  C   UNL     1       2.666   6.743  18.528  0.00  0.00    +0.000 A 
ATOM     36  F   UNL     1       3.316   5.825  17.801  0.00  0.00    +0.000 F 
ATOM     37  C   UNL     1       2.303   6.455  19.838  0.00  0.00    +0.000 A 
ATOM     38  C   UNL     1       1.634   7.420  20.598  0.00  0.00    +0.000 A 
ENDBRANCH  30  32
ENDBRANCH  29  30
ENDBRANCH   5  29
TORSDOF 7
ENDMDL
MODEL 4
REMARK VINA RESULT:      -7.4      3.422      6.181
REMARK  Name = 
REMARK  7 active torsions:
REMARK  status: ('A' for Active; 'I' for Inactive)
REMARK    1  A    between atoms: N_1  and  C_2
REMARK    2  A    between atoms: C_2  and  C_3
REMARK    3  A    between atoms: C_2  and  C_30
REMARK    4  A    between atoms: C_7  and  C_8
REMARK    5  A    between atoms: C_8  and  N_9
REMARK    6  A    between atoms: N_9  and  C_10
REMARK    7  A    between atoms: N_20  and  C_21
REMARK                            x       y       z     vdW  Elec       q    Type
REMARK                         _______ _______ _______ _____ _____    ______ ____
ROOT
ATOM      1  C   UNL     1      -0.147   9.287  21.945  0.00  0.00    +0.000 C 
ATOM      2  O   UNL     1      -1.120   8.580  22.231  0.00  0.00    +0.000 OA
ATOM      3  N   UNL     1      -0.273  10.666  21.886  0.00  0.00    +0.000 N 
ATOM      4  C   UNL     1      -1.506  11.329  22.268  0.00  0.00    +0.000 C 
ATOM      5  C   UNL     1      -1.564  12.588  21.398  0.00  0.00    +0.000 C 
ATOM      6  C   UNL     1      -0.075  12.819  21.015  0.00  0.00    +0.000 C 
ATOM      7  C   UNL     1       0.745  11.628  21.546  0.00  0.00    +0.000 C 
ATOM      8  C   UNL     1       0.147  13.039  19.510  0.00  0.00    +0.000 C 
ATOM      9  N   UNL     1       1.307  13.783  19.846  0.00  0.00    +0.000 N 
ATOM     10  C   UNL     1       0.758  14.149  21.125  0.00  0.00    +0.000 C 
ENDROOT
BRANCH   9  11
ATOM     11  C   UNL     1       2.106  14.451  18.905  0.00  0.00    +0.000 A 
ATOM     12  C   UNL     1       3.397  13.969  18.626  0.00  0.00    +0.000 A 
ATOM     13  C   UNL     1       4.324  14.749  17.952  0.00  0.00    +0.000 A 
ATOM     14  F   UNL     1       5.567  14.274  17.777  0.00  0.00    +0.000 F 
ATOM     15  C   UNL     1       4.001  16.019  17.527  0.00  0.00    +0.000 A 
ATOM     16  C   UNL     1       2.709  16.483  17.746  0.00  0.00    +0.000 A 
ATOM     17  F   UNL     1       2.396  17.727  17.361  0.00  0.00    +0.000 F 
ATOM     18  C   UNL     1       1.752  15.709  18.409  0.00  0.00    +0.000 A 
ENDBRANCH   9  11
BRANCH   1  19
ATOM     19  C   UNL     1       1.237   8.610  21.689  0.00  0.00    +0.000 C 
BRANCH  19  20
ATOM     20  C   UNL     1       1.611   8.380  20.228  0.00  0.00    +0.000 A 
ATOM     21  C   UNL     1       1.316   9.355  19.257  0.00  0.00    +0.000 A 
ATOM     22  C   UNL     1       1.682   9.183  17.921  0.00  0.00    +0.000 A 
ATOM     23  C   UNL     1       2.366   8.036  17.531  0.00  0.00    +0.000 A 
ATOM     24  C   UNL     1       2.695   7.071  18.479  0.00  0.00    +0.000 A 
ATOM     25  C   UNL     1       2.336   7.247  19.820  0.00  0.00    +0.000 A 
ENDBRANCH  19  20
BRANCH  19  26
ATOM     26  N   UNL     1       2.290   9.319  22.457  0.00  0.00    +0.000 NA
ATOM     27  H   UNL     1       2.296  10.294  22.156  0.00  0.00    +0.000 HD
ATOM     28  H   UNL     1       3.197   8.933  22.224  0.00  0.00    +0.000 HD
ENDBRANCH  19  26
ENDBRANCH   1  19
BRANCH   5  29
ATOM     29  C   UNL     1      -2.435  12.305  20.152  0.00  0.00    +0.000 C 
BRANCH  29  30
ATOM     30  N   UNL     1      -2.149  11.022  19.516  0.00  0.00    +0.000 N 
ATOM     31  H   UNL     1      -2.430  10.222  20.080  0.00  0.00    +0.000 HD
BRANCH  30  32
ATOM     32  C   UNL     1      -2.581  10.880  18.181  0.00  0.00    +0.000 A 
ATOM     33  C   UNL     1      -1.934  10.049  17.248  0.00  0.00    +0.000 A 
ATOM     34  C   UNL     1      -2.431   9.883  15.952  0.00  0.00    +0.000 A 
ATOM     35  C   UNL     1      -3.600  10.528  15.582  0.00  0.00    +0.000 A 
ATOM     36  F   UNL     1      -4.083  10.365  14.343  0.00  0.00    +0.000 F 
ATOM     37  C   UNL     1      -4.286  11.325  16.490  0.00  0.00    +0.000 A 
ATOM     38  C   UNL     1      -3.784  11.484  17.786  0.00  0.00    +0.000 A 
ENDBRANCH  30  32
ENDBRANCH  29  30
ENDBRANCH   5  29
TORSDOF 7
ENDMDL
MODEL 5
REMARK VINA RESULT:      -7.4      3.184      8.502
REMARK  Name = 
REMARK  7 active torsions:
REMARK  status: ('A' for Active; 'I' for Inactive)
REMARK    1  A    between atoms: N_1  and  C_2
REMARK    2  A    between atoms: C_2  and  C_3
REMARK    3  A    between atoms: C_2  and  C_30
REMARK    4  A    between atoms: C_7  and  C_8
REMARK    5  A    between atoms: C_8  and  N_9
REMARK    6  A    between atoms: N_9  and  C_10
REMARK    7  A    between atoms: N_20  and  C_21
REMARK                            x       y       z     vdW  Elec       q    Type
REMARK                         _______ _______ _______ _____ _____    ______ ____
ROOT
ATOM      1  C   UNL     1      -3.459  10.490  17.544  0.00  0.00    +0.000 C 
ATOM      2  O   UNL     1      -3.223   9.412  16.986  0.00  0.00    +0.000 OA
ATOM      3  N   UNL     1      -2.450  11.178  18.200  0.00  0.00    +0.000 N 
ATOM      4  C   UNL     1      -1.073  10.721  18.158  0.00  0.00    +0.000 C 
ATOM      5  C   UNL     1      -0.467  11.168  19.492  0.00  0.00    +0.000 C 
ATOM      6  C   UNL     1      -1.394  12.339  19.922  0.00  0.00    +0.000 C 
ATOM      7  C   UNL     1      -2.557  12.424  18.917  0.00  0.00    +0.000 C 
ATOM      8  C   UNL     1      -1.897  12.225  21.370  0.00  0.00    +0.000 C 
ATOM      9  N   UNL     1      -2.015  13.639  21.383  0.00  0.00    +0.000 N 
ATOM     10  C   UNL     1      -0.976  13.781  20.398  0.00  0.00    +0.000 C 
ENDROOT
BRANCH   9  11
ATOM     11  C   UNL     1      -2.389  14.382  22.513  0.00  0.00    +0.000 A 
ATOM     12  C   UNL     1      -1.452  14.598  23.540  0.00  0.00    +0.000 A 
ATOM     13  C   UNL     1      -1.850  15.048  24.790  0.00  0.00    +0.000 A 
ATOM     14  F   UNL     1      -0.930  15.165  25.760  0.00  0.00    +0.000 F 
ATOM     15  C   UNL     1      -3.176  15.307  25.057  0.00  0.00    +0.000 A 
ATOM     16  C   UNL     1      -4.101  15.154  24.031  0.00  0.00    +0.000 A 
ATOM     17  F   UNL     1      -5.397  15.377  24.292  0.00  0.00    +0.000 F 
ATOM     18  C   UNL     1      -3.723  14.716  22.759  0.00  0.00    +0.000 A 
ENDBRANCH   9  11
BRANCH   1  19
ATOM     19  C   UNL     1      -4.899  11.090  17.465  0.00  0.00    +0.000 C 
BRANCH  19  20
ATOM     20  C   UNL     1      -5.709  11.062  18.758  0.00  0.00    +0.000 A 
ATOM     21  C   UNL     1      -5.633  12.137  19.665  0.00  0.00    +0.000 A 
ATOM     22  C   UNL     1      -6.393  12.151  20.836  0.00  0.00    +0.000 A 
ATOM     23  C   UNL     1      -7.256  11.097  21.116  0.00  0.00    +0.000 A 
ATOM     24  C   UNL     1      -7.370  10.038  20.219  0.00  0.00    +0.000 A 
ATOM     25  C   UNL     1      -6.615  10.027  19.041  0.00  0.00    +0.000 A 
ENDBRANCH  19  20
BRANCH  19  26
ATOM     26  N   UNL     1      -4.848  12.432  16.835  0.00  0.00    +0.000 NA
ATOM     27  H   UNL     1      -5.692  12.937  17.105  0.00  0.00    +0.000 HD
ATOM     28  H   UNL     1      -4.873  12.334  15.827  0.00  0.00    +0.000 HD
ENDBRANCH  19  26
ENDBRANCH   1  19
BRANCH   5  29
ATOM     29  C   UNL     1      -0.527   9.995  20.496  0.00  0.00    +0.000 C 
BRANCH  29  30
ATOM     30  N   UNL     1       0.781   9.575  20.989  0.00  0.00    +0.000 N 
ATOM     31  H   UNL     1       0.795   9.397  21.992  0.00  0.00    +0.000 HD
BRANCH  30  32
ATOM     32  C   UNL     1       1.409   8.532  20.278  0.00  0.00    +0.000 A 
ATOM     33  C   UNL     1       1.549   7.228  20.789  0.00  0.00    +0.000 A 
ATOM     34  C   UNL     1       2.119   6.204  20.028  0.00  0.00    +0.000 A 
ATOM     35  C   UNL     1       2.531   6.466  18.731  0.00  0.00    +0.000 A 
ATOM     36  F   UNL     1       3.071   5.485  17.997  0.00  0.00    +0.000 F 
ATOM     37  C   UNL     1       2.372   7.732  18.182  0.00  0.00    +0.000 A 
ATOM     38  C   UNL     1       1.799   8.752  18.948  0.00  0.00    +0.000 A 
ENDBRANCH  30  32
ENDBRANCH  29  30
ENDBRANCH   5  29
TORSDOF 7
ENDMDL
MODEL 6
REMARK VINA RESULT:      -7.3      4.115      8.108
REMARK  Name = 
REMARK  7 active torsions:
REMARK  status: ('A' for Active; 'I' for Inactive)
REMARK    1  A    between atoms: N_1  and  C_2
REMARK    2  A    between atoms: C_2  and  C_3
REMARK    3  A    between atoms: C_2  and  C_30
REMARK    4  A    between atoms: C_7  and  C_8
REMARK    5  A    between atoms: C_8  and  N_9
REMARK    6  A    between atoms: N_9  and  C_10
REMARK    7  A    between atoms: N_20  and  C_21
REMARK                            x       y       z     vdW  Elec       q    Type
REMARK                         _______ _______ _______ _____ _____    ______ ____
ROOT
ATOM      1  C   UNL     1      -2.129  11.939  18.976  0.00  0.00    +0.000 C 
ATOM      2  O   UNL     1      -2.407  13.116  19.231  0.00  0.00    +0.000 OA
ATOM      3  N   UNL     1      -1.091  11.302  19.638  0.00  0.00    +0.000 N 
ATOM      4  C   UNL     1      -0.378  11.949  20.724  0.00  0.00    +0.000 C 
ATOM      5  C   UNL     1       1.042  11.378  20.660  0.00  0.00    +0.000 C 
ATOM      6  C   UNL     1       0.845  10.033  19.906  0.00  0.00    +0.000 C 
ATOM      7  C   UNL     1      -0.623   9.952  19.447  0.00  0.00    +0.000 C 
ATOM      8  C   UNL     1       1.821   9.835  18.735  0.00  0.00    +0.000 C 
ATOM      9  N   UNL     1       1.674   8.436  18.920  0.00  0.00    +0.000 N 
ATOM     10  C   UNL     1       1.369   8.607  20.316  0.00  0.00    +0.000 C 
ENDROOT
BRANCH   9  11
ATOM     11  C   UNL     1       2.389   7.472  18.194  0.00  0.00    +0.000 A 
ATOM     12  C   UNL     1       2.009   6.121  18.275  0.00  0.00    +0.000 A 
ATOM     13  C   UNL     1       2.852   5.111  17.836  0.00  0.00    +0.000 A 
ATOM     14  F   UNL     1       2.478   3.833  18.005  0.00  0.00    +0.000 F 
ATOM     15  C   UNL     1       4.085   5.406  17.296  0.00  0.00    +0.000 A 
ATOM     16  C   UNL     1       4.444   6.741  17.156  0.00  0.00    +0.000 A 
ATOM     17  F   UNL     1       5.653   7.036  16.658  0.00  0.00    +0.000 F 
ATOM     18  C   UNL     1       3.606   7.777  17.578  0.00  0.00    +0.000 A 
ENDBRANCH   9  11
BRANCH   1  19
ATOM     19  C   UNL     1      -2.988  11.164  17.927  0.00  0.00    +0.000 C 
BRANCH  19  20
ATOM     20  C   UNL     1      -4.494  11.401  17.985  0.00  0.00    +0.000 A 
ATOM     21  C   UNL     1      -5.094  12.360  17.146  0.00  0.00    +0.000 A 
ATOM     22  C   UNL     1      -6.474  12.568  17.155  0.00  0.00    +0.000 A 
ATOM     23  C   UNL     1      -7.285  11.810  17.993  0.00  0.00    +0.000 A 
ATOM     24  C   UNL     1      -6.718  10.836  18.811  0.00  0.00    +0.000 A 
ATOM     25  C   UNL     1      -5.335  10.620  18.796  0.00  0.00    +0.000 A 
ENDBRANCH  19  20
BRANCH  19  26
ATOM     26  N   UNL     1      -2.418  11.358  16.572  0.00  0.00    +0.000 NA
ATOM     27  H   UNL     1      -2.408  10.453  16.102  0.00  0.00    +0.000 HD
ATOM     28  H   UNL     1      -1.453  11.659  16.650  0.00  0.00    +0.000 HD
ENDBRANCH  19  26
ENDBRANCH   1  19
BRANCH   5  29
ATOM     29  C   UNL     1       1.944  12.349  19.865  0.00  0.00    +0.000 C 
BRANCH  29  30
ATOM     30  N   UNL     1       1.873  13.731  20.332  0.00  0.00    +0.000 N 
ATOM     31  H   UNL     1       2.369  13.886  21.208  0.00  0.00    +0.000 HD
BRANCH  30  32
ATOM     32  C   UNL     1       2.194  14.725  19.384  0.00  0.00    +0.000 A 
ATOM     33  C   UNL     1       3.258  14.604  18.471  0.00  0.00    +0.000 A 
ATOM     34  C   UNL     1       3.504  15.582  17.504  0.00  0.00    +0.000 A 
ATOM     35  C   UNL     1       2.667  16.683  17.419  0.00  0.00    +0.000 A 
ATOM     36  F   UNL     1       2.895  17.618  16.487  0.00  0.00    +0.000 F 
ATOM     37  C   UNL     1       1.584  16.816  18.279  0.00  0.00    +0.000 A 
ATOM     38  C   UNL     1       1.342  15.832  19.244  0.00  0.00    +0.000 A 
ENDBRANCH  30  32
ENDBRANCH  29  30
ENDBRANCH   5  29
TORSDOF 7
ENDMDL
MODEL 7
REMARK VINA RESULT:      -7.3      3.300      8.519
REMARK  Name = 
REMARK  7 active torsions:
REMARK  status: ('A' for Active; 'I' for Inactive)
REMARK    1  A    between atoms: N_1  and  C_2
REMARK    2  A    between atoms: C_2  and  C_3
REMARK    3  A    between atoms: C_2  and  C_30
REMARK    4  A    between atoms: C_7  and  C_8
REMARK    5  A    between atoms: C_8  and  N_9
REMARK    6  A    between atoms: N_9  and  C_10
REMARK    7  A    between atoms: N_20  and  C_21
REMARK                            x       y       z     vdW  Elec       q    Type
REMARK                         _______ _______ _______ _____ _____    ______ ____
ROOT
ATOM      1  C   UNL     1      -3.619  10.749  17.505  0.00  0.00    +0.000 C 
ATOM      2  O   UNL     1      -3.286   9.765  16.835  0.00  0.00    +0.000 OA
ATOM      3  N   UNL     1      -2.683  11.428  18.270  0.00  0.00    +0.000 N 
ATOM      4  C   UNL     1      -1.274  11.083  18.222  0.00  0.00    +0.000 C 
ATOM      5  C   UNL     1      -0.737  11.414  19.618  0.00  0.00    +0.000 C 
ATOM      6  C   UNL     1      -1.763  12.455  20.149  0.00  0.00    +0.000 C 
ATOM      7  C   UNL     1      -2.905  12.570  19.122  0.00  0.00    +0.000 C 
ATOM      8  C   UNL     1      -2.292  12.134  21.556  0.00  0.00    +0.000 C 
ATOM      9  N   UNL     1      -2.520  13.524  21.728  0.00  0.00    +0.000 N 
ATOM     10  C   UNL     1      -1.471  13.857  20.801  0.00  0.00    +0.000 C 
ENDROOT
BRANCH   9  11
ATOM     11  C   UNL     1      -2.978  14.099  22.923  0.00  0.00    +0.000 A 
ATOM     12  C   UNL     1      -4.267  14.658  22.973  0.00  0.00    +0.000 A 
ATOM     13  C   UNL     1      -4.646  15.497  24.011  0.00  0.00    +0.000 A 
ATOM     14  F   UNL     1      -5.859  16.068  23.974  0.00  0.00    +0.000 F 
ATOM     15  C   UNL     1      -3.769  15.795  25.031  0.00  0.00    +0.000 A 
ATOM     16  C   UNL     1      -2.513  15.200  25.023  0.00  0.00    +0.000 A 
ATOM     17  F   UNL     1      -1.646  15.508  25.996  0.00  0.00    +0.000 F 
ATOM     18  C   UNL     1      -2.114  14.340  23.995  0.00  0.00    +0.000 A 
ENDBRANCH   9  11
BRANCH   1  19
ATOM     19  C   UNL     1      -5.099  11.245  17.448  0.00  0.00    +0.000 C 
BRANCH  19  20
ATOM     20  C   UNL     1      -5.952  10.954  18.679  0.00  0.00    +0.000 A 
ATOM     21  C   UNL     1      -6.500   9.672  18.875  0.00  0.00    +0.000 A 
ATOM     22  C   UNL     1      -7.253   9.372  20.012  0.00  0.00    +0.000 A 
ATOM     23  C   UNL     1      -7.461  10.346  20.984  0.00  0.00    +0.000 A 
ATOM     24  C   UNL     1      -6.904  11.612  20.825  0.00  0.00    +0.000 A 
ATOM     25  C   UNL     1      -6.141  11.911  19.690  0.00  0.00    +0.000 A 
ENDBRANCH  19  20
BRANCH  19  26
ATOM     26  N   UNL     1      -5.134  12.670  17.036  0.00  0.00    +0.000 NA
ATOM     27  H   UNL     1      -4.384  13.157  17.527  0.00  0.00    +0.000 HD
ATOM     28  H   UNL     1      -6.005  13.089  17.339  0.00  0.00    +0.000 HD
ENDBRANCH  19  26
ENDBRANCH   1  19
BRANCH   5  29
ATOM     29  C   UNL     1      -0.732  10.130  20.477  0.00  0.00    +0.000 C 
BRANCH  29  30
ATOM     30  N   UNL     1       0.590   9.765  20.979  0.00  0.00    +0.000 N 
ATOM     31  H   UNL     1       0.599   9.564  21.978  0.00  0.00    +0.000 HD
BRANCH  30  32
ATOM     32  C   UNL     1       1.279   8.771  20.254  0.00  0.00    +0.000 A 
ATOM     33  C   UNL     1       1.544   7.488  20.769  0.00  0.00    +0.000 A 
ATOM     34  C   UNL     1       2.172   6.508  19.996  0.00  0.00    +0.000 A 
ATOM     35  C   UNL     1       2.517   6.792  18.684  0.00  0.00    +0.000 A 
ATOM     36  F   UNL     1       3.112   5.852  17.937  0.00  0.00    +0.000 F 
ATOM     37  C   UNL     1       2.235   8.034  18.131  0.00  0.00    +0.000 A 
ATOM     38  C   UNL     1       1.604   9.010  18.910  0.00  0.00    +0.000 A 
ENDBRANCH  30  32
ENDBRANCH  29  30
ENDBRANCH   5  29
TORSDOF 7
ENDMDL
MODEL 8
REMARK VINA RESULT:      -7.2      4.394      7.110
REMARK  Name = 
REMARK  7 active torsions:
REMARK  status: ('A' for Active; 'I' for Inactive)
REMARK    1  A    between atoms: N_1  and  C_2
REMARK    2  A    between atoms: C_2  and  C_3
REMARK    3  A    between atoms: C_2  and  C_30
REMARK    4  A    between atoms: C_7  and  C_8
REMARK    5  A    between atoms: C_8  and  N_9
REMARK    6  A    between atoms: N_9  and  C_10
REMARK    7  A    between atoms: N_20  and  C_21
REMARK                            x       y       z     vdW  Elec       q    Type
REMARK                         _______ _______ _______ _____ _____    ______ ____
ROOT
ATOM      1  C   UNL     1       1.553  14.072  20.227  0.00  0.00    +0.000 C 
ATOM      2  O   UNL     1       0.801  15.020  20.476  0.00  0.00    +0.000 OA
ATOM      3  N   UNL     1       1.143  13.052  19.383  0.00  0.00    +0.000 N 
ATOM      4  C   UNL     1      -0.124  13.119  18.678  0.00  0.00    +0.000 C 
ATOM      5  C   UNL     1      -0.573  11.662  18.530  0.00  0.00    +0.000 C 
ATOM      6  C   UNL     1       0.760  10.871  18.655  0.00  0.00    +0.000 C 
ATOM      7  C   UNL     1       1.878  11.870  19.008  0.00  0.00    +0.000 C 
ATOM      8  C   UNL     1       0.694   9.710  19.659  0.00  0.00    +0.000 C 
ATOM      9  N   UNL     1       1.718   9.074  18.908  0.00  0.00    +0.000 N 
ATOM     10  C   UNL     1       1.313   9.747  17.702  0.00  0.00    +0.000 C 
ENDROOT
BRANCH   9  11
ATOM     11  C   UNL     1       2.206   7.789  19.185  0.00  0.00    +0.000 A 
ATOM     12  C   UNL     1       3.059   7.159  18.262  0.00  0.00    +0.000 A 
ATOM     13  C   UNL     1       3.317   5.798  18.336  0.00  0.00    +0.000 A 
ATOM     14  F   UNL     1       4.075   5.228  17.387  0.00  0.00    +0.000 F 
ATOM     15  C   UNL     1       2.750   5.026  19.327  0.00  0.00    +0.000 A 
ATOM     16  C   UNL     1       1.954   5.650  20.280  0.00  0.00    +0.000 A 
ATOM     17  F   UNL     1       1.377   4.902  21.229  0.00  0.00    +0.000 F 
ATOM     18  C   UNL     1       1.692   7.023  20.234  0.00  0.00    +0.000 A 
ENDBRANCH   9  11
BRANCH   1  19
ATOM     19  C   UNL     1       2.989  14.055  20.842  0.00  0.00    +0.000 C 
BRANCH  19  20
ATOM     20  C   UNL     1       4.088  14.696  20.001  0.00  0.00    +0.000 A 
ATOM     21  C   UNL     1       5.178  15.334  20.625  0.00  0.00    +0.000 A 
ATOM     22  C   UNL     1       6.214  15.895  19.876  0.00  0.00    +0.000 A 
ATOM     23  C   UNL     1       6.188  15.817  18.488  0.00  0.00    +0.000 A 
ATOM     24  C   UNL     1       5.135  15.166  17.850  0.00  0.00    +0.000 A 
ATOM     25  C   UNL     1       4.101  14.595  18.600  0.00  0.00    +0.000 A 
ENDBRANCH  19  20
BRANCH  19  26
ATOM     26  N   UNL     1       2.942  14.568  22.233  0.00  0.00    +0.000 NA
ATOM     27  H   UNL     1       2.667  15.550  22.197  0.00  0.00    +0.000 HD
ATOM     28  H   UNL     1       3.871  14.538  22.637  0.00  0.00    +0.000 HD
ENDBRANCH  19  26
ENDBRANCH   1  19
BRANCH   5  29
ATOM     29  C   UNL     1      -1.551  11.313  19.674  0.00  0.00    +0.000 C 
BRANCH  29  30
ATOM     30  N   UNL     1      -2.513  12.372  19.967  0.00  0.00    +0.000 N 
ATOM     31  H   UNL     1      -3.298  12.393  19.317  0.00  0.00    +0.000 HD
BRANCH  30  32
ATOM     32  C   UNL     1      -2.957  12.458  21.303  0.00  0.00    +0.000 A 
ATOM     33  C   UNL     1      -4.273  12.808  21.655  0.00  0.00    +0.000 A 
ATOM     34  C   UNL     1      -4.693  12.819  22.988  0.00  0.00    +0.000 A 
ATOM     35  C   UNL     1      -3.804  12.450  23.986  0.00  0.00    +0.000 A 
ATOM     36  F   UNL     1      -4.205  12.452  25.264  0.00  0.00    +0.000 F 
ATOM     37  C   UNL     1      -2.509  12.062  23.670  0.00  0.00    +0.000 A 
ATOM     38  C   UNL     1      -2.096  12.051  22.334  0.00  0.00    +0.000 A 
ENDBRANCH  30  32
ENDBRANCH  29  30
ENDBRANCH   5  29
TORSDOF 7
ENDMDL
MODEL 9
REMARK VINA RESULT:      -7.2      3.614      6.211
REMARK  Name = 
REMARK  7 active torsions:
REMARK  status: ('A' for Active; 'I' for Inactive)
REMARK    1  A    between atoms: N_1  and  C_2
REMARK    2  A    between atoms: C_2  and  C_3
REMARK    3  A    between atoms: C_2  and  C_30
REMARK    4  A    between atoms: C_7  and  C_8
REMARK    5  A    between atoms: C_8  and  N_9
REMARK    6  A    between atoms: N_9  and  C_10
REMARK    7  A    between atoms: N_20  and  C_21
REMARK                            x       y       z     vdW  Elec       q    Type
REMARK                         _______ _______ _______ _____ _____    ______ ____
ROOT
ATOM      1  C   UNL     1      -0.258   9.582  21.739  0.00  0.00    +0.000 C 
ATOM      2  O   UNL     1      -1.303   8.935  21.868  0.00  0.00    +0.000 OA
ATOM      3  N   UNL     1      -0.280  10.968  21.774  0.00  0.00    +0.000 N 
ATOM      4  C   UNL     1      -1.498  11.696  22.077  0.00  0.00    +0.000 C 
ATOM      5  C   UNL     1      -1.374  13.013  21.305  0.00  0.00    +0.000 C 
ATOM      6  C   UNL     1       0.161  13.153  21.097  0.00  0.00    +0.000 C 
ATOM      7  C   UNL     1       0.834  11.869  21.616  0.00  0.00    +0.000 C 
ATOM      8  C   UNL     1       0.559  13.459  19.644  0.00  0.00    +0.000 C 
ATOM      9  N   UNL     1       1.726  14.087  20.154  0.00  0.00    +0.000 N 
ATOM     10  C   UNL     1       1.068  14.405  21.394  0.00  0.00    +0.000 C 
ENDROOT
BRANCH   9  11
ATOM     11  C   UNL     1       2.666  14.754  19.355  0.00  0.00    +0.000 A 
ATOM     12  C   UNL     1       2.273  15.891  18.626  0.00  0.00    +0.000 A 
ATOM     13  C   UNL     1       3.061  16.394  17.602  0.00  0.00    +0.000 A 
ATOM     14  F   UNL     1       2.607  17.433  16.884  0.00  0.00    +0.000 F 
ATOM     15  C   UNL     1       4.261  15.799  17.278  0.00  0.00    +0.000 A 
ATOM     16  C   UNL     1       4.687  14.712  18.033  0.00  0.00    +0.000 A 
ATOM     17  F   UNL     1       5.839  14.111  17.706  0.00  0.00    +0.000 F 
ATOM     18  C   UNL     1       3.917  14.196  19.079  0.00  0.00    +0.000 A 
ENDBRANCH   9  11
BRANCH   1  19
ATOM     19  C   UNL     1       1.096   8.820  21.576  0.00  0.00    +0.000 C 
BRANCH  19  20
ATOM     20  C   UNL     1       1.554   8.565  20.143  0.00  0.00    +0.000 A 
ATOM     21  C   UNL     1       1.397   9.561  19.160  0.00  0.00    +0.000 A 
ATOM     22  C   UNL     1       1.843   9.365  17.852  0.00  0.00    +0.000 A 
ATOM     23  C   UNL     1       2.469   8.173  17.503  0.00  0.00    +0.000 A 
ATOM     24  C   UNL     1       2.662   7.185  18.466  0.00  0.00    +0.000 A 
ATOM     25  C   UNL     1       2.224   7.384  19.780  0.00  0.00    +0.000 A 
ENDBRANCH  19  20
BRANCH  19  26
ATOM     26  N   UNL     1       2.136   9.461  22.417  0.00  0.00    +0.000 NA
ATOM     27  H   UNL     1       3.029   9.015  22.207  0.00  0.00    +0.000 HD
ATOM     28  H   UNL     1       1.939   9.281  23.395  0.00  0.00    +0.000 HD
ENDBRANCH  19  26
ENDBRANCH   1  19
BRANCH   5  29
ATOM     29  C   UNL     1      -2.121  12.885  19.958  0.00  0.00    +0.000 C 
BRANCH  29  30
ATOM     30  N   UNL     1      -2.837  11.622  19.802  0.00  0.00    +0.000 N 
ATOM     31  H   UNL     1      -3.752  11.620  20.251  0.00  0.00    +0.000 HD
BRANCH  30  32
ATOM     32  C   UNL     1      -2.912  11.107  18.491  0.00  0.00    +0.000 A 
ATOM     33  C   UNL     1      -3.895  11.500  17.565  0.00  0.00    +0.000 A 
ATOM     34  C   UNL     1      -3.898  11.016  16.254  0.00  0.00    +0.000 A 
ATOM     35  C   UNL     1      -2.895  10.151  15.845  0.00  0.00    +0.000 A 
ATOM     36  F   UNL     1      -2.889   9.692  14.587  0.00  0.00    +0.000 F 
ATOM     37  C   UNL     1      -1.886   9.773  16.722  0.00  0.00    +0.000 A 
ATOM     38  C   UNL     1      -1.889  10.263  18.032  0.00  0.00    +0.000 A 
ENDBRANCH  30  32
ENDBRANCH  29  30
ENDBRANCH   5  29
TORSDOF 7
ENDMDL
