MODEL 1
REMARK VINA RESULT:      -9.2      0.000      0.000
REMARK  Name = 
REMARK  8 active torsions:
REMARK  status: ('A' for Active; 'I' for Inactive)
REMARK    1  A    between atoms: C_1  and  N_2
REMARK    2  A    between atoms: N_2  and  C_3
REMARK    3  A    between atoms: N_2  and  C_4
REMARK    4  A    between atoms: C_4  and  C_5
REMARK    5  A    between atoms: N_7  and  C_8
REMARK    6  A    between atoms: C_11  and  C_12
REMARK    7  A    between atoms: C_17  and  C_18
REMARK    8  A    between atoms: N_28  and  C_29
REMARK                            x       y       z     vdW  Elec       q    Type
REMARK                         _______ _______ _______ _____ _____    ______ ____
ROOT
ATOM      1  C   UNL     1       6.993   4.996  17.512  0.00  0.00    +0.000 C 
ATOM      2  C   UNL     1       5.981   4.260  18.432  0.00  0.00    +0.000 C 
ATOM      3  N   UNL     1       4.586   4.567  18.094  0.00  0.00    +0.000 N 
ATOM      4  C   UNL     1       3.620   4.907  19.023  0.00  0.00    +0.000 A 
ATOM      5  N   UNL     1       3.042   6.077  18.935  0.00  0.00    +0.000 NA
ATOM      6  C   UNL     1       2.148   6.438  19.908  0.00  0.00    +0.000 A 
ATOM      7  C   UNL     1       1.681   5.610  20.848  0.00  0.00    +0.000 A 
ATOM      8  C   UNL     1       2.215   4.246  20.869  0.00  0.00    +0.000 A 
ATOM      9  O   UNL     1       1.698   3.431  21.628  0.00  0.00    +0.000 OA
ATOM     10  N   UNL     1       3.270   3.998  20.019  0.00  0.00    +0.000 N 
ATOM     11  C   UNL     1       3.845   2.662  20.071  0.00  0.00    +0.000 C 
ATOM     12  C   UNL     1       4.284   4.454  16.669  0.00  0.00    +0.000 C 
ATOM     13  C   UNL     1       5.322   5.195  15.812  0.00  0.00    +0.000 C 
ATOM     14  O   UNL     1       6.676   4.843  16.121  0.00  0.00    +0.000 OA
ENDROOT
BRANCH   6  15
ATOM     15  C   UNL     1       1.659   7.826  19.944  0.00  0.00    +0.000 A 
ATOM     16  C   UNL     1       1.235   8.402  21.146  0.00  0.00    +0.000 A 
ATOM     17  C   UNL     1       0.837   9.732  21.143  0.00  0.00    +0.000 A 
ATOM     18  N   UNL     1       0.838  10.517  20.042  0.00  0.00    +0.000 NA
ATOM     19  C   UNL     1       1.254   9.941  18.890  0.00  0.00    +0.000 A 
ATOM     20  C   UNL     1       1.670   8.623  18.797  0.00  0.00    +0.000 A 
ATOM     21  F   UNL     1       2.099   8.144  17.620  0.00  0.00    +0.000 F 
ENDBRANCH   6  15
BRANCH   1  25
ATOM     22  C   UNL     1       8.399   9.026  18.259  0.00  0.00    +0.000 A 
ATOM     23  C   UNL     1       7.390   8.785  17.323  0.00  0.00    +0.000 A 
ATOM     24  C   UNL     1       6.864   7.495  17.155  0.00  0.00    +0.000 A 
ATOM     25  C   UNL     1       7.336   6.423  17.922  0.00  0.00    +0.000 A 
ATOM     26  C   UNL     1       8.235   6.711  18.956  0.00  0.00    +0.000 A 
ATOM     27  C   UNL     1       8.783   7.988  19.105  0.00  0.00    +0.000 A 
BRANCH  22  30
ATOM     28  C   UNL     1       9.387  10.961  19.493  0.00  0.00    +0.000 C 
ATOM     29  O   UNL     1       9.269  10.558  20.649  0.00  0.00    +0.000 OA
ATOM     30  N   UNL     1       9.115  10.237  18.347  0.00  0.00    +0.000 N 
ATOM     31  H   UNL     1       9.344  10.708  17.477  0.00  0.00    +0.000 HD
BRANCH  28  32
ATOM     32  C   UNL     1       9.947  12.363  19.223  0.00  0.00    +0.000 C 
BRANCH  32  34
ATOM     33  C   UNL     1       8.744  14.131  18.051  0.00  0.00    +0.000 C 
ATOM     34  N   UNL     1       9.552  12.911  17.897  0.00  0.00    +0.000 NA
ATOM     35  C   UNL     1      10.778  13.259  17.156  0.00  0.00    +0.000 C 
ENDBRANCH  32  34
ENDBRANCH  28  32
ENDBRANCH  22  30
ENDBRANCH   1  25
TORSDOF 5
ENDMDL
MODEL 2
REMARK VINA RESULT:      -8.9      0.954      1.307
REMARK  Name = 
REMARK  8 active torsions:
REMARK  status: ('A' for Active; 'I' for Inactive)
REMARK    1  A    between atoms: C_1  and  N_2
REMARK    2  A    between atoms: N_2  and  C_3
REMARK    3  A    between atoms: N_2  and  C_4
REMARK    4  A    between atoms: C_4  and  C_5
REMARK    5  A    between atoms: N_7  and  C_8
REMARK    6  A    between atoms: C_11  and  C_12
REMARK    7  A    between atoms: C_17  and  C_18
REMARK    8  A    between atoms: N_28  and  C_29
REMARK                            x       y       z     vdW  Elec       q    Type
REMARK                         _______ _______ _______ _____ _____    ______ ____
ROOT
ATOM      1  C   UNL     1       7.149   5.168  17.570  0.00  0.00    +0.000 C 
ATOM      2  C   UNL     1       6.095   4.451  18.457  0.00  0.00    +0.000 C 
ATOM      3  N   UNL     1       4.717   4.741  18.039  0.00  0.00    +0.000 N 
ATOM      4  C   UNL     1       3.704   5.099  18.909  0.00  0.00    +0.000 A 
ATOM      5  N   UNL     1       3.126   6.263  18.760  0.00  0.00    +0.000 NA
ATOM      6  C   UNL     1       2.182   6.644  19.677  0.00  0.00    +0.000 A 
ATOM      7  C   UNL     1       1.672   5.839  20.613  0.00  0.00    +0.000 A 
ATOM      8  C   UNL     1       2.209   4.479  20.698  0.00  0.00    +0.000 A 
ATOM      9  O   UNL     1       1.658   3.681  21.451  0.00  0.00    +0.000 OA
ATOM     10  N   UNL     1       3.308   4.215  19.909  0.00  0.00    +0.000 N 
ATOM     11  C   UNL     1       3.885   2.885  20.026  0.00  0.00    +0.000 C 
ATOM     12  C   UNL     1       4.490   4.588  16.605  0.00  0.00    +0.000 C 
ATOM     13  C   UNL     1       5.567   5.312  15.782  0.00  0.00    +0.000 C 
ATOM     14  O   UNL     1       6.904   4.976  16.170  0.00  0.00    +0.000 OA
ENDROOT
BRANCH   6  15
ATOM     15  C   UNL     1       1.686   8.030  19.650  0.00  0.00    +0.000 A 
ATOM     16  C   UNL     1       1.559   8.720  18.440  0.00  0.00    +0.000 A 
ATOM     17  C   UNL     1       1.033  10.005  18.457  0.00  0.00    +0.000 A 
ATOM     18  N   UNL     1       0.625  10.637  19.581  0.00  0.00    +0.000 NA
ATOM     19  C   UNL     1       0.755   9.952  20.740  0.00  0.00    +0.000 A 
ATOM     20  C   UNL     1       1.267   8.667  20.820  0.00  0.00    +0.000 A 
ATOM     21  F   UNL     1       1.328   8.050  22.010  0.00  0.00    +0.000 F 
ENDBRANCH   6  15
BRANCH   1  25
ATOM     22  C   UNL     1       8.469   9.239  18.248  0.00  0.00    +0.000 A 
ATOM     23  C   UNL     1       7.447   8.963  17.336  0.00  0.00    +0.000 A 
ATOM     24  C   UNL     1       6.949   7.659  17.192  0.00  0.00    +0.000 A 
ATOM     25  C   UNL     1       7.465   6.607  17.959  0.00  0.00    +0.000 A 
ATOM     26  C   UNL     1       8.378   6.928  18.970  0.00  0.00    +0.000 A 
ATOM     27  C   UNL     1       8.896   8.220  19.095  0.00  0.00    +0.000 A 
BRANCH  22  30
ATOM     28  C   UNL     1       9.335  11.267  19.423  0.00  0.00    +0.000 C 
ATOM     29  O   UNL     1       9.144  10.932  20.592  0.00  0.00    +0.000 OA
ATOM     30  N   UNL     1       9.155  10.469  18.309  0.00  0.00    +0.000 N 
ATOM     31  H   UNL     1       9.436  10.891  17.429  0.00  0.00    +0.000 HD
BRANCH  28  32
ATOM     32  C   UNL     1       9.887  12.661  19.106  0.00  0.00    +0.000 C 
BRANCH  32  34
ATOM     33  C   UNL     1      11.050  13.952  17.395  0.00  0.00    +0.000 C 
ATOM     34  N   UNL     1      10.961  12.651  18.075  0.00  0.00    +0.000 NA
ATOM     35  C   UNL     1      12.246  12.391  18.748  0.00  0.00    +0.000 C 
ENDBRANCH  32  34
ENDBRANCH  28  32
ENDBRANCH  22  30
ENDBRANCH   1  25
TORSDOF 5
ENDMDL
MODEL 3
REMARK VINA RESULT:      -8.8      1.053      1.208
REMARK  Name = 
REMARK  8 active torsions:
REMARK  status: ('A' for Active; 'I' for Inactive)
REMARK    1  A    between atoms: C_1  and  N_2
REMARK    2  A    between atoms: N_2  and  C_3
REMARK    3  A    between atoms: N_2  and  C_4
REMARK    4  A    between atoms: C_4  and  C_5
REMARK    5  A    between atoms: N_7  and  C_8
REMARK    6  A    between atoms: C_11  and  C_12
REMARK    7  A    between atoms: C_17  and  C_18
REMARK    8  A    between atoms: N_28  and  C_29
REMARK                            x       y       z     vdW  Elec       q    Type
REMARK                         _______ _______ _______ _____ _____    ______ ____
ROOT
ATOM      1  C   UNL     1       7.336   5.386  17.428  0.00  0.00    +0.000 C 
ATOM      2  C   UNL     1       6.339   4.571  18.296  0.00  0.00    +0.000 C 
ATOM      3  N   UNL     1       4.940   4.808  17.918  0.00  0.00    +0.000 N 
ATOM      4  C   UNL     1       3.926   5.069  18.822  0.00  0.00    +0.000 A 
ATOM      5  N   UNL     1       3.286   6.207  18.741  0.00  0.00    +0.000 NA
ATOM      6  C   UNL     1       2.341   6.492  19.691  0.00  0.00    +0.000 A 
ATOM      7  C   UNL     1       1.893   5.616  20.595  0.00  0.00    +0.000 A 
ATOM      8  C   UNL     1       2.502   4.284  20.604  0.00  0.00    +0.000 A 
ATOM      9  O   UNL     1       2.008   3.422  21.325  0.00  0.00    +0.000 OA
ATOM     10  N   UNL     1       3.597   4.117  19.783  0.00  0.00    +0.000 N 
ATOM     11  C   UNL     1       4.245   2.815  19.824  0.00  0.00    +0.000 C 
ATOM     12  C   UNL     1       4.691   4.713  16.482  0.00  0.00    +0.000 C 
ATOM     13  C   UNL     1       5.713   5.532  15.678  0.00  0.00    +0.000 C 
ATOM     14  O   UNL     1       7.074   5.249  16.025  0.00  0.00    +0.000 OA
ENDROOT
BRANCH   6  15
ATOM     15  C   UNL     1       1.774   7.849  19.743  0.00  0.00    +0.000 A 
ATOM     16  C   UNL     1       1.321   8.388  20.952  0.00  0.00    +0.000 A 
ATOM     17  C   UNL     1       0.847   9.693  20.964  0.00  0.00    +0.000 A 
ATOM     18  N   UNL     1       0.799  10.487  19.871  0.00  0.00    +0.000 NA
ATOM     19  C   UNL     1       1.243   9.947  18.712  0.00  0.00    +0.000 A 
ATOM     20  C   UNL     1       1.734   8.657  18.604  0.00  0.00    +0.000 A 
ATOM     21  F   UNL     1       2.186   8.215  17.421  0.00  0.00    +0.000 F 
ENDBRANCH   6  15
BRANCH   1  25
ATOM     22  C   UNL     1       8.494   9.463  18.326  0.00  0.00    +0.000 A 
ATOM     23  C   UNL     1       7.551   9.192  17.331  0.00  0.00    +0.000 A 
ATOM     24  C   UNL     1       7.100   7.882  17.110  0.00  0.00    +0.000 A 
ATOM     25  C   UNL     1       7.584   6.818  17.883  0.00  0.00    +0.000 A 
ATOM     26  C   UNL     1       8.410   7.129  18.970  0.00  0.00    +0.000 A 
ATOM     27  C   UNL     1       8.883   8.428  19.172  0.00  0.00    +0.000 A 
BRANCH  22  30
ATOM     28  C   UNL     1       8.810  11.897  17.855  0.00  0.00    +0.000 C 
ATOM     29  O   UNL     1       7.758  12.135  17.262  0.00  0.00    +0.000 OA
ATOM     30  N   UNL     1       9.141  10.707  18.475  0.00  0.00    +0.000 N 
ATOM     31  H   UNL     1      10.022  10.717  18.981  0.00  0.00    +0.000 HD
BRANCH  28  32
ATOM     32  C   UNL     1       9.866  12.996  18.016  0.00  0.00    +0.000 C 
BRANCH  32  34
ATOM     33  C   UNL     1      11.199  14.350  19.545  0.00  0.00    +0.000 C 
ATOM     34  N   UNL     1      10.061  13.425  19.428  0.00  0.00    +0.000 NA
ATOM     35  C   UNL     1       8.844  14.131  19.870  0.00  0.00    +0.000 C 
ENDBRANCH  32  34
ENDBRANCH  28  32
ENDBRANCH  22  30
ENDBRANCH   1  25
TORSDOF 5
ENDMDL
MODEL 4
REMARK VINA RESULT:      -8.3      1.301      1.556
REMARK  Name = 
REMARK  8 active torsions:
REMARK  status: ('A' for Active; 'I' for Inactive)
REMARK    1  A    between atoms: C_1  and  N_2
REMARK    2  A    between atoms: N_2  and  C_3
REMARK    3  A    between atoms: N_2  and  C_4
REMARK    4  A    between atoms: C_4  and  C_5
REMARK    5  A    between atoms: N_7  and  C_8
REMARK    6  A    between atoms: C_11  and  C_12
REMARK    7  A    between atoms: C_17  and  C_18
REMARK    8  A    between atoms: N_28  and  C_29
REMARK                            x       y       z     vdW  Elec       q    Type
REMARK                         _______ _______ _______ _____ _____    ______ ____
ROOT
ATOM      1  C   UNL     1       7.534   5.776  17.495  0.00  0.00    +0.000 C 
ATOM      2  C   UNL     1       6.519   4.934  18.316  0.00  0.00    +0.000 C 
ATOM      3  N   UNL     1       5.137   5.113  17.856  0.00  0.00    +0.000 N 
ATOM      4  C   UNL     1       4.065   5.345  18.698  0.00  0.00    +0.000 A 
ATOM      5  N   UNL     1       3.388   6.457  18.567  0.00  0.00    +0.000 NA
ATOM      6  C   UNL     1       2.381   6.717  19.458  0.00  0.00    +0.000 A 
ATOM      7  C   UNL     1       1.914   5.834  20.347  0.00  0.00    +0.000 A 
ATOM      8  C   UNL     1       2.572   4.526  20.407  0.00  0.00    +0.000 A 
ATOM      9  O   UNL     1       2.070   3.655  21.111  0.00  0.00    +0.000 OA
ATOM     10  N   UNL     1       3.717   4.392  19.652  0.00  0.00    +0.000 N 
ATOM     11  C   UNL     1       4.409   3.117  19.746  0.00  0.00    +0.000 C 
ATOM     12  C   UNL     1       4.974   4.993  16.410  0.00  0.00    +0.000 C 
ATOM     13  C   UNL     1       6.008   5.842  15.654  0.00  0.00    +0.000 C 
ATOM     14  O   UNL     1       7.357   5.614  16.081  0.00  0.00    +0.000 OA
ENDROOT
BRANCH   6  15
ATOM     15  C   UNL     1       1.761   8.052  19.460  0.00  0.00    +0.000 A 
ATOM     16  C   UNL     1       1.579   8.755  18.265  0.00  0.00    +0.000 A 
ATOM     17  C   UNL     1       0.938   9.987  18.307  0.00  0.00    +0.000 A 
ATOM     18  N   UNL     1       0.467  10.553  19.442  0.00  0.00    +0.000 NA
ATOM     19  C   UNL     1       0.652   9.855  20.586  0.00  0.00    +0.000 A 
ATOM     20  C   UNL     1       1.279   8.620  20.641  0.00  0.00    +0.000 A 
ATOM     21  F   UNL     1       1.388   7.983  21.816  0.00  0.00    +0.000 F 
ENDBRANCH   6  15
BRANCH   1  25
ATOM     22  C   UNL     1       8.439   9.926  18.350  0.00  0.00    +0.000 A 
ATOM     23  C   UNL     1       7.459   9.589  17.412  0.00  0.00    +0.000 A 
ATOM     24  C   UNL     1       7.094   8.249  17.210  0.00  0.00    +0.000 A 
ATOM     25  C   UNL     1       7.702   7.222  17.944  0.00  0.00    +0.000 A 
ATOM     26  C   UNL     1       8.567   7.590  18.981  0.00  0.00    +0.000 A 
ATOM     27  C   UNL     1       8.954   8.921  19.164  0.00  0.00    +0.000 A 
BRANCH  22  30
ATOM     28  C   UNL     1      10.256  11.615  18.055  0.00  0.00    +0.000 C 
ATOM     29  O   UNL     1      11.003  10.993  17.300  0.00  0.00    +0.000 OA
ATOM     30  N   UNL     1       9.000  11.214  18.469  0.00  0.00    +0.000 N 
ATOM     31  H   UNL     1       8.497  11.893  19.032  0.00  0.00    +0.000 HD
BRANCH  28  32
ATOM     32  C   UNL     1      10.666  13.000  18.568  0.00  0.00    +0.000 C 
BRANCH  32  34
ATOM     33  C   UNL     1       9.243  14.932  18.130  0.00  0.00    +0.000 C 
ATOM     34  N   UNL     1      10.344  14.100  17.619  0.00  0.00    +0.000 NA
ATOM     35  C   UNL     1      11.538  14.953  17.476  0.00  0.00    +0.000 C 
ENDBRANCH  32  34
ENDBRANCH  28  32
ENDBRANCH  22  30
ENDBRANCH   1  25
TORSDOF 5
ENDMDL
MODEL 5
REMARK VINA RESULT:      -7.6      4.078      8.899
REMARK  Name = 
REMARK  8 active torsions:
REMARK  status: ('A' for Active; 'I' for Inactive)
REMARK    1  A    between atoms: C_1  and  N_2
REMARK    2  A    between atoms: N_2  and  C_3
REMARK    3  A    between atoms: N_2  and  C_4
REMARK    4  A    between atoms: C_4  and  C_5
REMARK    5  A    between atoms: N_7  and  C_8
REMARK    6  A    between atoms: C_11  and  C_12
REMARK    7  A    between atoms: C_17  and  C_18
REMARK    8  A    between atoms: N_28  and  C_29
REMARK                            x       y       z     vdW  Elec       q    Type
REMARK                         _______ _______ _______ _____ _____    ______ ____
ROOT
ATOM      1  C   UNL     1      -0.975  10.362  19.712  0.00  0.00    +0.000 C 
ATOM      2  C   UNL     1      -0.905  11.530  20.732  0.00  0.00    +0.000 C 
ATOM      3  N   UNL     1      -0.491  12.796  20.113  0.00  0.00    +0.000 N 
ATOM      4  C   UNL     1       0.474  13.635  20.636  0.00  0.00    +0.000 A 
ATOM      5  N   UNL     1       1.547  13.883  19.929  0.00  0.00    +0.000 NA
ATOM      6  C   UNL     1       2.535  14.647  20.489  0.00  0.00    +0.000 A 
ATOM      7  C   UNL     1       2.411  15.314  21.641  0.00  0.00    +0.000 A 
ATOM      8  C   UNL     1       1.154  15.161  22.377  0.00  0.00    +0.000 A 
ATOM      9  O   UNL     1       0.963  15.873  23.358  0.00  0.00    +0.000 OA
ATOM     10  N   UNL     1       0.283  14.210  21.890  0.00  0.00    +0.000 N 
ATOM     11  C   UNL     1      -0.945  14.009  22.644  0.00  0.00    +0.000 C 
ATOM     12  C   UNL     1      -1.218  13.120  18.888  0.00  0.00    +0.000 C 
ATOM     13  C   UNL     1      -1.259  11.924  17.923  0.00  0.00    +0.000 C 
ATOM     14  O   UNL     1      -1.715  10.712  18.533  0.00  0.00    +0.000 OA
ENDROOT
BRANCH   6  15
ATOM     15  C   UNL     1       3.831  14.751  19.798  0.00  0.00    +0.000 A 
ATOM     16  C   UNL     1       5.021  14.855  20.525  0.00  0.00    +0.000 A 
ATOM     17  C   UNL     1       6.224  14.892  19.832  0.00  0.00    +0.000 A 
ATOM     18  N   UNL     1       6.320  14.828  18.485  0.00  0.00    +0.000 NA
ATOM     19  C   UNL     1       5.157  14.726  17.801  0.00  0.00    +0.000 A 
ATOM     20  C   UNL     1       3.911  14.680  18.406  0.00  0.00    +0.000 A 
ATOM     21  F   UNL     1       2.812  14.543  17.650  0.00  0.00    +0.000 F 
ENDBRANCH   6  15
BRANCH   1  25
ATOM     22  C   UNL     1       2.442   7.889  18.721  0.00  0.00    +0.000 A 
ATOM     23  C   UNL     1       1.908   8.776  17.782  0.00  0.00    +0.000 A 
ATOM     24  C   UNL     1       0.868   9.650  18.135  0.00  0.00    +0.000 A 
ATOM     25  C   UNL     1       0.345   9.653  19.434  0.00  0.00    +0.000 A 
ATOM     26  C   UNL     1       0.991   8.868  20.397  0.00  0.00    +0.000 A 
ATOM     27  C   UNL     1       2.007   7.976  20.040  0.00  0.00    +0.000 A 
BRANCH  22  30
ATOM     28  C   UNL     1       3.022   5.536  18.109  0.00  0.00    +0.000 C 
ATOM     29  O   UNL     1       1.900   5.103  17.849  0.00  0.00    +0.000 OA
ATOM     30  N   UNL     1       3.339   6.851  18.396  0.00  0.00    +0.000 N 
ATOM     31  H   UNL     1       4.330   7.037  18.511  0.00  0.00    +0.000 HD
BRANCH  28  32
ATOM     32  C   UNL     1       4.235   4.600  18.063  0.00  0.00    +0.000 C 
BRANCH  32  34
ATOM     33  C   UNL     1       6.632   4.747  17.638  0.00  0.00    +0.000 C 
ATOM     34  N   UNL     1       5.290   5.047  17.114  0.00  0.00    +0.000 NA
ATOM     35  C   UNL     1       5.114   4.314  15.847  0.00  0.00    +0.000 C 
ENDBRANCH  32  34
ENDBRANCH  28  32
ENDBRANCH  22  30
ENDBRANCH   1  25
TORSDOF 5
ENDMDL
MODEL 6
REMARK VINA RESULT:      -7.4      1.210      1.671
REMARK  Name = 
REMARK  8 active torsions:
REMARK  status: ('A' for Active; 'I' for Inactive)
REMARK    1  A    between atoms: C_1  and  N_2
REMARK    2  A    between atoms: N_2  and  C_3
REMARK    3  A    between atoms: N_2  and  C_4
REMARK    4  A    between atoms: C_4  and  C_5
REMARK    5  A    between atoms: N_7  and  C_8
REMARK    6  A    between atoms: C_11  and  C_12
REMARK    7  A    between atoms: C_17  and  C_18
REMARK    8  A    between atoms: N_28  and  C_29
REMARK                            x       y       z     vdW  Elec       q    Type
REMARK                         _______ _______ _______ _____ _____    ______ ____
ROOT
ATOM      1  C   UNL     1       7.008   4.280  17.265  0.00  0.00    +0.000 C 
ATOM      2  C   UNL     1       5.948   3.823  18.304  0.00  0.00    +0.000 C 
ATOM      3  N   UNL     1       4.584   4.214  17.926  0.00  0.00    +0.000 N 
ATOM      4  C   UNL     1       3.682   4.808  18.789  0.00  0.00    +0.000 A 
ATOM      5  N   UNL     1       3.226   6.001  18.504  0.00  0.00    +0.000 NA
ATOM      6  C   UNL     1       2.398   6.615  19.405  0.00  0.00    +0.000 A 
ATOM      7  C   UNL     1       1.871   6.014  20.477  0.00  0.00    +0.000 A 
ATOM      8  C   UNL     1       2.261   4.625  20.730  0.00  0.00    +0.000 A 
ATOM      9  O   UNL     1       1.681   4.011  21.621  0.00  0.00    +0.000 OA
ATOM     10  N   UNL     1       3.264   4.124  19.928  0.00  0.00    +0.000 N 
ATOM     11  C   UNL     1       3.699   2.764  20.206  0.00  0.00    +0.000 C 
ATOM     12  C   UNL     1       4.238   3.892  16.544  0.00  0.00    +0.000 C 
ATOM     13  C   UNL     1       5.326   4.361  15.566  0.00  0.00    +0.000 C 
ATOM     14  O   UNL     1       6.643   3.925  15.923  0.00  0.00    +0.000 OA
ENDROOT
BRANCH   6  15
ATOM     15  C   UNL     1       2.057   8.033  19.205  0.00  0.00    +0.000 A 
ATOM     16  C   UNL     1       2.345   8.671  17.994  0.00  0.00    +0.000 A 
ATOM     17  C   UNL     1       1.953   9.993  17.828  0.00  0.00    +0.000 A 
ATOM     18  N   UNL     1       1.298  10.709  18.770  0.00  0.00    +0.000 NA
ATOM     19  C   UNL     1       1.028  10.072  19.932  0.00  0.00    +0.000 A 
ATOM     20  C   UNL     1       1.378   8.756  20.187  0.00  0.00    +0.000 A 
ATOM     21  F   UNL     1       1.039   8.194  21.357  0.00  0.00    +0.000 F 
ENDBRANCH   6  15
BRANCH   1  25
ATOM     22  C   UNL     1       7.918   8.449  18.013  0.00  0.00    +0.000 A 
ATOM     23  C   UNL     1       8.330   7.458  18.908  0.00  0.00    +0.000 A 
ATOM     24  C   UNL     1       8.126   6.101  18.615  0.00  0.00    +0.000 A 
ATOM     25  C   UNL     1       7.507   5.711  17.421  0.00  0.00    +0.000 A 
ATOM     26  C   UNL     1       7.239   6.706  16.473  0.00  0.00    +0.000 A 
ATOM     27  C   UNL     1       7.415   8.060  16.775  0.00  0.00    +0.000 A 
BRANCH  22  30
ATOM     28  C   UNL     1       8.974  10.699  18.271  0.00  0.00    +0.000 C 
ATOM     29  O   UNL     1      10.056  10.489  17.725  0.00  0.00    +0.000 OA
ATOM     30  N   UNL     1       7.904   9.825  18.320  0.00  0.00    +0.000 N 
ATOM     31  H   UNL     1       7.063  10.200  18.749  0.00  0.00    +0.000 HD
BRANCH  28  32
ATOM     32  C   UNL     1       8.694  12.060  18.920  0.00  0.00    +0.000 C 
BRANCH  32  34
ATOM     33  C   UNL     1       7.506  14.005  18.052  0.00  0.00    +0.000 C 
ATOM     34  N   UNL     1       8.729  13.192  17.955  0.00  0.00    +0.000 NA
ATOM     35  C   UNL     1       9.881  14.049  18.288  0.00  0.00    +0.000 C 
ENDBRANCH  32  34
ENDBRANCH  28  32
ENDBRANCH  22  30
ENDBRANCH   1  25
TORSDOF 5
ENDMDL
MODEL 7
REMARK VINA RESULT:      -7.4      4.398      8.241
REMARK  Name = 
REMARK  8 active torsions:
REMARK  status: ('A' for Active; 'I' for Inactive)
REMARK    1  A    between atoms: C_1  and  N_2
REMARK    2  A    between atoms: N_2  and  C_3
REMARK    3  A    between atoms: N_2  and  C_4
REMARK    4  A    between atoms: C_4  and  C_5
REMARK    5  A    between atoms: N_7  and  C_8
REMARK    6  A    between atoms: C_11  and  C_12
REMARK    7  A    between atoms: C_17  and  C_18
REMARK    8  A    between atoms: N_28  and  C_29
REMARK                            x       y       z     vdW  Elec       q    Type
REMARK                         _______ _______ _______ _____ _____    ______ ____
ROOT
ATOM      1  C   UNL     1       1.605   9.116  22.076  0.00  0.00    +0.000 C 
ATOM      2  C   UNL     1       1.477  10.608  21.666  0.00  0.00    +0.000 C 
ATOM      3  N   UNL     1       0.083  11.012  21.439  0.00  0.00    +0.000 N 
ATOM      4  C   UNL     1      -0.345  11.733  20.340  0.00  0.00    +0.000 A 
ATOM      5  N   UNL     1      -1.228  11.196  19.538  0.00  0.00    +0.000 NA
ATOM      6  C   UNL     1      -1.584  11.883  18.407  0.00  0.00    +0.000 A 
ATOM      7  C   UNL     1      -1.233  13.146  18.150  0.00  0.00    +0.000 A 
ATOM      8  C   UNL     1      -0.357  13.812  19.117  0.00  0.00    +0.000 A 
ATOM      9  O   UNL     1      -0.140  15.012  18.976  0.00  0.00    +0.000 OA
ATOM     10  N   UNL     1       0.154  13.014  20.118  0.00  0.00    +0.000 N 
ATOM     11  C   UNL     1       1.069  13.651  21.052  0.00  0.00    +0.000 C 
ATOM     12  C   UNL     1      -0.830  10.609  22.506  0.00  0.00    +0.000 C 
ATOM     13  C   UNL     1      -0.650   9.127  22.872  0.00  0.00    +0.000 C 
ATOM     14  O   UNL     1       0.709   8.765  23.141  0.00  0.00    +0.000 OA
ENDROOT
BRANCH   6  15
ATOM     15  C   UNL     1      -2.403  11.201  17.391  0.00  0.00    +0.000 A 
ATOM     16  C   UNL     1      -3.647  11.717  17.015  0.00  0.00    +0.000 A 
ATOM     17  C   UNL     1      -4.359  11.073  16.011  0.00  0.00    +0.000 A 
ATOM     18  N   UNL     1      -3.920   9.971  15.363  0.00  0.00    +0.000 NA
ATOM     19  C   UNL     1      -2.713   9.490  15.742  0.00  0.00    +0.000 A 
ATOM     20  C   UNL     1      -1.932  10.065  16.731  0.00  0.00    +0.000 A 
ATOM     21  F   UNL     1      -0.732   9.540  17.018  0.00  0.00    +0.000 F 
ENDBRANCH   6  15
BRANCH   1  25
ATOM     22  C   UNL     1       2.268   6.217  18.925  0.00  0.00    +0.000 A 
ATOM     23  C   UNL     1       1.897   5.804  20.208  0.00  0.00    +0.000 A 
ATOM     24  C   UNL     1       1.583   6.745  21.199  0.00  0.00    +0.000 A 
ATOM     25  C   UNL     1       1.632   8.118  20.926  0.00  0.00    +0.000 A 
ATOM     26  C   UNL     1       1.856   8.508  19.600  0.00  0.00    +0.000 A 
ATOM     27  C   UNL     1       2.198   7.573  18.618  0.00  0.00    +0.000 A 
BRANCH  22  30
ATOM     28  C   UNL     1       3.994   4.677  17.980  0.00  0.00    +0.000 C 
ATOM     29  O   UNL     1       4.705   4.523  18.972  0.00  0.00    +0.000 OA
ATOM     30  N   UNL     1       2.787   5.351  17.942  0.00  0.00    +0.000 N 
ATOM     31  H   UNL     1       2.302   5.311  17.051  0.00  0.00    +0.000 HD
BRANCH  28  32
ATOM     32  C   UNL     1       4.388   4.033  16.646  0.00  0.00    +0.000 C 
BRANCH  32  34
ATOM     33  C   UNL     1       5.834   4.091  14.683  0.00  0.00    +0.000 C 
ATOM     34  N   UNL     1       5.572   4.672  16.010  0.00  0.00    +0.000 NA
ATOM     35  C   UNL     1       5.287   6.107  15.837  0.00  0.00    +0.000 C 
ENDBRANCH  32  34
ENDBRANCH  28  32
ENDBRANCH  22  30
ENDBRANCH   1  25
TORSDOF 5
ENDMDL
MODEL 8
REMARK VINA RESULT:      -7.4      1.014      1.316
REMARK  Name = 
REMARK  8 active torsions:
REMARK  status: ('A' for Active; 'I' for Inactive)
REMARK    1  A    between atoms: C_1  and  N_2
REMARK    2  A    between atoms: N_2  and  C_3
REMARK    3  A    between atoms: N_2  and  C_4
REMARK    4  A    between atoms: C_4  and  C_5
REMARK    5  A    between atoms: N_7  and  C_8
REMARK    6  A    between atoms: C_11  and  C_12
REMARK    7  A    between atoms: C_17  and  C_18
REMARK    8  A    between atoms: N_28  and  C_29
REMARK                            x       y       z     vdW  Elec       q    Type
REMARK                         _______ _______ _______ _____ _____    ______ ____
ROOT
ATOM      1  C   UNL     1       6.996   4.358  17.316  0.00  0.00    +0.000 C 
ATOM      2  C   UNL     1       5.933   3.900  18.352  0.00  0.00    +0.000 C 
ATOM      3  N   UNL     1       4.568   4.275  17.962  0.00  0.00    +0.000 N 
ATOM      4  C   UNL     1       3.654   4.867  18.814  0.00  0.00    +0.000 A 
ATOM      5  N   UNL     1       3.190   6.053  18.515  0.00  0.00    +0.000 NA
ATOM      6  C   UNL     1       2.350   6.667  19.406  0.00  0.00    +0.000 A 
ATOM      7  C   UNL     1       1.821   6.071  20.479  0.00  0.00    +0.000 A 
ATOM      8  C   UNL     1       2.222   4.687  20.747  0.00  0.00    +0.000 A 
ATOM      9  O   UNL     1       1.642   4.076  21.639  0.00  0.00    +0.000 OA
ATOM     10  N   UNL     1       3.235   4.190  19.956  0.00  0.00    +0.000 N 
ATOM     11  C   UNL     1       3.681   2.836  20.249  0.00  0.00    +0.000 C 
ATOM     12  C   UNL     1       4.235   3.937  16.581  0.00  0.00    +0.000 C 
ATOM     13  C   UNL     1       5.325   4.409  15.606  0.00  0.00    +0.000 C 
ATOM     14  O   UNL     1       6.644   3.988  15.976  0.00  0.00    +0.000 OA
ENDROOT
BRANCH   6  15
ATOM     15  C   UNL     1       1.996   8.080  19.190  0.00  0.00    +0.000 A 
ATOM     16  C   UNL     1       1.317   8.804  20.176  0.00  0.00    +0.000 A 
ATOM     17  C   UNL     1       1.056  10.150  19.953  0.00  0.00    +0.000 A 
ATOM     18  N   UNL     1       1.425  10.814  18.835  0.00  0.00    +0.000 NA
ATOM     19  C   UNL     1       2.082  10.096  17.895  0.00  0.00    +0.000 A 
ATOM     20  C   UNL     1       2.388   8.751  18.030  0.00  0.00    +0.000 A 
ATOM     21  F   UNL     1       3.074   8.126  17.062  0.00  0.00    +0.000 F 
ENDBRANCH   6  15
BRANCH   1  25
ATOM     22  C   UNL     1       7.899   8.523  18.096  0.00  0.00    +0.000 A 
ATOM     23  C   UNL     1       8.425   7.515  18.908  0.00  0.00    +0.000 A 
ATOM     24  C   UNL     1       8.218   6.163  18.596  0.00  0.00    +0.000 A 
ATOM     25  C   UNL     1       7.480   5.795  17.463  0.00  0.00    +0.000 A 
ATOM     26  C   UNL     1       7.091   6.811  16.583  0.00  0.00    +0.000 A 
ATOM     27  C   UNL     1       7.271   8.159  16.907  0.00  0.00    +0.000 A 
BRANCH  22  30
ATOM     28  C   UNL     1       8.942  10.781  18.340  0.00  0.00    +0.000 C 
ATOM     29  O   UNL     1       9.979  10.604  17.703  0.00  0.00    +0.000 OA
ATOM     30  N   UNL     1       7.891   9.889  18.446  0.00  0.00    +0.000 N 
ATOM     31  H   UNL     1       7.082  10.236  18.953  0.00  0.00    +0.000 HD
BRANCH  28  32
ATOM     32  C   UNL     1       8.697  12.116  19.052  0.00  0.00    +0.000 C 
BRANCH  32  34
ATOM     33  C   UNL     1       7.821  14.199  18.136  0.00  0.00    +0.000 C 
ATOM     34  N   UNL     1       8.985  13.301  18.200  0.00  0.00    +0.000 NA
ATOM     35  C   UNL     1      10.108  14.042  18.801  0.00  0.00    +0.000 C 
ENDBRANCH  32  34
ENDBRANCH  28  32
ENDBRANCH  22  30
ENDBRANCH   1  25
TORSDOF 5
ENDMDL
MODEL 9
REMARK VINA RESULT:      -7.4      4.173      8.953
REMARK  Name = 
REMARK  8 active torsions:
REMARK  status: ('A' for Active; 'I' for Inactive)
REMARK    1  A    between atoms: C_1  and  N_2
REMARK    2  A    between atoms: N_2  and  C_3
REMARK    3  A    between atoms: N_2  and  C_4
REMARK    4  A    between atoms: C_4  and  C_5
REMARK    5  A    between atoms: N_7  and  C_8
REMARK    6  A    between atoms: C_11  and  C_12
REMARK    7  A    between atoms: C_17  and  C_18
REMARK    8  A    between atoms: N_28  and  C_29
REMARK                            x       y       z     vdW  Elec       q    Type
REMARK                         _______ _______ _______ _____ _____    ______ ____
ROOT
ATOM      1  C   UNL     1      -0.958  10.334  19.823  0.00  0.00    +0.000 C 
ATOM      2  C   UNL     1      -0.862  11.510  20.833  0.00  0.00    +0.000 C 
ATOM      3  N   UNL     1      -0.478  12.774  20.190  0.00  0.00    +0.000 N 
ATOM      4  C   UNL     1       0.499  13.624  20.674  0.00  0.00    +0.000 A 
ATOM      5  N   UNL     1       1.545  13.873  19.928  0.00  0.00    +0.000 NA
ATOM      6  C   UNL     1       2.547  14.649  20.449  0.00  0.00    +0.000 A 
ATOM      7  C   UNL     1       2.458  15.323  21.600  0.00  0.00    +0.000 A 
ATOM      8  C   UNL     1       1.228  15.166  22.380  0.00  0.00    +0.000 A 
ATOM      9  O   UNL     1       1.066  15.884  23.362  0.00  0.00    +0.000 OA
ATOM     10  N   UNL     1       0.347  14.207  21.930  0.00  0.00    +0.000 N 
ATOM     11  C   UNL     1      -0.852  14.003  22.727  0.00  0.00    +0.000 C 
ATOM     12  C   UNL     1      -1.249  13.084  18.989  0.00  0.00    +0.000 C 
ATOM     13  C   UNL     1      -1.314  11.882  18.034  0.00  0.00    +0.000 C 
ATOM     14  O   UNL     1      -1.741  10.670  18.669  0.00  0.00    +0.000 OA
ENDROOT
BRANCH   6  15
ATOM     15  C   UNL     1       3.817  14.756  19.713  0.00  0.00    +0.000 A 
ATOM     16  C   UNL     1       3.826  14.862  18.318  0.00  0.00    +0.000 A 
ATOM     17  C   UNL     1       5.044  15.019  17.670  0.00  0.00    +0.000 A 
ATOM     18  N   UNL     1       6.235  15.083  18.308  0.00  0.00    +0.000 NA
ATOM     19  C   UNL     1       6.203  14.981  19.656  0.00  0.00    +0.000 A 
ATOM     20  C   UNL     1       5.037  14.824  20.388  0.00  0.00    +0.000 A 
ATOM     21  F   UNL     1       5.097  14.765  21.727  0.00  0.00    +0.000 F 
ENDBRANCH   6  15
BRANCH   1  25
ATOM     22  C   UNL     1       2.440   7.894  18.694  0.00  0.00    +0.000 A 
ATOM     23  C   UNL     1       1.910   8.834  17.806  0.00  0.00    +0.000 A 
ATOM     24  C   UNL     1       0.877   9.695  18.207  0.00  0.00    +0.000 A 
ATOM     25  C   UNL     1       0.356   9.632  19.505  0.00  0.00    +0.000 A 
ATOM     26  C   UNL     1       0.999   8.792  20.423  0.00  0.00    +0.000 A 
ATOM     27  C   UNL     1       2.008   7.914  20.017  0.00  0.00    +0.000 A 
BRANCH  22  30
ATOM     28  C   UNL     1       3.012   5.553  18.035  0.00  0.00    +0.000 C 
ATOM     29  O   UNL     1       1.882   5.107  17.835  0.00  0.00    +0.000 OA
ATOM     30  N   UNL     1       3.329   6.869  18.313  0.00  0.00    +0.000 N 
ATOM     31  H   UNL     1       4.323   7.067  18.373  0.00  0.00    +0.000 HD
BRANCH  28  32
ATOM     32  C   UNL     1       4.231   4.632  17.915  0.00  0.00    +0.000 C 
BRANCH  32  34
ATOM     33  C   UNL     1       6.664   4.697  17.756  0.00  0.00    +0.000 C 
ATOM     34  N   UNL     1       5.404   5.286  17.275  0.00  0.00    +0.000 NA
ATOM     35  C   UNL     1       5.319   5.069  15.819  0.00  0.00    +0.000 C 
ENDBRANCH  32  34
ENDBRANCH  28  32
ENDBRANCH  22  30
ENDBRANCH   1  25
TORSDOF 5
ENDMDL
