MODEL 1
REMARK VINA RESULT:      -7.3      0.000      0.000
REMARK  Name = 
REMARK  7 active torsions:
REMARK  status: ('A' for Active; 'I' for Inactive)
REMARK    1  A    between atoms: C_1  and  C_2
REMARK    2  A    between atoms: C_5  and  C_6
REMARK    3  A    between atoms: C_6  and  N_7
REMARK    4  A    between atoms: C_6  and  C_17
REMARK    5  A    between atoms: N_7  and  S_8
REMARK    6  A    between atoms: S_8  and  C_11
REMARK    7  A    between atoms: N_15  and  C_16
REMARK                            x       y       z     vdW  Elec       q    Type
REMARK                         _______ _______ _______ _____ _____    ______ ____
ROOT
ATOM      1  N   UNL     1       4.138   5.700  19.576  0.00  0.00    +0.000 NA
ATOM      2  H   UNL     1       4.327   5.385  20.531  0.00  0.00    +0.000 HD
ENDROOT
BRANCH   1   3
ATOM      3  S   UNL     1       4.951   4.667  18.529  0.00  0.00    +0.000 S 
ATOM      4  O   UNL     1       5.805   3.845  19.331  0.00  0.00    +0.000 OA
ATOM      5  O   UNL     1       3.976   4.084  17.628  0.00  0.00    +0.000 OA
BRANCH   3   6
ATOM      6  C   UNL     1       6.049   5.541  17.511  0.00  0.00    +0.000 A 
ATOM      7  C   UNL     1       6.739   6.719  17.675  0.00  0.00    +0.000 A 
ATOM      8  N   UNL     1       7.570   6.936  16.617  0.00  0.00    +0.000 NA
ATOM      9  N   UNL     1       7.431   5.917  15.782  0.00  0.00    +0.000 NA
ATOM     10  N   UNL     1       6.532   5.069  16.315  0.00  0.00    +0.000 N 
ATOM     11  C   UNL     1       6.241   3.830  15.640  0.00  0.00    +0.000 C 
ENDBRANCH   3   6
ENDBRANCH   1   3
BRANCH   1  12
ATOM     12  C   UNL     1       2.657   5.883  19.392  0.00  0.00    +0.000 C 
BRANCH  12  17
ATOM     13  C   UNL     1       0.184  10.612  19.367  0.00  0.00    +0.000 C 
ATOM     14  C   UNL     1       1.169   9.518  19.161  0.00  0.00    +0.000 A 
ATOM     15  C   UNL     1       1.929   9.252  18.045  0.00  0.00    +0.000 A 
ATOM     16  N   UNL     1       2.515   8.001  18.019  0.00  0.00    +0.000 NA
ATOM     17  C   UNL     1       2.267   7.347  19.146  0.00  0.00    +0.000 A 
ATOM     18  S   UNL     1       1.482   8.320  20.348  0.00  0.00    +0.000 S 
ENDBRANCH  12  17
BRANCH  12  19
ATOM     19  C   UNL     1       2.002   5.200  20.609  0.00  0.00    +0.000 C 
ATOM     20  C   UNL     1       0.947   4.109  20.536  0.00  0.00    +0.000 C 
ATOM     21  C   UNL     1       2.330   3.772  21.016  0.00  0.00    +0.000 C 
ENDBRANCH  12  19
ENDBRANCH   1  12
TORSDOF 5
ENDMDL
MODEL 2
REMARK VINA RESULT:      -7.3      3.182      6.237
REMARK  Name = 
REMARK  7 active torsions:
REMARK  status: ('A' for Active; 'I' for Inactive)
REMARK    1  A    between atoms: C_1  and  C_2
REMARK    2  A    between atoms: C_5  and  C_6
REMARK    3  A    between atoms: C_6  and  N_7
REMARK    4  A    between atoms: C_6  and  C_17
REMARK    5  A    between atoms: N_7  and  S_8
REMARK    6  A    between atoms: S_8  and  C_11
REMARK    7  A    between atoms: N_15  and  C_16
REMARK                            x       y       z     vdW  Elec       q    Type
REMARK                         _______ _______ _______ _____ _____    ______ ____
ROOT
ATOM      1  N   UNL     1       5.995   3.939  18.134  0.00  0.00    +0.000 NA
ATOM      2  H   UNL     1       6.790   3.513  18.618  0.00  0.00    +0.000 HD
ENDROOT
BRANCH   1   3
ATOM      3  S   UNL     1       4.747   4.097  19.248  0.00  0.00    +0.000 S 
ATOM      4  O   UNL     1       4.900   3.041  20.201  0.00  0.00    +0.000 OA
ATOM      5  O   UNL     1       4.692   5.484  19.665  0.00  0.00    +0.000 OA
BRANCH   3   6
ATOM      6  C   UNL     1       3.208   3.777  18.516  0.00  0.00    +0.000 A 
ATOM      7  C   UNL     1       2.170   4.592  18.129  0.00  0.00    +0.000 A 
ATOM      8  N   UNL     1       1.206   3.867  17.494  0.00  0.00    +0.000 NA
ATOM      9  N   UNL     1       1.610   2.606  17.461  0.00  0.00    +0.000 NA
ATOM     10  N   UNL     1       2.814   2.544  18.059  0.00  0.00    +0.000 N 
ATOM     11  C   UNL     1       3.520   1.289  18.099  0.00  0.00    +0.000 C 
ENDBRANCH   3   6
ENDBRANCH   1   3
BRANCH   1  12
ATOM     12  C   UNL     1       6.457   5.168  17.399  0.00  0.00    +0.000 C 
BRANCH  12  17
ATOM     13  C   UNL     1       5.927   3.240  12.450  0.00  0.00    +0.000 C 
ATOM     14  C   UNL     1       6.229   4.114  13.614  0.00  0.00    +0.000 A 
ATOM     15  C   UNL     1       7.316   4.935  13.806  0.00  0.00    +0.000 A 
ATOM     16  N   UNL     1       7.493   5.381  15.102  0.00  0.00    +0.000 NA
ATOM     17  C   UNL     1       6.501   4.965  15.878  0.00  0.00    +0.000 A 
ATOM     18  S   UNL     1       5.222   4.188  15.001  0.00  0.00    +0.000 S 
ENDBRANCH  12  17
BRANCH  12  19
ATOM     19  C   UNL     1       7.782   5.577  18.069  0.00  0.00    +0.000 C 
ATOM     20  C   UNL     1       8.117   6.977  18.559  0.00  0.00    +0.000 C 
ATOM     21  C   UNL     1       7.883   5.878  19.557  0.00  0.00    +0.000 C 
ENDBRANCH  12  19
ENDBRANCH   1  12
TORSDOF 5
ENDMDL
MODEL 3
REMARK VINA RESULT:      -7.2      1.321      1.963
REMARK  Name = 
REMARK  7 active torsions:
REMARK  status: ('A' for Active; 'I' for Inactive)
REMARK    1  A    between atoms: C_1  and  C_2
REMARK    2  A    between atoms: C_5  and  C_6
REMARK    3  A    between atoms: C_6  and  N_7
REMARK    4  A    between atoms: C_6  and  C_17
REMARK    5  A    between atoms: N_7  and  S_8
REMARK    6  A    between atoms: S_8  and  C_11
REMARK    7  A    between atoms: N_15  and  C_16
REMARK                            x       y       z     vdW  Elec       q    Type
REMARK                         _______ _______ _______ _____ _____    ______ ____
ROOT
ATOM      1  N   UNL     1       4.426   5.728  19.511  0.00  0.00    +0.000 NA
ATOM      2  H   UNL     1       3.971   5.305  20.325  0.00  0.00    +0.000 HD
ENDROOT
BRANCH   1   3
ATOM      3  S   UNL     1       5.791   4.813  19.159  0.00  0.00    +0.000 S 
ATOM      4  O   UNL     1       6.896   5.436  19.822  0.00  0.00    +0.000 OA
ATOM      5  O   UNL     1       5.467   3.418  19.386  0.00  0.00    +0.000 OA
BRANCH   3   6
ATOM      6  C   UNL     1       6.201   4.919  17.477  0.00  0.00    +0.000 A 
ATOM      7  C   UNL     1       6.025   4.063  16.416  0.00  0.00    +0.000 A 
ATOM      8  N   UNL     1       6.427   4.652  15.256  0.00  0.00    +0.000 NA
ATOM      9  N   UNL     1       6.852   5.871  15.552  0.00  0.00    +0.000 NA
ATOM     10  N   UNL     1       6.708   6.046  16.878  0.00  0.00    +0.000 N 
ATOM     11  C   UNL     1       7.033   7.322  17.463  0.00  0.00    +0.000 C 
ENDBRANCH   3   6
ENDBRANCH   1   3
BRANCH   1  12
ATOM     12  C   UNL     1       3.409   5.942  18.424  0.00  0.00    +0.000 C 
BRANCH  12  17
ATOM     13  C   UNL     1       0.118  10.004  19.499  0.00  0.00    +0.000 C 
ATOM     14  C   UNL     1       1.266   9.187  19.024  0.00  0.00    +0.000 A 
ATOM     15  C   UNL     1       1.961   9.298  17.841  0.00  0.00    +0.000 A 
ATOM     16  N   UNL     1       2.763   8.217  17.529  0.00  0.00    +0.000 NA
ATOM     17  C   UNL     1       2.738   7.320  18.506  0.00  0.00    +0.000 A 
ATOM     18  S   UNL     1       1.895   7.867  19.919  0.00  0.00    +0.000 S 
ENDBRANCH  12  17
BRANCH  12  19
ATOM     19  C   UNL     1       2.470   4.723  18.490  0.00  0.00    +0.000 C 
ATOM     20  C   UNL     1       1.299   4.470  17.554  0.00  0.00    +0.000 C 
ATOM     21  C   UNL     1       2.520   3.599  17.467  0.00  0.00    +0.000 C 
ENDBRANCH  12  19
ENDBRANCH   1  12
TORSDOF 5
ENDMDL
MODEL 4
REMARK VINA RESULT:      -7.2      2.621      5.929
REMARK  Name = 
REMARK  7 active torsions:
REMARK  status: ('A' for Active; 'I' for Inactive)
REMARK    1  A    between atoms: C_1  and  C_2
REMARK    2  A    between atoms: C_5  and  C_6
REMARK    3  A    between atoms: C_6  and  N_7
REMARK    4  A    between atoms: C_6  and  C_17
REMARK    5  A    between atoms: N_7  and  S_8
REMARK    6  A    between atoms: S_8  and  C_11
REMARK    7  A    between atoms: N_15  and  C_16
REMARK                            x       y       z     vdW  Elec       q    Type
REMARK                         _______ _______ _______ _____ _____    ______ ____
ROOT
ATOM      1  N   UNL     1       4.172   4.240  16.652  0.00  0.00    +0.000 NA
ATOM      2  H   UNL     1       3.827   3.914  15.745  0.00  0.00    +0.000 HD
ENDROOT
BRANCH   1   3
ATOM      3  S   UNL     1       3.161   3.609  17.837  0.00  0.00    +0.000 S 
ATOM      4  O   UNL     1       1.937   3.243  17.193  0.00  0.00    +0.000 OA
ATOM      5  O   UNL     1       3.923   2.645  18.608  0.00  0.00    +0.000 OA
BRANCH   3   6
ATOM      6  C   UNL     1       2.686   4.830  18.972  0.00  0.00    +0.000 A 
ATOM      7  C   UNL     1       2.896   6.188  19.027  0.00  0.00    +0.000 A 
ATOM      8  N   UNL     1       2.219   6.733  20.077  0.00  0.00    +0.000 NA
ATOM      9  N   UNL     1       1.576   5.752  20.692  0.00  0.00    +0.000 NA
ATOM     10  N   UNL     1       1.838   4.610  20.030  0.00  0.00    +0.000 N 
ATOM     11  C   UNL     1       1.202   3.387  20.449  0.00  0.00    +0.000 C 
ENDBRANCH   3   6
ENDBRANCH   1   3
BRANCH   1  12
ATOM     12  C   UNL     1       5.648   3.970  16.753  0.00  0.00    +0.000 C 
BRANCH  12  17
ATOM     13  C   UNL     1       8.154   8.530  17.942  0.00  0.00    +0.000 C 
ATOM     14  C   UNL     1       7.516   7.190  18.029  0.00  0.00    +0.000 A 
ATOM     15  C   UNL     1       7.929   6.093  18.750  0.00  0.00    +0.000 A 
ATOM     16  N   UNL     1       7.329   4.899  18.397  0.00  0.00    +0.000 NA
ATOM     17  C   UNL     1       6.407   5.098  17.464  0.00  0.00    +0.000 A 
ATOM     18  S   UNL     1       6.109   6.776  17.140  0.00  0.00    +0.000 S 
ENDBRANCH  12  17
BRANCH  12  19
ATOM     19  C   UNL     1       6.107   3.640  15.320  0.00  0.00    +0.000 C 
ATOM     20  C   UNL     1       5.550   4.274  14.056  0.00  0.00    +0.000 C 
ATOM     21  C   UNL     1       6.950   4.598  14.493  0.00  0.00    +0.000 C 
ENDBRANCH  12  19
ENDBRANCH   1  12
TORSDOF 5
ENDMDL
MODEL 5
REMARK VINA RESULT:      -7.2      3.140      6.607
REMARK  Name = 
REMARK  7 active torsions:
REMARK  status: ('A' for Active; 'I' for Inactive)
REMARK    1  A    between atoms: C_1  and  C_2
REMARK    2  A    between atoms: C_5  and  C_6
REMARK    3  A    between atoms: C_6  and  N_7
REMARK    4  A    between atoms: C_6  and  C_17
REMARK    5  A    between atoms: N_7  and  S_8
REMARK    6  A    between atoms: S_8  and  C_11
REMARK    7  A    between atoms: N_15  and  C_16
REMARK                            x       y       z     vdW  Elec       q    Type
REMARK                         _______ _______ _______ _____ _____    ______ ____
ROOT
ATOM      1  N   UNL     1       5.378   3.915  17.815  0.00  0.00    +0.000 NA
ATOM      2  H   UNL     1       5.910   3.503  18.587  0.00  0.00    +0.000 HD
ENDROOT
BRANCH   1   3
ATOM      3  S   UNL     1       3.823   4.219  18.374  0.00  0.00    +0.000 S 
ATOM      4  O   UNL     1       3.793   5.581  18.812  0.00  0.00    +0.000 OA
ATOM      5  O   UNL     1       2.886   3.727  17.382  0.00  0.00    +0.000 OA
BRANCH   3   6
ATOM      6  C   UNL     1       3.485   3.311  19.813  0.00  0.00    +0.000 A 
ATOM      7  C   UNL     1       4.195   2.361  20.507  0.00  0.00    +0.000 A 
ATOM      8  N   UNL     1       3.542   2.018  21.652  0.00  0.00    +0.000 NA
ATOM      9  N   UNL     1       2.429   2.735  21.708  0.00  0.00    +0.000 NA
ATOM     10  N   UNL     1       2.392   3.522  20.617  0.00  0.00    +0.000 N 
ATOM     11  C   UNL     1       1.313   4.463  20.460  0.00  0.00    +0.000 C 
ENDBRANCH   3   6
ENDBRANCH   1   3
BRANCH   1  12
ATOM     12  C   UNL     1       6.159   5.055  17.221  0.00  0.00    +0.000 C 
BRANCH  12  17
ATOM     13  C   UNL     1       6.255   3.249  12.200  0.00  0.00    +0.000 C 
ATOM     14  C   UNL     1       6.413   4.092  13.415  0.00  0.00    +0.000 A 
ATOM     15  C   UNL     1       7.475   4.894  13.766  0.00  0.00    +0.000 A 
ATOM     16  N   UNL     1       7.487   5.307  15.084  0.00  0.00    +0.000 NA
ATOM     17  C   UNL     1       6.398   4.887  15.714  0.00  0.00    +0.000 A 
ATOM     18  S   UNL     1       5.236   4.148  14.660  0.00  0.00    +0.000 S 
ENDBRANCH  12  17
BRANCH  12  19
ATOM     19  C   UNL     1       7.418   5.195  18.098  0.00  0.00    +0.000 C 
ATOM     20  C   UNL     1       7.992   6.511  18.599  0.00  0.00    +0.000 C 
ATOM     21  C   UNL     1       7.347   5.565  19.572  0.00  0.00    +0.000 C 
ENDBRANCH  12  19
ENDBRANCH   1  12
TORSDOF 5
ENDMDL
MODEL 6
REMARK VINA RESULT:      -7.1      1.558      2.173
REMARK  Name = 
REMARK  7 active torsions:
REMARK  status: ('A' for Active; 'I' for Inactive)
REMARK    1  A    between atoms: C_1  and  C_2
REMARK    2  A    between atoms: C_5  and  C_6
REMARK    3  A    between atoms: C_6  and  N_7
REMARK    4  A    between atoms: C_6  and  C_17
REMARK    5  A    between atoms: N_7  and  S_8
REMARK    6  A    between atoms: S_8  and  C_11
REMARK    7  A    between atoms: N_15  and  C_16
REMARK                            x       y       z     vdW  Elec       q    Type
REMARK                         _______ _______ _______ _____ _____    ______ ____
ROOT
ATOM      1  N   UNL     1       4.683   5.848  19.571  0.00  0.00    +0.000 NA
ATOM      2  H   UNL     1       4.305   5.565  20.479  0.00  0.00    +0.000 HD
ENDROOT
BRANCH   1   3
ATOM      3  S   UNL     1       5.962   4.821  19.209  0.00  0.00    +0.000 S 
ATOM      4  O   UNL     1       7.099   5.293  19.940  0.00  0.00    +0.000 OA
ATOM      5  O   UNL     1       5.493   3.456  19.348  0.00  0.00    +0.000 OA
BRANCH   3   6
ATOM      6  C   UNL     1       6.441   4.974  17.549  0.00  0.00    +0.000 A 
ATOM      7  C   UNL     1       6.245   4.182  16.443  0.00  0.00    +0.000 A 
ATOM      8  N   UNL     1       6.730   4.794  15.327  0.00  0.00    +0.000 NA
ATOM      9  N   UNL     1       7.228   5.964  15.695  0.00  0.00    +0.000 NA
ATOM     10  N   UNL     1       7.048   6.088  17.023  0.00  0.00    +0.000 N 
ATOM     11  C   UNL     1       7.439   7.309  17.679  0.00  0.00    +0.000 C 
ENDBRANCH   3   6
ENDBRANCH   1   3
BRANCH   1  12
ATOM     12  C   UNL     1       3.560   5.969  18.577  0.00  0.00    +0.000 C 
BRANCH  12  17
ATOM     13  C   UNL     1       1.220  10.764  18.724  0.00  0.00    +0.000 C 
ATOM     14  C   UNL     1       1.532   9.323  18.920  0.00  0.00    +0.000 A 
ATOM     15  C   UNL     1       1.372   8.562  20.056  0.00  0.00    +0.000 A 
ATOM     16  N   UNL     1       2.034   7.349  20.046  0.00  0.00    +0.000 NA
ATOM     17  C   UNL     1       2.630   7.152  18.878  0.00  0.00    +0.000 A 
ATOM     18  S   UNL     1       2.230   8.352  17.691  0.00  0.00    +0.000 S 
ENDBRANCH  12  17
BRANCH  12  19
ATOM     19  C   UNL     1       2.899   4.578  18.529  0.00  0.00    +0.000 C 
ATOM     20  C   UNL     1       1.521   4.286  17.959  0.00  0.00    +0.000 C 
ATOM     21  C   UNL     1       2.742   3.795  17.235  0.00  0.00    +0.000 C 
ENDBRANCH  12  19
ENDBRANCH   1  12
TORSDOF 5
ENDMDL
MODEL 7
REMARK VINA RESULT:      -7.1      0.600      1.267
REMARK  Name = 
REMARK  7 active torsions:
REMARK  status: ('A' for Active; 'I' for Inactive)
REMARK    1  A    between atoms: C_1  and  C_2
REMARK    2  A    between atoms: C_5  and  C_6
REMARK    3  A    between atoms: C_6  and  N_7
REMARK    4  A    between atoms: C_6  and  C_17
REMARK    5  A    between atoms: N_7  and  S_8
REMARK    6  A    between atoms: S_8  and  C_11
REMARK    7  A    between atoms: N_15  and  C_16
REMARK                            x       y       z     vdW  Elec       q    Type
REMARK                         _______ _______ _______ _____ _____    ______ ____
ROOT
ATOM      1  N   UNL     1       4.262   5.634  19.202  0.00  0.00    +0.000 NA
ATOM      2  H   UNL     1       4.589   5.539  20.167  0.00  0.00    +0.000 HD
ENDROOT
BRANCH   1   3
ATOM      3  S   UNL     1       4.915   4.365  18.316  0.00  0.00    +0.000 S 
ATOM      4  O   UNL     1       5.766   3.629  19.201  0.00  0.00    +0.000 OA
ATOM      5  O   UNL     1       3.835   3.716  17.599  0.00  0.00    +0.000 OA
BRANCH   3   6
ATOM      6  C   UNL     1       5.995   4.946  17.089  0.00  0.00    +0.000 A 
ATOM      7  C   UNL     1       5.985   4.858  15.717  0.00  0.00    +0.000 A 
ATOM      8  N   UNL     1       7.011   5.578  15.185  0.00  0.00    +0.000 NA
ATOM      9  N   UNL     1       7.676   6.131  16.189  0.00  0.00    +0.000 NA
ATOM     10  N   UNL     1       7.067   5.769  17.334  0.00  0.00    +0.000 N 
ATOM     11  C   UNL     1       7.547   6.292  18.587  0.00  0.00    +0.000 C 
ENDBRANCH   3   6
ENDBRANCH   1   3
BRANCH   1  12
ATOM     12  C   UNL     1       2.769   5.816  19.195  0.00  0.00    +0.000 C 
BRANCH  12  17
ATOM     13  C   UNL     1       0.217  10.503  19.261  0.00  0.00    +0.000 C 
ATOM     14  C   UNL     1       1.218   9.429  19.030  0.00  0.00    +0.000 A 
ATOM     15  C   UNL     1       1.972   9.192  17.903  0.00  0.00    +0.000 A 
ATOM     16  N   UNL     1       2.579   7.951  17.854  0.00  0.00    +0.000 NA
ATOM     17  C   UNL     1       2.353   7.277  18.974  0.00  0.00    +0.000 A 
ATOM     18  S   UNL     1       1.563   8.220  20.196  0.00  0.00    +0.000 S 
ENDBRANCH  12  17
BRANCH  12  19
ATOM     19  C   UNL     1       2.266   5.155  20.492  0.00  0.00    +0.000 C 
ATOM     20  C   UNL     1       1.026   4.283  20.604  0.00  0.00    +0.000 C 
ATOM     21  C   UNL     1       2.386   3.659  20.744  0.00  0.00    +0.000 C 
ENDBRANCH  12  19
ENDBRANCH   1  12
TORSDOF 5
ENDMDL
MODEL 8
REMARK VINA RESULT:      -7.1      1.009      1.655
REMARK  Name = 
REMARK  7 active torsions:
REMARK  status: ('A' for Active; 'I' for Inactive)
REMARK    1  A    between atoms: C_1  and  C_2
REMARK    2  A    between atoms: C_5  and  C_6
REMARK    3  A    between atoms: C_6  and  N_7
REMARK    4  A    between atoms: C_6  and  C_17
REMARK    5  A    between atoms: N_7  and  S_8
REMARK    6  A    between atoms: S_8  and  C_11
REMARK    7  A    between atoms: N_15  and  C_16
REMARK                            x       y       z     vdW  Elec       q    Type
REMARK                         _______ _______ _______ _____ _____    ______ ____
ROOT
ATOM      1  N   UNL     1       4.548   5.595  19.860  0.00  0.00    +0.000 NA
ATOM      2  H   UNL     1       4.593   5.373  20.858  0.00  0.00    +0.000 HD
ENDROOT
BRANCH   1   3
ATOM      3  S   UNL     1       5.628   4.583  19.064  0.00  0.00    +0.000 S 
ATOM      4  O   UNL     1       6.946   4.990  19.448  0.00  0.00    +0.000 OA
ATOM      5  O   UNL     1       5.181   3.216  19.250  0.00  0.00    +0.000 OA
BRANCH   3   6
ATOM      6  C   UNL     1       5.592   4.847  17.351  0.00  0.00    +0.000 A 
ATOM      7  C   UNL     1       5.120   4.098  16.299  0.00  0.00    +0.000 A 
ATOM      8  N   UNL     1       5.226   4.794  15.133  0.00  0.00    +0.000 NA
ATOM      9  N   UNL     1       5.751   5.976  15.417  0.00  0.00    +0.000 NA
ATOM     10  N   UNL     1       5.962   6.023  16.746  0.00  0.00    +0.000 N 
ATOM     11  C   UNL     1       6.467   7.235  17.339  0.00  0.00    +0.000 C 
ENDBRANCH   3   6
ENDBRANCH   1   3
BRANCH   1  12
ATOM     12  C   UNL     1       3.113   5.602  19.412  0.00  0.00    +0.000 C 
BRANCH  12  17
ATOM     13  C   UNL     1       0.279  10.098  18.924  0.00  0.00    +0.000 C 
ATOM     14  C   UNL     1       1.353   9.074  18.836  0.00  0.00    +0.000 A 
ATOM     15  C   UNL     1       2.166   8.779  17.766  0.00  0.00    +0.000 A 
ATOM     16  N   UNL     1       2.849   7.581  17.861  0.00  0.00    +0.000 NA
ATOM     17  C   UNL     1       2.618   7.004  19.033  0.00  0.00    +0.000 A 
ATOM     18  S   UNL     1       1.721   8.007  20.128  0.00  0.00    +0.000 S 
ENDBRANCH  12  17
BRANCH  12  19
ATOM     19  C   UNL     1       2.329   4.882  20.527  0.00  0.00    +0.000 C 
ATOM     20  C   UNL     1       0.916   4.339  20.390  0.00  0.00    +0.000 C 
ATOM     21  C   UNL     1       2.070   3.384  20.503  0.00  0.00    +0.000 C 
ENDBRANCH  12  19
ENDBRANCH   1  12
TORSDOF 5
ENDMDL
MODEL 9
REMARK VINA RESULT:      -7.1      3.490      6.597
REMARK  Name = 
REMARK  7 active torsions:
REMARK  status: ('A' for Active; 'I' for Inactive)
REMARK    1  A    between atoms: C_1  and  C_2
REMARK    2  A    between atoms: C_5  and  C_6
REMARK    3  A    between atoms: C_6  and  N_7
REMARK    4  A    between atoms: C_6  and  C_17
REMARK    5  A    between atoms: N_7  and  S_8
REMARK    6  A    between atoms: S_8  and  C_11
REMARK    7  A    between atoms: N_15  and  C_16
REMARK                            x       y       z     vdW  Elec       q    Type
REMARK                         _______ _______ _______ _____ _____    ______ ____
ROOT
ATOM      1  N   UNL     1       5.393   3.675  17.862  0.00  0.00    +0.000 NA
ATOM      2  H   UNL     1       6.071   2.928  18.035  0.00  0.00    +0.000 HD
ENDROOT
BRANCH   1   3
ATOM      3  S   UNL     1       4.451   3.836  19.245  0.00  0.00    +0.000 S 
ATOM      4  O   UNL     1       4.974   2.926  20.217  0.00  0.00    +0.000 OA
ATOM      5  O   UNL     1       4.318   5.251  19.534  0.00  0.00    +0.000 OA
BRANCH   3   6
ATOM      6  C   UNL     1       2.834   3.271  18.972  0.00  0.00    +0.000 A 
ATOM      7  C   UNL     1       2.231   2.640  17.910  0.00  0.00    +0.000 A 
ATOM      8  N   UNL     1       0.950   2.298  18.223  0.00  0.00    +0.000 NA
ATOM      9  N   UNL     1       0.722   2.693  19.467  0.00  0.00    +0.000 NA
ATOM     10  N   UNL     1       1.849   3.265  19.929  0.00  0.00    +0.000 N 
ATOM     11  C   UNL     1       1.901   3.725  21.293  0.00  0.00    +0.000 C 
ENDBRANCH   3   6
ENDBRANCH   1   3
BRANCH   1  12
ATOM     12  C   UNL     1       6.108   4.890  17.340  0.00  0.00    +0.000 C 
BRANCH  12  17
ATOM     13  C   UNL     1       6.315   3.390  12.222  0.00  0.00    +0.000 C 
ATOM     14  C   UNL     1       6.404   4.174  13.482  0.00  0.00    +0.000 A 
ATOM     15  C   UNL     1       7.387   5.056  13.870  0.00  0.00    +0.000 A 
ATOM     16  N   UNL     1       7.376   5.393  15.210  0.00  0.00    +0.000 NA
ATOM     17  C   UNL     1       6.342   4.832  15.824  0.00  0.00    +0.000 A 
ATOM     18  S   UNL     1       5.245   4.042  14.738  0.00  0.00    +0.000 S 
ENDBRANCH  12  17
BRANCH  12  19
ATOM     19  C   UNL     1       7.366   5.039  18.217  0.00  0.00    +0.000 C 
ATOM     20  C   UNL     1       8.084   6.348  18.501  0.00  0.00    +0.000 C 
ATOM     21  C   UNL     1       7.323   5.666  19.602  0.00  0.00    +0.000 C 
ENDBRANCH  12  19
ENDBRANCH   1  12
TORSDOF 5
ENDMDL
