MODEL 1
REMARK VINA RESULT:      -6.3      0.000      0.000
REMARK  Name = 
REMARK  1 active torsions:
REMARK  status: ('A' for Active; 'I' for Inactive)
REMARK    1  A    between atoms: C_5  and  C_6
REMARK                            x       y       z     vdW  Elec       q    Type
REMARK                         _______ _______ _______ _____ _____    ______ ____
ROOT
ATOM      1  C   UNL     1       7.117  15.239  21.545  0.00  0.00    +0.000 A 
ATOM      2  C   UNL     1       6.162  16.113  22.043  0.00  0.00    +0.000 A 
ATOM      3  S   UNL     1       5.257  15.460  23.324  0.00  0.00    +0.000 S 
ATOM      4  C   UNL     1       6.078  13.976  23.212  0.00  0.00    +0.000 A 
ATOM      5  N   UNL     1       5.674  12.962  23.993  0.00  0.00    +0.000 NA
ATOM      6  C   UNL     1       6.368  11.853  23.776  0.00  0.00    +0.000 A 
ATOM      7  N   UNL     1       7.403  11.699  22.942  0.00  0.00    +0.000 NA
ATOM      8  C   UNL     1       7.837  12.746  22.185  0.00  0.00    +0.000 A 
ATOM      9  N   UNL     1       8.900  12.519  21.314  0.00  0.00    +0.000 N 
ATOM     10  C   UNL     1       8.996  11.154  20.768  0.00  0.00    +0.000 C 
ATOM     11  C   UNL     1      10.352  10.833  20.130  0.00  0.00    +0.000 C 
ATOM     12  C   UNL     1      10.975  12.047  19.502  0.00  0.00    +0.000 A 
ATOM     13  C   UNL     1      11.574  12.007  18.237  0.00  0.00    +0.000 A 
ATOM     14  C   UNL     1      12.174  13.152  17.718  0.00  0.00    +0.000 A 
ATOM     15  C   UNL     1      12.236  14.313  18.490  0.00  0.00    +0.000 A 
ATOM     16  C   UNL     1      11.643  14.354  19.757  0.00  0.00    +0.000 A 
ATOM     17  C   UNL     1      10.960  13.234  20.253  0.00  0.00    +0.000 A 
ATOM     18  C   UNL     1      10.146  13.267  21.533  0.00  0.00    +0.000 C 
ATOM     19  C   UNL     1       7.105  13.966  22.270  0.00  0.00    +0.000 A 
ENDROOT
BRANCH   1  24
ATOM     20 CL   UNL     1      10.383  16.961  16.813  0.00  0.00    +0.000 Cl
ATOM     21  C   UNL     1       9.416  16.490  18.156  0.00  0.00    +0.000 A 
ATOM     22  C   UNL     1       9.521  17.181  19.358  0.00  0.00    +0.000 A 
ATOM     23  C   UNL     1       8.775  16.764  20.466  0.00  0.00    +0.000 A 
ATOM     24  C   UNL     1       7.908  15.662  20.381  0.00  0.00    +0.000 A 
ATOM     25  C   UNL     1       7.792  15.002  19.152  0.00  0.00    +0.000 A 
ATOM     26  C   UNL     1       8.556  15.401  18.049  0.00  0.00    +0.000 A 
ENDBRANCH   1  24
TORSDOF 1
ENDMDL
MODEL 2
REMARK VINA RESULT:      -6.3      1.286      1.592
REMARK  Name = 
REMARK  1 active torsions:
REMARK  status: ('A' for Active; 'I' for Inactive)
REMARK    1  A    between atoms: C_5  and  C_6
REMARK                            x       y       z     vdW  Elec       q    Type
REMARK                         _______ _______ _______ _____ _____    ______ ____
ROOT
ATOM      1  C   UNL     1       8.579  15.136  22.471  0.00  0.00    +0.000 A 
ATOM      2  C   UNL     1       8.087  16.053  23.388  0.00  0.00    +0.000 A 
ATOM      3  S   UNL     1       7.388  15.328  24.755  0.00  0.00    +0.000 S 
ATOM      4  C   UNL     1       7.673  13.771  24.136  0.00  0.00    +0.000 A 
ATOM      5  N   UNL     1       7.198  12.716  24.816  0.00  0.00    +0.000 NA
ATOM      6  C   UNL     1       7.451  11.568  24.203  0.00  0.00    +0.000 A 
ATOM      7  N   UNL     1       8.145  11.392  23.072  0.00  0.00    +0.000 NA
ATOM      8  C   UNL     1       8.662  12.465  22.411  0.00  0.00    +0.000 A 
ATOM      9  N   UNL     1       9.351  12.225  21.223  0.00  0.00    +0.000 N 
ATOM     10  C   UNL     1       8.893  11.059  20.448  0.00  0.00    +0.000 C 
ATOM     11  C   UNL     1       9.883  10.602  19.370  0.00  0.00    +0.000 C 
ATOM     12  C   UNL     1      10.656  11.754  18.797  0.00  0.00    +0.000 A 
ATOM     13  C   UNL     1      10.873  11.896  17.422  0.00  0.00    +0.000 A 
ATOM     14  C   UNL     1      11.633  12.963  16.947  0.00  0.00    +0.000 A 
ATOM     15  C   UNL     1      12.233  13.843  17.848  0.00  0.00    +0.000 A 
ATOM     16  C   UNL     1      12.022  13.700  19.224  0.00  0.00    +0.000 A 
ATOM     17  C   UNL     1      11.187  12.683  19.709  0.00  0.00    +0.000 A 
ATOM     18  C   UNL     1      10.776  12.579  21.165  0.00  0.00    +0.000 C 
ATOM     19  C   UNL     1       8.374  13.761  22.931  0.00  0.00    +0.000 A 
ENDROOT
BRANCH   1  24
ATOM     20 CL   UNL     1      10.814  17.221  17.306  0.00  0.00    +0.000 Cl
ATOM     21  C   UNL     1      10.199  16.593  18.784  0.00  0.00    +0.000 A 
ATOM     22  C   UNL     1       9.048  15.811  18.776  0.00  0.00    +0.000 A 
ATOM     23  C   UNL     1       8.516  15.345  19.982  0.00  0.00    +0.000 A 
ATOM     24  C   UNL     1       9.135  15.642  21.209  0.00  0.00    +0.000 A 
ATOM     25  C   UNL     1      10.310  16.402  21.192  0.00  0.00    +0.000 A 
ATOM     26  C   UNL     1      10.831  16.891  19.988  0.00  0.00    +0.000 A 
ENDBRANCH   1  24
TORSDOF 1
ENDMDL
MODEL 3
REMARK VINA RESULT:      -6.3     11.460     14.475
REMARK  Name = 
REMARK  1 active torsions:
REMARK  status: ('A' for Active; 'I' for Inactive)
REMARK    1  A    between atoms: C_5  and  C_6
REMARK                            x       y       z     vdW  Elec       q    Type
REMARK                         _______ _______ _______ _____ _____    ______ ____
ROOT
ATOM      1  C   UNL     1      -2.172  12.748  20.092  0.00  0.00    +0.000 A 
ATOM      2  C   UNL     1      -0.857  12.810  19.656  0.00  0.00    +0.000 A 
ATOM      3  S   UNL     1      -0.640  12.202  18.084  0.00  0.00    +0.000 S 
ATOM      4  C   UNL     1      -2.285  11.791  17.964  0.00  0.00    +0.000 A 
ATOM      5  N   UNL     1      -2.700  11.131  16.872  0.00  0.00    +0.000 NA
ATOM      6  C   UNL     1      -3.992  10.835  16.925  0.00  0.00    +0.000 A 
ATOM      7  N   UNL     1      -4.859  11.172  17.887  0.00  0.00    +0.000 NA
ATOM      8  C   UNL     1      -4.439  11.881  18.972  0.00  0.00    +0.000 A 
ATOM      9  N   UNL     1      -5.379  12.179  19.956  0.00  0.00    +0.000 N 
ATOM     10  C   UNL     1      -6.461  11.193  20.121  0.00  0.00    +0.000 C 
ATOM     11  C   UNL     1      -7.660  11.713  20.923  0.00  0.00    +0.000 C 
ATOM     12  C   UNL     1      -7.243  12.703  21.972  0.00  0.00    +0.000 A 
ATOM     13  C   UNL     1      -7.750  12.664  23.276  0.00  0.00    +0.000 A 
ATOM     14  C   UNL     1      -7.359  13.632  24.200  0.00  0.00    +0.000 A 
ATOM     15  C   UNL     1      -6.522  14.674  23.801  0.00  0.00    +0.000 A 
ATOM     16  C   UNL     1      -6.019  14.718  22.496  0.00  0.00    +0.000 A 
ATOM     17  C   UNL     1      -6.334  13.702  21.583  0.00  0.00    +0.000 A 
ATOM     18  C   UNL     1      -5.685  13.593  20.216  0.00  0.00    +0.000 C 
ATOM     19  C   UNL     1      -3.047  12.177  19.066  0.00  0.00    +0.000 A 
ENDROOT
BRANCH   1  24
ATOM     20 CL   UNL     1      -3.417  14.502  25.695  0.00  0.00    +0.000 Cl
ATOM     21  C   UNL     1      -3.024  13.987  24.102  0.00  0.00    +0.000 A 
ATOM     22  C   UNL     1      -2.524  14.904  23.183  0.00  0.00    +0.000 A 
ATOM     23  C   UNL     1      -2.255  14.499  21.872  0.00  0.00    +0.000 A 
ATOM     24  C   UNL     1      -2.470  13.170  21.467  0.00  0.00    +0.000 A 
ATOM     25  C   UNL     1      -2.942  12.256  22.416  0.00  0.00    +0.000 A 
ATOM     26  C   UNL     1      -3.236  12.665  23.723  0.00  0.00    +0.000 A 
ENDBRANCH   1  24
TORSDOF 1
ENDMDL
MODEL 4
REMARK VINA RESULT:      -6.2      2.045      4.193
REMARK  Name = 
REMARK  1 active torsions:
REMARK  status: ('A' for Active; 'I' for Inactive)
REMARK    1  A    between atoms: C_5  and  C_6
REMARK                            x       y       z     vdW  Elec       q    Type
REMARK                         _______ _______ _______ _____ _____    ______ ____
ROOT
ATOM      1  C   UNL     1       7.716  12.478  22.685  0.00  0.00    +0.000 A 
ATOM      2  C   UNL     1       7.486  11.511  23.652  0.00  0.00    +0.000 A 
ATOM      3  S   UNL     1       6.204  11.897  24.697  0.00  0.00    +0.000 S 
ATOM      4  C   UNL     1       5.956  13.389  23.922  0.00  0.00    +0.000 A 
ATOM      5  N   UNL     1       5.045  14.231  24.434  0.00  0.00    +0.000 NA
ATOM      6  C   UNL     1       4.983  15.372  23.761  0.00  0.00    +0.000 A 
ATOM      7  N   UNL     1       5.666  15.698  22.657  0.00  0.00    +0.000 NA
ATOM      8  C   UNL     1       6.556  14.818  22.117  0.00  0.00    +0.000 A 
ATOM      9  N   UNL     1       7.260  15.222  20.984  0.00  0.00    +0.000 N 
ATOM     10  C   UNL     1       7.531  16.667  20.885  0.00  0.00    +0.000 C 
ATOM     11  C   UNL     1       7.959  17.124  19.485  0.00  0.00    +0.000 C 
ATOM     12  C   UNL     1       8.736  16.061  18.764  0.00  0.00    +0.000 A 
ATOM     13  C   UNL     1       9.904  16.347  18.048  0.00  0.00    +0.000 A 
ATOM     14  C   UNL     1      10.564  15.329  17.363  0.00  0.00    +0.000 A 
ATOM     15  C   UNL     1      10.018  14.046  17.334  0.00  0.00    +0.000 A 
ATOM     16  C   UNL     1       8.847  13.758  18.043  0.00  0.00    +0.000 A 
ATOM     17  C   UNL     1       8.223  14.753  18.809  0.00  0.00    +0.000 A 
ATOM     18  C   UNL     1       7.059  14.468  19.739  0.00  0.00    +0.000 C 
ATOM     19  C   UNL     1       6.773  13.592  22.811  0.00  0.00    +0.000 A 
ENDROOT
BRANCH   1  24
ATOM     20 CL   UNL     1      12.333  11.724  18.926  0.00  0.00    +0.000 Cl
ATOM     21  C   UNL     1      11.032  11.925  20.033  0.00  0.00    +0.000 A 
ATOM     22  C   UNL     1      10.044  10.950  20.122  0.00  0.00    +0.000 A 
ATOM     23  C   UNL     1       8.958  11.138  20.982  0.00  0.00    +0.000 A 
ATOM     24  C   UNL     1       8.852  12.295  21.773  0.00  0.00    +0.000 A 
ATOM     25  C   UNL     1       9.875  13.248  21.693  0.00  0.00    +0.000 A 
ATOM     26  C   UNL     1      10.951  13.074  20.814  0.00  0.00    +0.000 A 
ENDBRANCH   1  24
TORSDOF 1
ENDMDL
MODEL 5
REMARK VINA RESULT:      -6.0      2.362      4.285
REMARK  Name = 
REMARK  1 active torsions:
REMARK  status: ('A' for Active; 'I' for Inactive)
REMARK    1  A    between atoms: C_5  and  C_6
REMARK                            x       y       z     vdW  Elec       q    Type
REMARK                         _______ _______ _______ _____ _____    ______ ____
ROOT
ATOM      1  C   UNL     1       9.109  12.939  21.590  0.00  0.00    +0.000 A 
ATOM      2  C   UNL     1       8.661  11.702  22.028  0.00  0.00    +0.000 A 
ATOM      3  S   UNL     1       8.009  11.738  23.596  0.00  0.00    +0.000 S 
ATOM      4  C   UNL     1       8.357  13.395  23.754  0.00  0.00    +0.000 A 
ATOM      5  N   UNL     1       8.121  13.987  24.936  0.00  0.00    +0.000 NA
ATOM      6  C   UNL     1       8.475  15.265  24.936  0.00  0.00    +0.000 A 
ATOM      7  N   UNL     1       8.958  15.970  23.906  0.00  0.00    +0.000 NA
ATOM      8  C   UNL     1       9.152  15.372  22.697  0.00  0.00    +0.000 A 
ATOM      9  N   UNL     1       9.684  16.148  21.669  0.00  0.00    +0.000 N 
ATOM     10  C   UNL     1      10.598  17.223  22.091  0.00  0.00    +0.000 C 
ATOM     11  C   UNL     1      10.865  18.274  21.007  0.00  0.00    +0.000 C 
ATOM     12  C   UNL     1      10.831  17.677  19.630  0.00  0.00    +0.000 A 
ATOM     13  C   UNL     1      11.792  17.986  18.660  0.00  0.00    +0.000 A 
ATOM     14  C   UNL     1      11.691  17.435  17.384  0.00  0.00    +0.000 A 
ATOM     15  C   UNL     1      10.595  16.634  17.059  0.00  0.00    +0.000 A 
ATOM     16  C   UNL     1       9.630  16.328  18.025  0.00  0.00    +0.000 A 
ATOM     17  C   UNL     1       9.768  16.805  19.337  0.00  0.00    +0.000 A 
ATOM     18  C   UNL     1       8.861  16.368  20.471  0.00  0.00    +0.000 C 
ATOM     19  C   UNL     1       8.891  13.974  22.604  0.00  0.00    +0.000 A 
ENDROOT
BRANCH   1  24
ATOM     20 CL   UNL     1      11.768  13.290  16.221  0.00  0.00    +0.000 Cl
ATOM     21  C   UNL     1      11.020  13.152  17.764  0.00  0.00    +0.000 A 
ATOM     22  C   UNL     1       9.686  12.768  17.853  0.00  0.00    +0.000 A 
ATOM     23  C   UNL     1       9.062  12.708  19.103  0.00  0.00    +0.000 A 
ATOM     24  C   UNL     1       9.767  13.019  20.280  0.00  0.00    +0.000 A 
ATOM     25  C   UNL     1      11.117  13.371  20.170  0.00  0.00    +0.000 A 
ATOM     26  C   UNL     1      11.738  13.456  18.918  0.00  0.00    +0.000 A 
ENDBRANCH   1  24
TORSDOF 1
ENDMDL
MODEL 6
REMARK VINA RESULT:      -6.0     10.944     13.068
REMARK  Name = 
REMARK  1 active torsions:
REMARK  status: ('A' for Active; 'I' for Inactive)
REMARK    1  A    between atoms: C_5  and  C_6
REMARK                            x       y       z     vdW  Elec       q    Type
REMARK                         _______ _______ _______ _____ _____    ______ ____
ROOT
ATOM      1  C   UNL     1      -3.012  12.745  21.880  0.00  0.00    +0.000 A 
ATOM      2  C   UNL     1      -2.583  13.039  23.166  0.00  0.00    +0.000 A 
ATOM      3  S   UNL     1      -3.797  13.715  24.142  0.00  0.00    +0.000 S 
ATOM      4  C   UNL     1      -4.914  13.683  22.860  0.00  0.00    +0.000 A 
ATOM      5  N   UNL     1      -6.122  14.233  23.053  0.00  0.00    +0.000 NA
ATOM      6  C   UNL     1      -6.878  14.180  21.964  0.00  0.00    +0.000 A 
ATOM      7  N   UNL     1      -6.568  13.607  20.794  0.00  0.00    +0.000 NA
ATOM      8  C   UNL     1      -5.356  13.010  20.622  0.00  0.00    +0.000 A 
ATOM      9  N   UNL     1      -5.078  12.456  19.374  0.00  0.00    +0.000 N 
ATOM     10  C   UNL     1      -5.718  13.120  18.226  0.00  0.00    +0.000 C 
ATOM     11  C   UNL     1      -5.706  12.287  16.938  0.00  0.00    +0.000 C 
ATOM     12  C   UNL     1      -4.484  11.420  16.847  0.00  0.00    +0.000 A 
ATOM     13  C   UNL     1      -3.744  11.297  15.665  0.00  0.00    +0.000 A 
ATOM     14  C   UNL     1      -2.641  10.447  15.623  0.00  0.00    +0.000 A 
ATOM     15  C   UNL     1      -2.322   9.668  16.737  0.00  0.00    +0.000 A 
ATOM     16  C   UNL     1      -3.064   9.785  17.918  0.00  0.00    +0.000 A 
ATOM     17  C   UNL     1      -4.121  10.702  18.000  0.00  0.00    +0.000 A 
ATOM     18  C   UNL     1      -4.848  11.006  19.296  0.00  0.00    +0.000 C 
ATOM     19  C   UNL     1      -4.425  13.088  21.699  0.00  0.00    +0.000 A 
ENDROOT
BRANCH   1  24
ATOM     20 CL   UNL     1       0.984  10.608  17.946  0.00  0.00    +0.000 Cl
ATOM     21  C   UNL     1      -0.133  11.243  19.089  0.00  0.00    +0.000 A 
ATOM     22  C   UNL     1      -0.384  10.549  20.268  0.00  0.00    +0.000 A 
ATOM     23  C   UNL     1      -1.331  11.038  21.173  0.00  0.00    +0.000 A 
ATOM     24  C   UNL     1      -2.029  12.231  20.918  0.00  0.00    +0.000 A 
ATOM     25  C   UNL     1      -1.737  12.930  19.741  0.00  0.00    +0.000 A 
ATOM     26  C   UNL     1      -0.807  12.431  18.821  0.00  0.00    +0.000 A 
ENDBRANCH   1  24
TORSDOF 1
ENDMDL
MODEL 7
REMARK VINA RESULT:      -6.0      2.206      4.213
REMARK  Name = 
REMARK  1 active torsions:
REMARK  status: ('A' for Active; 'I' for Inactive)
REMARK    1  A    between atoms: C_5  and  C_6
REMARK                            x       y       z     vdW  Elec       q    Type
REMARK                         _______ _______ _______ _____ _____    ______ ____
ROOT
ATOM      1  C   UNL     1       7.490  13.638  22.487  0.00  0.00    +0.000 A 
ATOM      2  C   UNL     1       7.084  12.982  23.639  0.00  0.00    +0.000 A 
ATOM      3  S   UNL     1       5.755  13.719  24.399  0.00  0.00    +0.000 S 
ATOM      4  C   UNL     1       5.721  14.964  23.241  0.00  0.00    +0.000 A 
ATOM      5  N   UNL     1       4.853  15.972  23.413  0.00  0.00    +0.000 NA
ATOM      6  C   UNL     1       4.959  16.893  22.465  0.00  0.00    +0.000 A 
ATOM      7  N   UNL     1       5.766  16.864  21.398  0.00  0.00    +0.000 NA
ATOM      8  C   UNL     1       6.613  15.815  21.207  0.00  0.00    +0.000 A 
ATOM      9  N   UNL     1       7.451  15.852  20.094  0.00  0.00    +0.000 N 
ATOM     10  C   UNL     1       7.866  17.195  19.654  0.00  0.00    +0.000 C 
ATOM     11  C   UNL     1       8.459  17.232  18.241  0.00  0.00    +0.000 C 
ATOM     12  C   UNL     1       9.192  15.964  17.910  0.00  0.00    +0.000 A 
ATOM     13  C   UNL     1      10.442  15.969  17.280  0.00  0.00    +0.000 A 
ATOM     14  C   UNL     1      11.061  14.762  16.959  0.00  0.00    +0.000 A 
ATOM     15  C   UNL     1      10.400  13.558  17.203  0.00  0.00    +0.000 A 
ATOM     16  C   UNL     1       9.148  13.551  17.828  0.00  0.00    +0.000 A 
ATOM     17  C   UNL     1       8.555  14.754  18.235  0.00  0.00    +0.000 A 
ATOM     18  C   UNL     1       7.291  14.808  19.072  0.00  0.00    +0.000 C 
ATOM     19  C   UNL     1       6.650  14.806  22.214  0.00  0.00    +0.000 A 
ENDROOT
BRANCH   1  24
ATOM     20 CL   UNL     1      12.332  11.595  19.589  0.00  0.00    +0.000 Cl
ATOM     21  C   UNL     1      10.962  12.171  20.454  0.00  0.00    +0.000 A 
ATOM     22  C   UNL     1       9.874  11.331  20.664  0.00  0.00    +0.000 A 
ATOM     23  C   UNL     1       8.738  11.815  21.320  0.00  0.00    +0.000 A 
ATOM     24  C   UNL     1       8.681  13.141  21.786  0.00  0.00    +0.000 A 
ATOM     25  C   UNL     1       9.800  13.959  21.593  0.00  0.00    +0.000 A 
ATOM     26  C   UNL     1      10.929  13.484  20.915  0.00  0.00    +0.000 A 
ENDBRANCH   1  24
TORSDOF 1
ENDMDL
MODEL 8
REMARK VINA RESULT:      -5.9     10.312     12.869
REMARK  Name = 
REMARK  1 active torsions:
REMARK  status: ('A' for Active; 'I' for Inactive)
REMARK    1  A    between atoms: C_5  and  C_6
REMARK                            x       y       z     vdW  Elec       q    Type
REMARK                         _______ _______ _______ _____ _____    ______ ____
ROOT
ATOM      1  C   UNL     1      -5.017  12.493  20.022  0.00  0.00    +0.000 A 
ATOM      2  C   UNL     1      -6.274  12.026  19.668  0.00  0.00    +0.000 A 
ATOM      3  S   UNL     1      -6.261  11.045  18.281  0.00  0.00    +0.000 S 
ATOM      4  C   UNL     1      -4.586  11.260  18.085  0.00  0.00    +0.000 A 
ATOM      5  N   UNL     1      -3.998  10.740  16.997  0.00  0.00    +0.000 NA
ATOM      6  C   UNL     1      -2.702  11.017  16.945  0.00  0.00    +0.000 A 
ATOM      7  N   UNL     1      -1.980  11.677  17.859  0.00  0.00    +0.000 NA
ATOM      8  C   UNL     1      -2.576  12.163  18.984  0.00  0.00    +0.000 A 
ATOM      9  N   UNL     1      -1.781  12.866  19.886  0.00  0.00    +0.000 N 
ATOM     10  C   UNL     1      -0.652  13.607  19.297  0.00  0.00    +0.000 C 
ATOM     11  C   UNL     1       0.403  14.049  20.318  0.00  0.00    +0.000 C 
ATOM     12  C   UNL     1      -0.208  14.351  21.656  0.00  0.00    +0.000 A 
ATOM     13  C   UNL     1       0.147  15.484  22.399  0.00  0.00    +0.000 A 
ATOM     14  C   UNL     1      -0.421  15.695  23.654  0.00  0.00    +0.000 A 
ATOM     15  C   UNL     1      -1.284  14.741  24.194  0.00  0.00    +0.000 A 
ATOM     16  C   UNL     1      -1.636  13.605  23.456  0.00  0.00    +0.000 A 
ATOM     17  C   UNL     1      -1.141  13.426  22.157  0.00  0.00    +0.000 A 
ATOM     18  C   UNL     1      -1.618  12.316  21.240  0.00  0.00    +0.000 C 
ATOM     19  C   UNL     1      -3.988  12.003  19.102  0.00  0.00    +0.000 A 
ENDROOT
BRANCH   1  24
ATOM     20 CL   UNL     1      -4.565  16.245  24.684  0.00  0.00    +0.000 Cl
ATOM     21  C   UNL     1      -4.731  15.184  23.341  0.00  0.00    +0.000 A 
ATOM     22  C   UNL     1      -5.183  13.884  23.538  0.00  0.00    +0.000 A 
ATOM     23  C   UNL     1      -5.267  13.005  22.454  0.00  0.00    +0.000 A 
ATOM     24  C   UNL     1      -4.912  13.418  21.158  0.00  0.00    +0.000 A 
ATOM     25  C   UNL     1      -4.492  14.740  20.976  0.00  0.00    +0.000 A 
ATOM     26  C   UNL     1      -4.383  15.615  22.063  0.00  0.00    +0.000 A 
ENDBRANCH   1  24
TORSDOF 1
ENDMDL
MODEL 9
REMARK VINA RESULT:      -5.8      9.881     12.488
REMARK  Name = 
REMARK  1 active torsions:
REMARK  status: ('A' for Active; 'I' for Inactive)
REMARK    1  A    between atoms: C_5  and  C_6
REMARK                            x       y       z     vdW  Elec       q    Type
REMARK                         _______ _______ _______ _____ _____    ______ ____
ROOT
ATOM      1  C   UNL     1      -2.667  11.923  18.412  0.00  0.00    +0.000 A 
ATOM      2  C   UNL     1      -2.542  11.313  17.173  0.00  0.00    +0.000 A 
ATOM      3  S   UNL     1      -4.019  10.758  16.544  0.00  0.00    +0.000 S 
ATOM      4  C   UNL     1      -4.857  11.268  17.932  0.00  0.00    +0.000 A 
ATOM      5  N   UNL     1      -6.163  10.973  18.034  0.00  0.00    +0.000 NA
ATOM      6  C   UNL     1      -6.683  11.390  19.180  0.00  0.00    +0.000 A 
ATOM      7  N   UNL     1      -6.065  12.081  20.144  0.00  0.00    +0.000 NA
ATOM      8  C   UNL     1      -4.750  12.416  20.013  0.00  0.00    +0.000 A 
ATOM      9  N   UNL     1      -4.151  13.112  21.061  0.00  0.00    +0.000 N 
ATOM     10  C   UNL     1      -4.686  12.825  22.403  0.00  0.00    +0.000 C 
ATOM     11  C   UNL     1      -4.283  13.854  23.466  0.00  0.00    +0.000 C 
ATOM     12  C   UNL     1      -2.923  14.431  23.197  0.00  0.00    +0.000 A 
ATOM     13  C   UNL     1      -1.971  14.599  24.210  0.00  0.00    +0.000 A 
ATOM     14  C   UNL     1      -0.739  15.177  23.913  0.00  0.00    +0.000 A 
ATOM     15  C   UNL     1      -0.486  15.650  22.625  0.00  0.00    +0.000 A 
ATOM     16  C   UNL     1      -1.439  15.489  21.612  0.00  0.00    +0.000 A 
ATOM     17  C   UNL     1      -2.647  14.829  21.878  0.00  0.00    +0.000 A 
ATOM     18  C   UNL     1      -3.642  14.464  20.793  0.00  0.00    +0.000 C 
ATOM     19  C   UNL     1      -4.062  11.941  18.859  0.00  0.00    +0.000 A 
ENDROOT
BRANCH   1  24
ATOM     20 CL   UNL     1       2.307  13.799  21.198  0.00  0.00    +0.000 Cl
ATOM     21  C   UNL     1       0.902  13.231  20.384  0.00  0.00    +0.000 A 
ATOM     22  C   UNL     1       0.552  13.772  19.151  0.00  0.00    +0.000 A 
ATOM     23  C   UNL     1      -0.619  13.349  18.514  0.00  0.00    +0.000 A 
ATOM     24  C   UNL     1      -1.447  12.373  19.094  0.00  0.00    +0.000 A 
ATOM     25  C   UNL     1      -1.058  11.817  20.319  0.00  0.00    +0.000 A 
ATOM     26  C   UNL     1       0.101  12.256  20.971  0.00  0.00    +0.000 A 
ENDBRANCH   1  24
TORSDOF 1
ENDMDL
