MODEL 1
REMARK VINA RESULT:      -8.5      0.000      0.000
REMARK  Name = 
REMARK  5 active torsions:
REMARK  status: ('A' for Active; 'I' for Inactive)
REMARK    1  A    between atoms: C_1  and  C_2
REMARK    2  A    between atoms: C_5  and  S_6
REMARK    3  A    between atoms: S_6  and  N_9
REMARK    4  A    between atoms: C_12  and  O_13
REMARK    5  A    between atoms: O_13  and  C_14
REMARK                            x       y       z     vdW  Elec       q    Type
REMARK                         _______ _______ _______ _____ _____    ______ ____
ROOT
ATOM      1  N   UNL     1       2.487   2.778  19.828  0.00  0.00    +0.000 NA
ATOM      2  C   UNL     1       1.415   3.152  18.890  0.00  0.00    +0.000 C 
ATOM      3  C   UNL     1       1.280   4.657  19.035  0.00  0.00    +0.000 C 
ATOM      4  C   UNL     1       1.584   4.930  20.505  0.00  0.00    +0.000 C 
ATOM      5  C   UNL     1       2.525   3.784  20.919  0.00  0.00    +0.000 C 
ENDROOT
BRANCH   1   6
ATOM      6  S   UNL     1       3.979   2.285  19.185  0.00  0.00    +0.000 S 
ATOM      7  O   UNL     1       3.747   1.160  18.305  0.00  0.00    +0.000 OA
ATOM      8  O   UNL     1       4.919   2.198  20.283  0.00  0.00    +0.000 OA
BRANCH   6  13
ATOM      9  C   UNL     1       6.862   6.732  17.386  0.00  0.00    +0.000 C 
ATOM     10  C   UNL     1       5.932   5.570  17.435  0.00  0.00    +0.000 A 
ATOM     11  C   UNL     1       5.181   5.034  16.410  0.00  0.00    +0.000 A 
ATOM     12  C   UNL     1       4.397   3.926  16.843  0.00  0.00    +0.000 A 
ATOM     13  C   UNL     1       4.604   3.620  18.174  0.00  0.00    +0.000 A 
ATOM     14  S   UNL     1       5.684   4.727  18.905  0.00  0.00    +0.000 S 
ENDBRANCH   6  13
ENDBRANCH   1   6
BRANCH   4  15
ATOM     15  O   UNL     1       2.297   6.154  20.658  0.00  0.00    +0.000 OA
BRANCH  15  16
ATOM     16  C   UNL     1       2.171   7.178  19.749  0.00  0.00    +0.000 A 
ATOM     17  C   UNL     1       2.778   7.186  18.488  0.00  0.00    +0.000 A 
ATOM     18  C   UNL     1       2.604   8.271  17.633  0.00  0.00    +0.000 A 
ATOM     19  C   UNL     1       1.829   9.353  18.035  0.00  0.00    +0.000 A 
ATOM     20  C   UNL     1       1.207   9.352  19.291  0.00  0.00    +0.000 A 
ATOM     21  C   UNL     1       0.411  10.434  19.695  0.00  0.00    +0.000 A 
ATOM     22  C   UNL     1      -0.216  10.412  20.931  0.00  0.00    +0.000 A 
ATOM     23  C   UNL     1      -0.023   9.303  21.730  0.00  0.00    +0.000 A 
ATOM     24  N   UNL     1       0.749   8.250  21.380  0.00  0.00    +0.000 NA
ATOM     25  C   UNL     1       1.363   8.255  20.173  0.00  0.00    +0.000 A 
ENDBRANCH  15  16
ENDBRANCH   4  15
TORSDOF 4
ENDMDL
MODEL 2
REMARK VINA RESULT:      -7.8      0.902      2.096
REMARK  Name = 
REMARK  5 active torsions:
REMARK  status: ('A' for Active; 'I' for Inactive)
REMARK    1  A    between atoms: C_1  and  C_2
REMARK    2  A    between atoms: C_5  and  S_6
REMARK    3  A    between atoms: S_6  and  N_9
REMARK    4  A    between atoms: C_12  and  O_13
REMARK    5  A    between atoms: O_13  and  C_14
REMARK                            x       y       z     vdW  Elec       q    Type
REMARK                         _______ _______ _______ _____ _____    ______ ____
ROOT
ATOM      1  N   UNL     1       2.476   2.653  20.108  0.00  0.00    +0.000 NA
ATOM      2  C   UNL     1       1.290   2.930  19.281  0.00  0.00    +0.000 C 
ATOM      3  C   UNL     1       1.075   4.427  19.400  0.00  0.00    +0.000 C 
ATOM      4  C   UNL     1       1.513   4.767  20.821  0.00  0.00    +0.000 C 
ATOM      5  C   UNL     1       2.564   3.695  21.162  0.00  0.00    +0.000 C 
ENDROOT
BRANCH   1   6
ATOM      6  S   UNL     1       3.922   2.232  19.322  0.00  0.00    +0.000 S 
ATOM      7  O   UNL     1       3.650   1.124  18.431  0.00  0.00    +0.000 OA
ATOM      8  O   UNL     1       4.957   2.145  20.332  0.00  0.00    +0.000 OA
BRANCH   6  13
ATOM      9  C   UNL     1       6.456   6.854  17.444  0.00  0.00    +0.000 C 
ATOM     10  C   UNL     1       5.590   5.645  17.526  0.00  0.00    +0.000 A 
ATOM     11  C   UNL     1       4.801   5.092  16.540  0.00  0.00    +0.000 A 
ATOM     12  C   UNL     1       4.103   3.937  16.996  0.00  0.00    +0.000 A 
ATOM     13  C   UNL     1       4.412   3.616  18.305  0.00  0.00    +0.000 A 
ATOM     14  S   UNL     1       5.481   4.763  18.989  0.00  0.00    +0.000 S 
ENDBRANCH   6  13
ENDBRANCH   1   6
BRANCH   4  15
ATOM     15  O   UNL     1       2.158   6.037  20.866  0.00  0.00    +0.000 OA
BRANCH  15  16
ATOM     16  C   UNL     1       1.441   7.208  20.806  0.00  0.00    +0.000 A 
ATOM     17  C   UNL     1       0.507   7.606  21.770  0.00  0.00    +0.000 A 
ATOM     18  C   UNL     1      -0.183   8.806  21.625  0.00  0.00    +0.000 A 
ATOM     19  C   UNL     1       0.052   9.611  20.515  0.00  0.00    +0.000 A 
ATOM     20  C   UNL     1       0.993   9.229  19.549  0.00  0.00    +0.000 A 
ATOM     21  C   UNL     1       1.245  10.045  18.436  0.00  0.00    +0.000 A 
ATOM     22  C   UNL     1       2.193   9.666  17.498  0.00  0.00    +0.000 A 
ATOM     23  C   UNL     1       2.859   8.476  17.702  0.00  0.00    +0.000 A 
ATOM     24  N   UNL     1       2.631   7.657  18.753  0.00  0.00    +0.000 NA
ATOM     25  C   UNL     1       1.712   8.017  19.681  0.00  0.00    +0.000 A 
ENDBRANCH  15  16
ENDBRANCH   4  15
TORSDOF 4
ENDMDL
MODEL 3
REMARK VINA RESULT:      -7.4      2.169      5.896
REMARK  Name = 
REMARK  5 active torsions:
REMARK  status: ('A' for Active; 'I' for Inactive)
REMARK    1  A    between atoms: C_1  and  C_2
REMARK    2  A    between atoms: C_5  and  S_6
REMARK    3  A    between atoms: S_6  and  N_9
REMARK    4  A    between atoms: C_12  and  O_13
REMARK    5  A    between atoms: O_13  and  C_14
REMARK                            x       y       z     vdW  Elec       q    Type
REMARK                         _______ _______ _______ _____ _____    ______ ____
ROOT
ATOM      1  N   UNL     1       1.780   4.824  18.725  0.00  0.00    +0.000 NA
ATOM      2  C   UNL     1       1.340   3.503  19.207  0.00  0.00    +0.000 C 
ATOM      3  C   UNL     1       2.452   2.553  18.802  0.00  0.00    +0.000 C 
ATOM      4  C   UNL     1       2.972   3.110  17.482  0.00  0.00    +0.000 C 
ATOM      5  C   UNL     1       2.683   4.620  17.564  0.00  0.00    +0.000 C 
ENDROOT
BRANCH   1   6
ATOM      6  S   UNL     1       2.255   5.980  19.874  0.00  0.00    +0.000 S 
ATOM      7  O   UNL     1       3.688   5.886  20.049  0.00  0.00    +0.000 OA
ATOM      8  O   UNL     1       1.353   5.868  21.002  0.00  0.00    +0.000 OA
BRANCH   6  13
ATOM      9  C   UNL     1       0.717  11.332  19.322  0.00  0.00    +0.000 C 
ATOM     10  C   UNL     1       1.243   9.970  19.028  0.00  0.00    +0.000 A 
ATOM     11  C   UNL     1       1.839   9.516  17.870  0.00  0.00    +0.000 A 
ATOM     12  C   UNL     1       2.203   8.142  17.958  0.00  0.00    +0.000 A 
ATOM     13  C   UNL     1       1.914   7.596  19.194  0.00  0.00    +0.000 A 
ATOM     14  S   UNL     1       1.133   8.733  20.206  0.00  0.00    +0.000 S 
ENDBRANCH   6  13
ENDBRANCH   1   6
BRANCH   4  15
ATOM     15  O   UNL     1       4.384   2.944  17.380  0.00  0.00    +0.000 OA
BRANCH  15  16
ATOM     16  C   UNL     1       5.159   3.818  16.655  0.00  0.00    +0.000 A 
ATOM     17  C   UNL     1       5.111   3.938  15.261  0.00  0.00    +0.000 A 
ATOM     18  C   UNL     1       5.941   4.843  14.605  0.00  0.00    +0.000 A 
ATOM     19  C   UNL     1       6.825   5.629  15.337  0.00  0.00    +0.000 A 
ATOM     20  C   UNL     1       6.875   5.526  16.734  0.00  0.00    +0.000 A 
ATOM     21  C   UNL     1       7.753   6.327  17.478  0.00  0.00    +0.000 A 
ATOM     22  C   UNL     1       7.778   6.231  18.861  0.00  0.00    +0.000 A 
ATOM     23  C   UNL     1       6.922   5.330  19.458  0.00  0.00    +0.000 A 
ATOM     24  N   UNL     1       6.073   4.531  18.773  0.00  0.00    +0.000 NA
ATOM     25  C   UNL     1       6.034   4.617  17.422  0.00  0.00    +0.000 A 
ENDBRANCH  15  16
ENDBRANCH   4  15
TORSDOF 4
ENDMDL
MODEL 4
REMARK VINA RESULT:      -7.3      0.989      1.277
REMARK  Name = 
REMARK  5 active torsions:
REMARK  status: ('A' for Active; 'I' for Inactive)
REMARK    1  A    between atoms: C_1  and  C_2
REMARK    2  A    between atoms: C_5  and  S_6
REMARK    3  A    between atoms: S_6  and  N_9
REMARK    4  A    between atoms: C_12  and  O_13
REMARK    5  A    between atoms: O_13  and  C_14
REMARK                            x       y       z     vdW  Elec       q    Type
REMARK                         _______ _______ _______ _____ _____    ______ ____
ROOT
ATOM      1  N   UNL     1       2.220   2.734  19.522  0.00  0.00    +0.000 NA
ATOM      2  C   UNL     1       0.811   3.142  19.395  0.00  0.00    +0.000 C 
ATOM      3  C   UNL     1       0.777   4.577  19.888  0.00  0.00    +0.000 C 
ATOM      4  C   UNL     1       1.829   4.630  20.990  0.00  0.00    +0.000 C 
ATOM      5  C   UNL     1       2.845   3.541  20.600  0.00  0.00    +0.000 C 
ENDROOT
BRANCH   1   6
ATOM      6  S   UNL     1       3.124   2.522  18.100  0.00  0.00    +0.000 S 
ATOM      7  O   UNL     1       2.306   2.923  16.976  0.00  0.00    +0.000 OA
ATOM      8  O   UNL     1       3.725   1.205  18.158  0.00  0.00    +0.000 OA
BRANCH   6  13
ATOM      9  C   UNL     1       7.042   6.266  16.704  0.00  0.00    +0.000 C 
ATOM     10  C   UNL     1       6.199   5.321  17.487  0.00  0.00    +0.000 A 
ATOM     11  C   UNL     1       6.231   5.069  18.843  0.00  0.00    +0.000 A 
ATOM     12  C   UNL     1       5.277   4.086  19.228  0.00  0.00    +0.000 A 
ATOM     13  C   UNL     1       4.513   3.644  18.164  0.00  0.00    +0.000 A 
ATOM     14  S   UNL     1       5.016   4.368  16.698  0.00  0.00    +0.000 S 
ENDBRANCH   6  13
ENDBRANCH   1   6
BRANCH   4  15
ATOM     15  O   UNL     1       2.512   5.882  20.982  0.00  0.00    +0.000 OA
BRANCH  15  16
ATOM     16  C   UNL     1       2.320   6.797  19.975  0.00  0.00    +0.000 A 
ATOM     17  C   UNL     1       2.797   6.638  18.668  0.00  0.00    +0.000 A 
ATOM     18  C   UNL     1       2.565   7.623  17.712  0.00  0.00    +0.000 A 
ATOM     19  C   UNL     1       1.862   8.772  18.056  0.00  0.00    +0.000 A 
ATOM     20  C   UNL     1       1.370   8.939  19.358  0.00  0.00    +0.000 A 
ATOM     21  C   UNL     1       0.647  10.089  19.707  0.00  0.00    +0.000 A 
ATOM     22  C   UNL     1       0.148  10.232  20.992  0.00  0.00    +0.000 A 
ATOM     23  C   UNL     1       0.393   9.217  21.894  0.00  0.00    +0.000 A 
ATOM     24  N   UNL     1       1.098   8.102  21.598  0.00  0.00    +0.000 NA
ATOM     25  C   UNL     1       1.587   7.946  20.345  0.00  0.00    +0.000 A 
ENDBRANCH  15  16
ENDBRANCH   4  15
TORSDOF 4
ENDMDL
MODEL 5
REMARK VINA RESULT:      -7.1      1.702      2.526
REMARK  Name = 
REMARK  5 active torsions:
REMARK  status: ('A' for Active; 'I' for Inactive)
REMARK    1  A    between atoms: C_1  and  C_2
REMARK    2  A    between atoms: C_5  and  S_6
REMARK    3  A    between atoms: S_6  and  N_9
REMARK    4  A    between atoms: C_12  and  O_13
REMARK    5  A    between atoms: O_13  and  C_14
REMARK                            x       y       z     vdW  Elec       q    Type
REMARK                         _______ _______ _______ _____ _____    ______ ____
ROOT
ATOM      1  N   UNL     1       3.334   4.648  19.113  0.00  0.00    +0.000 NA
ATOM      2  C   UNL     1       2.496   4.775  17.909  0.00  0.00    +0.000 C 
ATOM      3  C   UNL     1       2.009   6.212  17.926  0.00  0.00    +0.000 C 
ATOM      4  C   UNL     1       1.844   6.545  19.405  0.00  0.00    +0.000 C 
ATOM      5  C   UNL     1       2.864   5.636  20.115  0.00  0.00    +0.000 C 
ENDROOT
BRANCH   1   6
ATOM      6  S   UNL     1       5.013   4.499  18.909  0.00  0.00    +0.000 S 
ATOM      7  O   UNL     1       5.384   3.124  19.168  0.00  0.00    +0.000 OA
ATOM      8  O   UNL     1       5.637   5.592  19.625  0.00  0.00    +0.000 OA
BRANCH   6  13
ATOM      9  C   UNL     1       6.112   3.856  13.459  0.00  0.00    +0.000 C 
ATOM     10  C   UNL     1       5.838   4.471  14.788  0.00  0.00    +0.000 A 
ATOM     11  C   UNL     1       5.671   5.805  15.094  0.00  0.00    +0.000 A 
ATOM     12  C   UNL     1       5.434   6.012  16.482  0.00  0.00    +0.000 A 
ATOM     13  C   UNL     1       5.384   4.827  17.192  0.00  0.00    +0.000 A 
ATOM     14  S   UNL     1       5.704   3.485  16.180  0.00  0.00    +0.000 S 
ENDBRANCH   6  13
ENDBRANCH   1   6
BRANCH   4  15
ATOM     15  O   UNL     1       2.212   7.897  19.666  0.00  0.00    +0.000 OA
BRANCH  15  16
ATOM     16  C   UNL     1       1.311   8.926  19.526  0.00  0.00    +0.000 A 
ATOM     17  C   UNL     1       0.969   9.507  18.299  0.00  0.00    +0.000 A 
ATOM     18  C   UNL     1       0.052  10.554  18.250  0.00  0.00    +0.000 A 
ATOM     19  C   UNL     1      -0.522  11.028  19.425  0.00  0.00    +0.000 A 
ATOM     20  C   UNL     1      -0.196  10.448  20.658  0.00  0.00    +0.000 A 
ATOM     21  C   UNL     1      -0.784  10.912  21.844  0.00  0.00    +0.000 A 
ATOM     22  C   UNL     1      -0.468  10.315  23.055  0.00  0.00    +0.000 A 
ATOM     23  C   UNL     1       0.432   9.271  23.042  0.00  0.00    +0.000 A 
ATOM     24  N   UNL     1       1.030   8.807  21.922  0.00  0.00    +0.000 NA
ATOM     25  C   UNL     1       0.728   9.376  20.730  0.00  0.00    +0.000 A 
ENDBRANCH  15  16
ENDBRANCH   4  15
TORSDOF 4
ENDMDL
MODEL 6
REMARK VINA RESULT:      -7.0      1.930      2.425
REMARK  Name = 
REMARK  5 active torsions:
REMARK  status: ('A' for Active; 'I' for Inactive)
REMARK    1  A    between atoms: C_1  and  C_2
REMARK    2  A    between atoms: C_5  and  S_6
REMARK    3  A    between atoms: S_6  and  N_9
REMARK    4  A    between atoms: C_12  and  O_13
REMARK    5  A    between atoms: O_13  and  C_14
REMARK                            x       y       z     vdW  Elec       q    Type
REMARK                         _______ _______ _______ _____ _____    ______ ____
ROOT
ATOM      1  N   UNL     1       4.257   3.692  17.713  0.00  0.00    +0.000 NA
ATOM      2  C   UNL     1       2.827   3.552  17.390  0.00  0.00    +0.000 C 
ATOM      3  C   UNL     1       2.131   4.578  18.265  0.00  0.00    +0.000 C 
ATOM      4  C   UNL     1       2.957   4.616  19.546  0.00  0.00    +0.000 C 
ATOM      5  C   UNL     1       4.374   4.216  19.097  0.00  0.00    +0.000 C 
ENDROOT
BRANCH   1   6
ATOM      6  S   UNL     1       5.281   4.375  16.543  0.00  0.00    +0.000 S 
ATOM      7  O   UNL     1       4.494   5.261  15.712  0.00  0.00    +0.000 OA
ATOM      8  O   UNL     1       6.061   3.300  15.966  0.00  0.00    +0.000 OA
BRANCH   6  13
ATOM      9  C   UNL     1       8.372   8.721  18.240  0.00  0.00    +0.000 C 
ATOM     10  C   UNL     1       7.794   7.354  18.117  0.00  0.00    +0.000 A 
ATOM     11  C   UNL     1       8.048   6.245  18.897  0.00  0.00    +0.000 A 
ATOM     12  C   UNL     1       7.312   5.105  18.465  0.00  0.00    +0.000 A 
ATOM     13  C   UNL     1       6.484   5.385  17.395  0.00  0.00    +0.000 A 
ATOM     14  S   UNL     1       6.668   7.005  16.875  0.00  0.00    +0.000 S 
ENDBRANCH   6  13
ENDBRANCH   1   6
BRANCH   4  15
ATOM     15  O   UNL     1       3.025   5.940  20.069  0.00  0.00    +0.000 OA
BRANCH  15  16
ATOM     16  C   UNL     1       2.658   7.029  19.315  0.00  0.00    +0.000 A 
ATOM     17  C   UNL     1       3.151   7.298  18.033  0.00  0.00    +0.000 A 
ATOM     18  C   UNL     1       2.732   8.433  17.344  0.00  0.00    +0.000 A 
ATOM     19  C   UNL     1       1.823   9.306  17.933  0.00  0.00    +0.000 A 
ATOM     20  C   UNL     1       1.313   9.042  19.212  0.00  0.00    +0.000 A 
ATOM     21  C   UNL     1       0.385   9.911  19.804  0.00  0.00    +0.000 A 
ATOM     22  C   UNL     1      -0.128   9.627  21.061  0.00  0.00    +0.000 A 
ATOM     23  C   UNL     1       0.310   8.480  21.689  0.00  0.00    +0.000 A 
ATOM     24  N   UNL     1       1.215   7.628  21.157  0.00  0.00    +0.000 NA
ATOM     25  C   UNL     1       1.720   7.889  19.927  0.00  0.00    +0.000 A 
ENDBRANCH  15  16
ENDBRANCH   4  15
TORSDOF 4
ENDMDL
MODEL 7
REMARK VINA RESULT:      -6.9      4.129      7.796
REMARK  Name = 
REMARK  5 active torsions:
REMARK  status: ('A' for Active; 'I' for Inactive)
REMARK    1  A    between atoms: C_1  and  C_2
REMARK    2  A    between atoms: C_5  and  S_6
REMARK    3  A    between atoms: S_6  and  N_9
REMARK    4  A    between atoms: C_12  and  O_13
REMARK    5  A    between atoms: O_13  and  C_14
REMARK                            x       y       z     vdW  Elec       q    Type
REMARK                         _______ _______ _______ _____ _____    ______ ____
ROOT
ATOM      1  N   UNL     1      -0.360   9.967  21.050  0.00  0.00    +0.000 NA
ATOM      2  C   UNL     1       0.367  10.069  22.327  0.00  0.00    +0.000 C 
ATOM      3  C   UNL     1       1.551   9.132  22.175  0.00  0.00    +0.000 C 
ATOM      4  C   UNL     1       1.028   7.990  21.310  0.00  0.00    +0.000 C 
ATOM      5  C   UNL     1      -0.084   8.632  20.462  0.00  0.00    +0.000 C 
ENDROOT
BRANCH   1   6
ATOM      6  S   UNL     1      -0.318  11.296  19.994  0.00  0.00    +0.000 S 
ATOM      7  O   UNL     1       0.963  11.302  19.320  0.00  0.00    +0.000 OA
ATOM      8  O   UNL     1      -0.782  12.453  20.732  0.00  0.00    +0.000 OA
BRANCH   6  13
ATOM      9  C   UNL     1      -4.980  11.721  16.929  0.00  0.00    +0.000 C 
ATOM     10  C   UNL     1      -3.638  11.299  17.418  0.00  0.00    +0.000 A 
ATOM     11  C   UNL     1      -2.745  10.434  16.823  0.00  0.00    +0.000 A 
ATOM     12  C   UNL     1      -1.563  10.265  17.599  0.00  0.00    +0.000 A 
ATOM     13  C   UNL     1      -1.568  11.039  18.744  0.00  0.00    +0.000 A 
ATOM     14  S   UNL     1      -3.038  11.899  18.905  0.00  0.00    +0.000 S 
ENDBRANCH   6  13
ENDBRANCH   1   6
BRANCH   4  15
ATOM     15  O   UNL     1       2.038   7.523  20.419  0.00  0.00    +0.000 OA
BRANCH  15  16
ATOM     16  C   UNL     1       2.094   6.207  20.025  0.00  0.00    +0.000 A 
ATOM     17  C   UNL     1       1.393   5.170  20.651  0.00  0.00    +0.000 A 
ATOM     18  C   UNL     1       1.517   3.861  20.192  0.00  0.00    +0.000 A 
ATOM     19  C   UNL     1       2.345   3.582  19.110  0.00  0.00    +0.000 A 
ATOM     20  C   UNL     1       3.044   4.613  18.467  0.00  0.00    +0.000 A 
ATOM     21  C   UNL     1       3.868   4.339  17.365  0.00  0.00    +0.000 A 
ATOM     22  C   UNL     1       4.537   5.371  16.725  0.00  0.00    +0.000 A 
ATOM     23  C   UNL     1       4.364   6.650  17.213  0.00  0.00    +0.000 A 
ATOM     24  N   UNL     1       3.591   6.950  18.281  0.00  0.00    +0.000 NA
ATOM     25  C   UNL     1       2.926   5.952  18.913  0.00  0.00    +0.000 A 
ENDBRANCH  15  16
ENDBRANCH   4  15
TORSDOF 4
ENDMDL
MODEL 8
REMARK VINA RESULT:      -6.9      3.581      7.932
REMARK  Name = 
REMARK  5 active torsions:
REMARK  status: ('A' for Active; 'I' for Inactive)
REMARK    1  A    between atoms: C_1  and  C_2
REMARK    2  A    between atoms: C_5  and  S_6
REMARK    3  A    between atoms: S_6  and  N_9
REMARK    4  A    between atoms: C_12  and  O_13
REMARK    5  A    between atoms: O_13  and  C_14
REMARK                            x       y       z     vdW  Elec       q    Type
REMARK                         _______ _______ _______ _____ _____    ______ ____
ROOT
ATOM      1  N   UNL     1       1.177   9.857  19.811  0.00  0.00    +0.000 NA
ATOM      2  C   UNL     1       1.407  10.241  18.408  0.00  0.00    +0.000 C 
ATOM      3  C   UNL     1       1.649   8.931  17.682  0.00  0.00    +0.000 C 
ATOM      4  C   UNL     1       2.368   8.054  18.700  0.00  0.00    +0.000 C 
ATOM      5  C   UNL     1       1.879   8.574  20.064  0.00  0.00    +0.000 C 
ENDROOT
BRANCH   1   6
ATOM      6  S   UNL     1      -0.394  10.010  20.437  0.00  0.00    +0.000 S 
ATOM      7  O   UNL     1      -0.571   9.015  21.473  0.00  0.00    +0.000 OA
ATOM      8  O   UNL     1      -1.304  10.092  19.313  0.00  0.00    +0.000 OA
BRANCH   6  13
ATOM      9  C   UNL     1      -1.594  14.124  24.036  0.00  0.00    +0.000 C 
ATOM     10  C   UNL     1      -1.055  13.374  22.867  0.00  0.00    +0.000 A 
ATOM     11  C   UNL     1      -0.217  13.831  21.872  0.00  0.00    +0.000 A 
ATOM     12  C   UNL     1       0.074  12.822  20.911  0.00  0.00    +0.000 A 
ATOM     13  C   UNL     1      -0.515  11.611  21.221  0.00  0.00    +0.000 A 
ATOM     14  S   UNL     1      -1.478  11.733  22.629  0.00  0.00    +0.000 S 
ENDBRANCH   6  13
ENDBRANCH   1   6
BRANCH   4  15
ATOM     15  O   UNL     1       1.958   6.694  18.582  0.00  0.00    +0.000 OA
BRANCH  15  16
ATOM     16  C   UNL     1       2.794   5.735  18.061  0.00  0.00    +0.000 A 
ATOM     17  C   UNL     1       3.955   6.019  17.332  0.00  0.00    +0.000 A 
ATOM     18  C   UNL     1       4.739   4.984  16.830  0.00  0.00    +0.000 A 
ATOM     19  C   UNL     1       4.365   3.662  17.050  0.00  0.00    +0.000 A 
ATOM     20  C   UNL     1       3.211   3.365  17.787  0.00  0.00    +0.000 A 
ATOM     21  C   UNL     1       2.838   2.034  18.024  0.00  0.00    +0.000 A 
ATOM     22  C   UNL     1       1.705   1.753  18.773  0.00  0.00    +0.000 A 
ATOM     23  C   UNL     1       0.976   2.818  19.260  0.00  0.00    +0.000 A 
ATOM     24  N   UNL     1       1.296   4.113  19.039  0.00  0.00    +0.000 NA
ATOM     25  C   UNL     1       2.403   4.403  18.314  0.00  0.00    +0.000 A 
ENDBRANCH  15  16
ENDBRANCH   4  15
TORSDOF 4
ENDMDL
MODEL 9
REMARK VINA RESULT:      -6.9      1.800      3.011
REMARK  Name = 
REMARK  5 active torsions:
REMARK  status: ('A' for Active; 'I' for Inactive)
REMARK    1  A    between atoms: C_1  and  C_2
REMARK    2  A    between atoms: C_5  and  S_6
REMARK    3  A    between atoms: S_6  and  N_9
REMARK    4  A    between atoms: C_12  and  O_13
REMARK    5  A    between atoms: O_13  and  C_14
REMARK                            x       y       z     vdW  Elec       q    Type
REMARK                         _______ _______ _______ _____ _____    ______ ____
ROOT
ATOM      1  N   UNL     1       3.243   4.753  19.205  0.00  0.00    +0.000 NA
ATOM      2  C   UNL     1       2.422   4.982  18.004  0.00  0.00    +0.000 C 
ATOM      3  C   UNL     1       1.941   6.415  18.130  0.00  0.00    +0.000 C 
ATOM      4  C   UNL     1       1.757   6.628  19.629  0.00  0.00    +0.000 C 
ATOM      5  C   UNL     1       2.763   5.660  20.278  0.00  0.00    +0.000 C 
ENDROOT
BRANCH   1   6
ATOM      6  S   UNL     1       4.924   4.613  19.013  0.00  0.00    +0.000 S 
ATOM      7  O   UNL     1       5.302   3.243  19.290  0.00  0.00    +0.000 OA
ATOM      8  O   UNL     1       5.537   5.718  19.722  0.00  0.00    +0.000 OA
BRANCH   6  13
ATOM      9  C   UNL     1       6.035   3.920  13.572  0.00  0.00    +0.000 C 
ATOM     10  C   UNL     1       5.762   4.546  14.895  0.00  0.00    +0.000 A 
ATOM     11  C   UNL     1       5.607   5.885  15.191  0.00  0.00    +0.000 A 
ATOM     12  C   UNL     1       5.368   6.104  16.577  0.00  0.00    +0.000 A 
ATOM     13  C   UNL     1       5.304   4.924  17.296  0.00  0.00    +0.000 A 
ATOM     14  S   UNL     1       5.615   3.572  16.295  0.00  0.00    +0.000 S 
ENDBRANCH   6  13
ENDBRANCH   1   6
BRANCH   4  15
ATOM     15  O   UNL     1       2.126   7.953  20.005  0.00  0.00    +0.000 OA
BRANCH  15  16
ATOM     16  C   UNL     1       1.297   8.740  20.769  0.00  0.00    +0.000 A 
ATOM     17  C   UNL     1       1.229   8.681  22.165  0.00  0.00    +0.000 A 
ATOM     18  C   UNL     1       0.350   9.509  22.860  0.00  0.00    +0.000 A 
ATOM     19  C   UNL     1      -0.466  10.394  22.163  0.00  0.00    +0.000 A 
ATOM     20  C   UNL     1      -0.399  10.469  20.765  0.00  0.00    +0.000 A 
ATOM     21  C   UNL     1      -1.208  11.371  20.059  0.00  0.00    +0.000 A 
ATOM     22  C   UNL     1      -1.117  11.451  18.677  0.00  0.00    +0.000 A 
ATOM     23  C   UNL     1      -0.218  10.619  18.044  0.00  0.00    +0.000 A 
ATOM     24  N   UNL     1       0.567   9.728  18.689  0.00  0.00    +0.000 NA
ATOM     25  C   UNL     1       0.493   9.642  20.040  0.00  0.00    +0.000 A 
ENDBRANCH  15  16
ENDBRANCH   4  15
TORSDOF 4
ENDMDL
