MODEL 1
REMARK VINA RESULT:      -7.1      0.000      0.000
REMARK  Name = 
REMARK  3 active torsions:
REMARK  status: ('A' for Active; 'I' for Inactive)
REMARK    1  A    between atoms: C_1  and  C_2
REMARK    2  A    between atoms: C_5  and  N_6
REMARK    3  A    between atoms: C_7  and  C_9
REMARK                            x       y       z     vdW  Elec       q    Type
REMARK                         _______ _______ _______ _____ _____    ______ ____
ROOT
ATOM      1  N   UNL     1       1.940   8.081  19.902  0.00  0.00    +0.000 N 
ATOM      2  C   UNL     1       2.235   6.730  19.872  0.00  0.00    +0.000 C 
ATOM      3  O   UNL     1       1.612   5.928  20.570  0.00  0.00    +0.000 OA
ATOM      4  H   UNL     1       2.434   8.681  19.253  0.00  0.00    +0.000 HD
ENDROOT
BRANCH   2   5
ATOM      5  C   UNL     1       3.323   6.310  18.994  0.00  0.00    +0.000 A 
ATOM      6  C   UNL     1       3.579   6.799  17.724  0.00  0.00    +0.000 A 
ATOM      7  C   UNL     1       4.676   6.148  17.085  0.00  0.00    +0.000 A 
ATOM      8  C   UNL     1       5.220   5.178  17.902  0.00  0.00    +0.000 A 
ATOM      9  S   UNL     1       4.460   5.100  19.423  0.00  0.00    +0.000 S 
ATOM     10  C   UNL     1       6.315   4.236  17.500  0.00  0.00    +0.000 C 
ATOM     11  C   UNL     1       7.009   4.712  16.213  0.00  0.00    +0.000 C 
ATOM     12  C   UNL     1       6.010   5.235  15.170  0.00  0.00    +0.000 C 
ATOM     13  C   UNL     1       5.203   6.424  15.710  0.00  0.00    +0.000 C 
ENDBRANCH   2   5
BRANCH   1  18
ATOM     14  C   UNL     1      -1.565  11.332  23.166  0.00  0.00    +0.000 C 
ATOM     15  C   UNL     1      -0.413  10.787  22.320  0.00  0.00    +0.000 C 
ATOM     16  C   UNL     1       0.230   9.563  22.986  0.00  0.00    +0.000 C 
ATOM     17  C   UNL     1       1.342   8.960  22.124  0.00  0.00    +0.000 C 
ATOM     18  C   UNL     1       0.853   8.622  20.711  0.00  0.00    +0.000 C 
ATOM     19  C   UNL     1       0.224   9.856  20.051  0.00  0.00    +0.000 C 
ATOM     20  C   UNL     1      -0.900  10.437  20.907  0.00  0.00    +0.000 C 
ENDBRANCH   1  18
TORSDOF 2
ENDMDL
MODEL 2
REMARK VINA RESULT:      -7.1      1.915      8.056
REMARK  Name = 
REMARK  3 active torsions:
REMARK  status: ('A' for Active; 'I' for Inactive)
REMARK    1  A    between atoms: C_1  and  C_2
REMARK    2  A    between atoms: C_5  and  N_6
REMARK    3  A    between atoms: C_7  and  C_9
REMARK                            x       y       z     vdW  Elec       q    Type
REMARK                         _______ _______ _______ _____ _____    ______ ____
ROOT
ATOM      1  N   UNL     1       2.750   7.090  18.553  0.00  0.00    +0.000 N 
ATOM      2  C   UNL     1       2.131   8.304  18.316  0.00  0.00    +0.000 C 
ATOM      3  O   UNL     1       2.243   8.874  17.230  0.00  0.00    +0.000 OA
ATOM      4  H   UNL     1       2.562   6.635  19.438  0.00  0.00    +0.000 HD
ENDROOT
BRANCH   2   5
ATOM      5  C   UNL     1       1.360   8.878  19.415  0.00  0.00    +0.000 A 
ATOM      6  C   UNL     1       0.614  10.044  19.365  0.00  0.00    +0.000 A 
ATOM      7  C   UNL     1       0.023  10.384  20.618  0.00  0.00    +0.000 A 
ATOM      8  C   UNL     1       0.345   9.454  21.585  0.00  0.00    +0.000 A 
ATOM      9  S   UNL     1       1.287   8.174  20.977  0.00  0.00    +0.000 S 
ATOM     10  C   UNL     1      -0.023   9.564  23.035  0.00  0.00    +0.000 C 
ATOM     11  C   UNL     1      -1.106  10.636  23.250  0.00  0.00    +0.000 C 
ATOM     12  C   UNL     1      -0.852  11.899  22.413  0.00  0.00    +0.000 C 
ATOM     13  C   UNL     1      -0.828  11.582  20.911  0.00  0.00    +0.000 C 
ENDBRANCH   2   5
BRANCH   1  18
ATOM     14  C   UNL     1       6.551   3.924  15.548  0.00  0.00    +0.000 C 
ATOM     15  C   UNL     1       5.759   4.641  16.642  0.00  0.00    +0.000 C 
ATOM     16  C   UNL     1       5.808   6.163  16.451  0.00  0.00    +0.000 C 
ATOM     17  C   UNL     1       4.968   6.900  17.496  0.00  0.00    +0.000 C 
ATOM     18  C   UNL     1       3.520   6.396  17.526  0.00  0.00    +0.000 C 
ATOM     19  C   UNL     1       3.483   4.876  17.731  0.00  0.00    +0.000 C 
ATOM     20  C   UNL     1       4.306   4.148  16.668  0.00  0.00    +0.000 C 
ENDBRANCH   1  18
TORSDOF 2
ENDMDL
MODEL 3
REMARK VINA RESULT:      -7.0      2.269      8.178
REMARK  Name = 
REMARK  3 active torsions:
REMARK  status: ('A' for Active; 'I' for Inactive)
REMARK    1  A    between atoms: C_1  and  C_2
REMARK    2  A    between atoms: C_5  and  N_6
REMARK    3  A    between atoms: C_7  and  C_9
REMARK                            x       y       z     vdW  Elec       q    Type
REMARK                         _______ _______ _______ _____ _____    ______ ____
ROOT
ATOM      1  N   UNL     1       2.586   7.336  18.635  0.00  0.00    +0.000 N 
ATOM      2  C   UNL     1       1.999   8.540  18.290  0.00  0.00    +0.000 C 
ATOM      3  O   UNL     1       2.049   8.963  17.134  0.00  0.00    +0.000 OA
ATOM      4  H   UNL     1       2.449   7.004  19.582  0.00  0.00    +0.000 HD
ENDROOT
BRANCH   2   5
ATOM      5  C   UNL     1       1.339   9.284  19.359  0.00  0.00    +0.000 A 
ATOM      6  C   UNL     1       1.130   8.837  20.653  0.00  0.00    +0.000 A 
ATOM      7  C   UNL     1       0.400   9.764  21.454  0.00  0.00    +0.000 A 
ATOM      8  C   UNL     1       0.077  10.895  20.731  0.00  0.00    +0.000 A 
ATOM      9  S   UNL     1       0.695  10.858  19.145  0.00  0.00    +0.000 S 
ATOM     10  C   UNL     1      -0.777  12.020  21.236  0.00  0.00    +0.000 C 
ATOM     11  C   UNL     1      -0.945  11.942  22.763  0.00  0.00    +0.000 C 
ATOM     12  C   UNL     1      -1.180  10.505  23.253  0.00  0.00    +0.000 C 
ATOM     13  C   UNL     1      -0.006   9.587  22.885  0.00  0.00    +0.000 C 
ENDBRANCH   2   5
BRANCH   1  18
ATOM     14  C   UNL     1       6.070   3.710  15.768  0.00  0.00    +0.000 C 
ATOM     15  C   UNL     1       5.396   4.597  16.816  0.00  0.00    +0.000 C 
ATOM     16  C   UNL     1       5.403   6.069  16.379  0.00  0.00    +0.000 C 
ATOM     17  C   UNL     1       4.674   6.968  17.380  0.00  0.00    +0.000 C 
ATOM     18  C   UNL     1       3.246   6.482  17.653  0.00  0.00    +0.000 C 
ATOM     19  C   UNL     1       3.253   5.015  18.101  0.00  0.00    +0.000 C 
ATOM     20  C   UNL     1       3.962   4.121  17.084  0.00  0.00    +0.000 C 
ENDBRANCH   1  18
TORSDOF 2
ENDMDL
MODEL 4
REMARK VINA RESULT:      -6.9      4.563      5.792
REMARK  Name = 
REMARK  3 active torsions:
REMARK  status: ('A' for Active; 'I' for Inactive)
REMARK    1  A    between atoms: C_1  and  C_2
REMARK    2  A    between atoms: C_5  and  N_6
REMARK    3  A    between atoms: C_7  and  C_9
REMARK                            x       y       z     vdW  Elec       q    Type
REMARK                         _______ _______ _______ _____ _____    ______ ____
ROOT
ATOM      1  N   UNL     1       3.981   4.125  17.912  0.00  0.00    +0.000 N 
ATOM      2  C   UNL     1       5.340   4.304  17.719  0.00  0.00    +0.000 C 
ATOM      3  O   UNL     1       6.113   4.368  18.676  0.00  0.00    +0.000 OA
ATOM      4  H   UNL     1       3.405   4.005  17.087  0.00  0.00    +0.000 HD
ENDROOT
BRANCH   2   5
ATOM      5  C   UNL     1       5.801   4.430  16.340  0.00  0.00    +0.000 A 
ATOM      6  C   UNL     1       5.286   3.758  15.245  0.00  0.00    +0.000 A 
ATOM      7  C   UNL     1       5.987   4.041  14.035  0.00  0.00    +0.000 A 
ATOM      8  C   UNL     1       7.020   4.928  14.257  0.00  0.00    +0.000 A 
ATOM      9  S   UNL     1       7.100   5.449  15.876  0.00  0.00    +0.000 S 
ATOM     10  C   UNL     1       8.020   5.355  13.224  0.00  0.00    +0.000 C 
ATOM     11  C   UNL     1       7.547   4.980  11.809  0.00  0.00    +0.000 C 
ATOM     12  C   UNL     1       6.921   3.578  11.755  0.00  0.00    +0.000 C 
ATOM     13  C   UNL     1       5.699   3.472  12.679  0.00  0.00    +0.000 C 
ENDBRANCH   2   5
BRANCH   1  18
ATOM     14  C   UNL     1       0.970   2.435  22.557  0.00  0.00    +0.000 C 
ATOM     15  C   UNL     1       1.567   2.597  21.158  0.00  0.00    +0.000 C 
ATOM     16  C   UNL     1       1.242   3.980  20.577  0.00  0.00    +0.000 C 
ATOM     17  C   UNL     1       1.886   4.191  19.204  0.00  0.00    +0.000 C 
ATOM     18  C   UNL     1       3.400   3.950  19.238  0.00  0.00    +0.000 C 
ATOM     19  C   UNL     1       3.711   2.561  19.808  0.00  0.00    +0.000 C 
ATOM     20  C   UNL     1       3.084   2.368  21.189  0.00  0.00    +0.000 C 
ENDBRANCH   1  18
TORSDOF 2
ENDMDL
MODEL 5
REMARK VINA RESULT:      -6.6      0.875      1.539
REMARK  Name = 
REMARK  3 active torsions:
REMARK  status: ('A' for Active; 'I' for Inactive)
REMARK    1  A    between atoms: C_1  and  C_2
REMARK    2  A    between atoms: C_5  and  N_6
REMARK    3  A    between atoms: C_7  and  C_9
REMARK                            x       y       z     vdW  Elec       q    Type
REMARK                         _______ _______ _______ _____ _____    ______ ____
ROOT
ATOM      1  N   UNL     1       1.861   8.171  19.977  0.00  0.00    +0.000 N 
ATOM      2  C   UNL     1       2.131   6.814  19.974  0.00  0.00    +0.000 C 
ATOM      3  O   UNL     1       1.477   6.035  20.668  0.00  0.00    +0.000 OA
ATOM      4  H   UNL     1       2.382   8.752  19.331  0.00  0.00    +0.000 HD
ENDROOT
BRANCH   2   5
ATOM      5  C   UNL     1       3.232   6.361  19.129  0.00  0.00    +0.000 A 
ATOM      6  C   UNL     1       4.220   5.461  19.492  0.00  0.00    +0.000 A 
ATOM      7  C   UNL     1       5.198   5.263  18.472  0.00  0.00    +0.000 A 
ATOM      8  C   UNL     1       4.914   6.027  17.359  0.00  0.00    +0.000 A 
ATOM      9  S   UNL     1       3.470   6.914  17.523  0.00  0.00    +0.000 S 
ATOM     10  C   UNL     1       5.793   6.138  16.149  0.00  0.00    +0.000 C 
ATOM     11  C   UNL     1       6.856   5.026  16.135  0.00  0.00    +0.000 C 
ATOM     12  C   UNL     1       7.468   4.787  17.524  0.00  0.00    +0.000 C 
ATOM     13  C   UNL     1       6.400   4.372  18.545  0.00  0.00    +0.000 C 
ENDBRANCH   2   5
BRANCH   1  18
ATOM     14  C   UNL     1      -1.625  11.506  23.174  0.00  0.00    +0.000 C 
ATOM     15  C   UNL     1      -0.464  10.926  22.365  0.00  0.00    +0.000 C 
ATOM     16  C   UNL     1       0.084   9.651  23.022  0.00  0.00    +0.000 C 
ATOM     17  C   UNL     1       1.203   9.016  22.195  0.00  0.00    +0.000 C 
ATOM     18  C   UNL     1       0.766   8.745  20.750  0.00  0.00    +0.000 C 
ATOM     19  C   UNL     1       0.233  10.028  20.100  0.00  0.00    +0.000 C 
ATOM     20  C   UNL     1      -0.900  10.643  20.921  0.00  0.00    +0.000 C 
ENDBRANCH   1  18
TORSDOF 2
ENDMDL
MODEL 6
REMARK VINA RESULT:      -6.6      2.797      8.006
REMARK  Name = 
REMARK  3 active torsions:
REMARK  status: ('A' for Active; 'I' for Inactive)
REMARK    1  A    between atoms: C_1  and  C_2
REMARK    2  A    between atoms: C_5  and  N_6
REMARK    3  A    between atoms: C_7  and  C_9
REMARK                            x       y       z     vdW  Elec       q    Type
REMARK                         _______ _______ _______ _____ _____    ______ ____
ROOT
ATOM      1  N   UNL     1       1.909   6.312  19.765  0.00  0.00    +0.000 N 
ATOM      2  C   UNL     1       2.064   7.612  19.320  0.00  0.00    +0.000 C 
ATOM      3  O   UNL     1       2.761   7.868  18.336  0.00  0.00    +0.000 OA
ATOM      4  H   UNL     1       1.267   6.154  20.532  0.00  0.00    +0.000 HD
ENDROOT
BRANCH   2   5
ATOM      5  C   UNL     1       1.382   8.656  20.078  0.00  0.00    +0.000 A 
ATOM      6  C   UNL     1       0.959   8.562  21.394  0.00  0.00    +0.000 A 
ATOM      7  C   UNL     1       0.265   9.725  21.842  0.00  0.00    +0.000 A 
ATOM      8  C   UNL     1       0.184  10.670  20.840  0.00  0.00    +0.000 A 
ATOM      9  S   UNL     1       0.981  10.186  19.416  0.00  0.00    +0.000 S 
ATOM     10  C   UNL     1      -0.571  11.963  20.940  0.00  0.00    +0.000 C 
ATOM     11  C   UNL     1      -0.933  12.279  22.401  0.00  0.00    +0.000 C 
ATOM     12  C   UNL     1      -1.413  11.035  23.166  0.00  0.00    +0.000 C 
ATOM     13  C   UNL     1      -0.333   9.944  23.198  0.00  0.00    +0.000 C 
ENDBRANCH   2   5
BRANCH   1  18
ATOM     14  C   UNL     1       3.929   1.131  18.157  0.00  0.00    +0.000 C 
ATOM     15  C   UNL     1       3.292   2.306  18.900  0.00  0.00    +0.000 C 
ATOM     16  C   UNL     1       4.326   3.404  19.186  0.00  0.00    +0.000 C 
ATOM     17  C   UNL     1       3.697   4.620  19.870  0.00  0.00    +0.000 C 
ATOM     18  C   UNL     1       2.510   5.176  19.074  0.00  0.00    +0.000 C 
ATOM     19  C   UNL     1       1.478   4.073  18.806  0.00  0.00    +0.000 C 
ATOM     20  C   UNL     1       2.111   2.873  18.102  0.00  0.00    +0.000 C 
ENDBRANCH   1  18
TORSDOF 2
ENDMDL
MODEL 7
REMARK VINA RESULT:      -6.4      1.682      8.063
REMARK  Name = 
REMARK  3 active torsions:
REMARK  status: ('A' for Active; 'I' for Inactive)
REMARK    1  A    between atoms: C_1  and  C_2
REMARK    2  A    between atoms: C_5  and  N_6
REMARK    3  A    between atoms: C_7  and  C_9
REMARK                            x       y       z     vdW  Elec       q    Type
REMARK                         _______ _______ _______ _____ _____    ______ ____
ROOT
ATOM      1  N   UNL     1       3.347   7.212  18.708  0.00  0.00    +0.000 N 
ATOM      2  C   UNL     1       2.474   6.895  19.733  0.00  0.00    +0.000 C 
ATOM      3  O   UNL     1       2.350   5.733  20.124  0.00  0.00    +0.000 OA
ATOM      4  H   UNL     1       3.462   8.193  18.479  0.00  0.00    +0.000 HD
ENDROOT
BRANCH   2   5
ATOM      5  C   UNL     1       1.703   7.992  20.308  0.00  0.00    +0.000 A 
ATOM      6  C   UNL     1       1.337   8.121  21.638  0.00  0.00    +0.000 A 
ATOM      7  C   UNL     1       0.530   9.271  21.886  0.00  0.00    +0.000 A 
ATOM      8  C   UNL     1       0.309   9.981  20.724  0.00  0.00    +0.000 A 
ATOM      9  S   UNL     1       1.108   9.306  19.381  0.00  0.00    +0.000 S 
ATOM     10  C   UNL     1      -0.584  11.181  20.610  0.00  0.00    +0.000 C 
ATOM     11  C   UNL     1      -0.932  11.744  21.998  0.00  0.00    +0.000 C 
ATOM     12  C   UNL     1      -1.242  10.637  23.017  0.00  0.00    +0.000 C 
ATOM     13  C   UNL     1      -0.044   9.694  23.204  0.00  0.00    +0.000 C 
ENDBRANCH   2   5
BRANCH   1  18
ATOM     14  C   UNL     1       6.060   3.627  15.062  0.00  0.00    +0.000 C 
ATOM     15  C   UNL     1       5.156   4.681  15.704  0.00  0.00    +0.000 C 
ATOM     16  C   UNL     1       4.225   4.048  16.748  0.00  0.00    +0.000 C 
ATOM     17  C   UNL     1       3.357   5.094  17.451  0.00  0.00    +0.000 C 
ATOM     18  C   UNL     1       4.200   6.213  18.074  0.00  0.00    +0.000 C 
ATOM     19  C   UNL     1       5.116   6.847  17.019  0.00  0.00    +0.000 C 
ATOM     20  C   UNL     1       5.995   5.798  16.338  0.00  0.00    +0.000 C 
ENDBRANCH   1  18
TORSDOF 2
ENDMDL
MODEL 8
REMARK VINA RESULT:      -6.4      1.756      1.997
REMARK  Name = 
REMARK  3 active torsions:
REMARK  status: ('A' for Active; 'I' for Inactive)
REMARK    1  A    between atoms: C_1  and  C_2
REMARK    2  A    between atoms: C_5  and  N_6
REMARK    3  A    between atoms: C_7  and  C_9
REMARK                            x       y       z     vdW  Elec       q    Type
REMARK                         _______ _______ _______ _____ _____    ______ ____
ROOT
ATOM      1  N   UNL     1       1.376   9.149  18.940  0.00  0.00    +0.000 N 
ATOM      2  C   UNL     1       1.832   8.004  19.568  0.00  0.00    +0.000 C 
ATOM      3  O   UNL     1       1.483   7.728  20.717  0.00  0.00    +0.000 OA
ATOM      4  H   UNL     1       1.637   9.285  17.970  0.00  0.00    +0.000 HD
ENDROOT
BRANCH   2   5
ATOM      5  C   UNL     1       2.752   7.158  18.814  0.00  0.00    +0.000 A 
ATOM      6  C   UNL     1       3.493   7.543  17.710  0.00  0.00    +0.000 A 
ATOM      7  C   UNL     1       4.255   6.476  17.147  0.00  0.00    +0.000 A 
ATOM      8  C   UNL     1       4.062   5.305  17.852  0.00  0.00    +0.000 A 
ATOM      9  S   UNL     1       3.034   5.510  19.193  0.00  0.00    +0.000 S 
ATOM     10  C   UNL     1       4.628   3.971  17.467  0.00  0.00    +0.000 C 
ATOM     11  C   UNL     1       5.739   4.125  16.415  0.00  0.00    +0.000 C 
ATOM     12  C   UNL     1       5.382   5.160  15.337  0.00  0.00    +0.000 C 
ATOM     13  C   UNL     1       5.149   6.549  15.947  0.00  0.00    +0.000 C 
ENDBRANCH   2   5
BRANCH   1  18
ATOM     14  C   UNL     1      -2.024  13.591  20.427  0.00  0.00    +0.000 C 
ATOM     15  C   UNL     1      -1.026  12.654  19.745  0.00  0.00    +0.000 C 
ATOM     16  C   UNL     1       0.150  12.328  20.676  0.00  0.00    +0.000 C 
ATOM     17  C   UNL     1       1.129  11.339  20.039  0.00  0.00    +0.000 C 
ATOM     18  C   UNL     1       0.428  10.059  19.572  0.00  0.00    +0.000 C 
ATOM     19  C   UNL     1      -0.737  10.396  18.632  0.00  0.00    +0.000 C 
ATOM     20  C   UNL     1      -1.722  11.366  19.285  0.00  0.00    +0.000 C 
ENDBRANCH   1  18
TORSDOF 2
ENDMDL
MODEL 9
REMARK VINA RESULT:      -6.3      2.403      3.215
REMARK  Name = 
REMARK  3 active torsions:
REMARK  status: ('A' for Active; 'I' for Inactive)
REMARK    1  A    between atoms: C_1  and  C_2
REMARK    2  A    between atoms: C_5  and  N_6
REMARK    3  A    between atoms: C_7  and  C_9
REMARK                            x       y       z     vdW  Elec       q    Type
REMARK                         _______ _______ _______ _____ _____    ______ ____
ROOT
ATOM      1  N   UNL     1       1.333   8.808  19.496  0.00  0.00    +0.000 N 
ATOM      2  C   UNL     1       2.096   8.266  18.477  0.00  0.00    +0.000 C 
ATOM      3  O   UNL     1       2.383   8.927  17.478  0.00  0.00    +0.000 OA
ATOM      4  H   UNL     1       1.192   8.243  20.325  0.00  0.00    +0.000 HD
ENDROOT
BRANCH   2   5
ATOM      5  C   UNL     1       2.523   6.880  18.637  0.00  0.00    +0.000 A 
ATOM      6  C   UNL     1       3.139   6.101  17.671  0.00  0.00    +0.000 A 
ATOM      7  C   UNL     1       3.381   4.763  18.102  0.00  0.00    +0.000 A 
ATOM      8  C   UNL     1       2.935   4.571  19.394  0.00  0.00    +0.000 A 
ATOM      9  S   UNL     1       2.297   5.990  20.085  0.00  0.00    +0.000 S 
ATOM     10  C   UNL     1       2.937   3.256  20.115  0.00  0.00    +0.000 C 
ATOM     11  C   UNL     1       3.825   2.230  19.390  0.00  0.00    +0.000 C 
ATOM     12  C   UNL     1       3.650   2.282  17.865  0.00  0.00    +0.000 C 
ATOM     13  C   UNL     1       4.013   3.664  17.303  0.00  0.00    +0.000 C 
ENDBRANCH   2   5
BRANCH   1  18
ATOM     14  C   UNL     1      -1.505  13.807  20.174  0.00  0.00    +0.000 C 
ATOM     15  C   UNL     1      -1.043  12.349  20.215  0.00  0.00    +0.000 C 
ATOM     16  C   UNL     1      -1.030  11.735  18.808  0.00  0.00    +0.000 C 
ATOM     17  C   UNL     1      -0.507  10.297  18.815  0.00  0.00    +0.000 C 
ATOM     18  C   UNL     1       0.874  10.192  19.473  0.00  0.00    +0.000 C 
ATOM     19  C   UNL     1       0.846  10.797  20.882  0.00  0.00    +0.000 C 
ATOM     20  C   UNL     1       0.344  12.241  20.862  0.00  0.00    +0.000 C 
ENDBRANCH   1  18
TORSDOF 2
ENDMDL
