MODEL 1
REMARK VINA RESULT:      -8.0      0.000      0.000
REMARK  Name = 
REMARK  5 active torsions:
REMARK  status: ('A' for Active; 'I' for Inactive)
REMARK    1  A    between atoms: N_7  and  C_8
REMARK    2  A    between atoms: C_8  and  C_9
REMARK    3  A    between atoms: C_9  and  C_10
REMARK    4  A    between atoms: C_10  and  N_11
REMARK    5  A    between atoms: N_23  and  C_24
REMARK                            x       y       z     vdW  Elec       q    Type
REMARK                         _______ _______ _______ _____ _____    ______ ____
ROOT
ATOM      1  O   UNL     1       3.818   7.488  17.561  0.00  0.00    +0.000 OA
ATOM      2  C   UNL     1       3.489   6.659  18.409  0.00  0.00    +0.000 A 
ATOM      3  C   UNL     1       2.510   6.979  19.424  0.00  0.00    +0.000 A 
ATOM      4  C   UNL     1       2.072   6.093  20.374  0.00  0.00    +0.000 A 
ATOM      5  N   UNL     1       1.126   6.637  21.187  0.00  0.00    +0.000 NA
ATOM      6  C   UNL     1       0.966   7.861  20.732  0.00  0.00    +0.000 A 
ATOM      7  N   UNL     1       1.811   8.134  19.678  0.00  0.00    +0.000 N 
ATOM      8  C   UNL     1       2.605   4.764  20.415  0.00  0.00    +0.000 A 
ATOM      9  C   UNL     1       2.220   3.859  21.407  0.00  0.00    +0.000 A 
ATOM     10  C   UNL     1       2.793   2.594  21.431  0.00  0.00    +0.000 A 
ATOM     11  C   UNL     1       3.731   2.289  20.464  0.00  0.00    +0.000 A 
ATOM     12  N   UNL     1       4.115   3.146  19.488  0.00  0.00    +0.000 NA
ATOM     13  C   UNL     1       3.554   4.383  19.454  0.00  0.00    +0.000 A 
ATOM     14  N   UNL     1       3.976   5.337  18.455  0.00  0.00    +0.000 N 
ENDROOT
BRANCH  14  15
ATOM     15  C   UNL     1       4.962   4.914  17.519  0.00  0.00    +0.000 A 
ATOM     16  C   UNL     1       6.323   5.028  17.835  0.00  0.00    +0.000 A 
ATOM     17  C   UNL     1       7.301   4.638  16.916  0.00  0.00    +0.000 A 
ATOM     18  C   UNL     1       6.927   4.162  15.661  0.00  0.00    +0.000 A 
ATOM     19  C   UNL     1       5.577   4.059  15.329  0.00  0.00    +0.000 A 
ATOM     20  C   UNL     1       4.598   4.420  16.258  0.00  0.00    +0.000 A 
ENDBRANCH  14  15
BRANCH   7  21
ATOM     21  C   UNL     1       1.862   9.374  18.925  0.00  0.00    +0.000 C 
BRANCH  21  22
ATOM     22  C   UNL     1       0.680   9.679  17.993  0.00  0.00    +0.000 C 
BRANCH  22  23
ATOM     23  C   UNL     1      -0.458  10.462  18.676  0.00  0.00    +0.000 C 
BRANCH  23  24
ATOM     24  N   UNL     1      -1.353  11.080  17.692  0.00  0.00    +0.000 NA
ATOM     25  C   UNL     1      -2.271  12.113  18.212  0.00  0.00    +0.000 C 
ATOM     26  C   UNL     1      -3.654  11.636  18.704  0.00  0.00    +0.000 C 
ATOM     27  O   UNL     1      -4.278  10.727  17.794  0.00  0.00    +0.000 OA
ATOM     28  C   UNL     1      -3.415   9.613  17.552  0.00  0.00    +0.000 C 
ATOM     29  C   UNL     1      -2.109  10.086  16.900  0.00  0.00    +0.000 C 
ENDBRANCH  23  24
ENDBRANCH  22  23
ENDBRANCH  21  22
ENDBRANCH   7  21
TORSDOF 5
ENDMDL
MODEL 2
REMARK VINA RESULT:      -7.9      2.145      2.638
REMARK  Name = 
REMARK  5 active torsions:
REMARK  status: ('A' for Active; 'I' for Inactive)
REMARK    1  A    between atoms: N_7  and  C_8
REMARK    2  A    between atoms: C_8  and  C_9
REMARK    3  A    between atoms: C_9  and  C_10
REMARK    4  A    between atoms: C_10  and  N_11
REMARK    5  A    between atoms: N_23  and  C_24
REMARK                            x       y       z     vdW  Elec       q    Type
REMARK                         _______ _______ _______ _____ _____    ______ ____
ROOT
ATOM      1  O   UNL     1       3.832   7.523  17.450  0.00  0.00    +0.000 OA
ATOM      2  C   UNL     1       3.486   6.721  18.317  0.00  0.00    +0.000 A 
ATOM      3  C   UNL     1       2.490   7.075  19.304  0.00  0.00    +0.000 A 
ATOM      4  C   UNL     1       2.032   6.220  20.273  0.00  0.00    +0.000 A 
ATOM      5  N   UNL     1       1.073   6.791  21.051  0.00  0.00    +0.000 NA
ATOM      6  C   UNL     1       0.926   8.000  20.556  0.00  0.00    +0.000 A 
ATOM      7  N   UNL     1       1.789   8.239  19.509  0.00  0.00    +0.000 N 
ATOM      8  C   UNL     1       2.561   4.891  20.364  0.00  0.00    +0.000 A 
ATOM      9  C   UNL     1       2.155   4.018  21.377  0.00  0.00    +0.000 A 
ATOM     10  C   UNL     1       2.724   2.754  21.449  0.00  0.00    +0.000 A 
ATOM     11  C   UNL     1       3.678   2.417  20.509  0.00  0.00    +0.000 A 
ATOM     12  N   UNL     1       4.082   3.242  19.515  0.00  0.00    +0.000 NA
ATOM     13  C   UNL     1       3.526   4.479  19.432  0.00  0.00    +0.000 A 
ATOM     14  N   UNL     1       3.968   5.401  18.413  0.00  0.00    +0.000 N 
ENDROOT
BRANCH  14  15
ATOM     15  C   UNL     1       4.970   4.946  17.508  0.00  0.00    +0.000 A 
ATOM     16  C   UNL     1       6.326   5.082  17.837  0.00  0.00    +0.000 A 
ATOM     17  C   UNL     1       7.318   4.661  16.948  0.00  0.00    +0.000 A 
ATOM     18  C   UNL     1       6.965   4.133  15.708  0.00  0.00    +0.000 A 
ATOM     19  C   UNL     1       5.620   4.008  15.362  0.00  0.00    +0.000 A 
ATOM     20  C   UNL     1       4.626   4.399  16.263  0.00  0.00    +0.000 A 
ENDBRANCH  14  15
BRANCH   7  21
ATOM     21  C   UNL     1       1.857   9.455  18.720  0.00  0.00    +0.000 C 
BRANCH  21  22
ATOM     22  C   UNL     1       0.551  10.237  18.520  0.00  0.00    +0.000 C 
BRANCH  22  23
ATOM     23  C   UNL     1       0.612  11.684  19.047  0.00  0.00    +0.000 C 
BRANCH  23  24
ATOM     24  N   UNL     1       1.179  11.742  20.398  0.00  0.00    +0.000 NA
ATOM     25  C   UNL     1       0.244  11.461  21.505  0.00  0.00    +0.000 C 
ATOM     26  C   UNL     1      -0.508  12.665  22.109  0.00  0.00    +0.000 C 
ATOM     27  O   UNL     1       0.351  13.780  22.360  0.00  0.00    +0.000 OA
ATOM     28  C   UNL     1       1.025  14.156  21.156  0.00  0.00    +0.000 C 
ATOM     29  C   UNL     1       1.907  13.002  20.661  0.00  0.00    +0.000 C 
ENDBRANCH  23  24
ENDBRANCH  22  23
ENDBRANCH  21  22
ENDBRANCH   7  21
TORSDOF 5
ENDMDL
MODEL 3
REMARK VINA RESULT:      -7.8      0.705      1.186
REMARK  Name = 
REMARK  5 active torsions:
REMARK  status: ('A' for Active; 'I' for Inactive)
REMARK    1  A    between atoms: N_7  and  C_8
REMARK    2  A    between atoms: C_8  and  C_9
REMARK    3  A    between atoms: C_9  and  C_10
REMARK    4  A    between atoms: C_10  and  N_11
REMARK    5  A    between atoms: N_23  and  C_24
REMARK                            x       y       z     vdW  Elec       q    Type
REMARK                         _______ _______ _______ _____ _____    ______ ____
ROOT
ATOM      1  O   UNL     1       3.743   7.596  17.492  0.00  0.00    +0.000 OA
ATOM      2  C   UNL     1       3.425   6.772  18.348  0.00  0.00    +0.000 A 
ATOM      3  C   UNL     1       2.445   7.091  19.362  0.00  0.00    +0.000 A 
ATOM      4  C   UNL     1       2.018   6.210  20.322  0.00  0.00    +0.000 A 
ATOM      5  N   UNL     1       1.067   6.751  21.131  0.00  0.00    +0.000 NA
ATOM      6  C   UNL     1       0.893   7.968  20.664  0.00  0.00    +0.000 A 
ATOM      7  N   UNL     1       1.732   8.240  19.606  0.00  0.00    +0.000 N 
ATOM      8  C   UNL     1       2.567   4.887  20.374  0.00  0.00    +0.000 A 
ATOM      9  C   UNL     1       2.193   3.988  21.377  0.00  0.00    +0.000 A 
ATOM     10  C   UNL     1       2.781   2.730  21.411  0.00  0.00    +0.000 A 
ATOM     11  C   UNL     1       3.720   2.426  20.446  0.00  0.00    +0.000 A 
ATOM     12  N   UNL     1       4.093   3.278  19.461  0.00  0.00    +0.000 NA
ATOM     13  C   UNL     1       3.518   4.508  19.416  0.00  0.00    +0.000 A 
ATOM     14  N   UNL     1       3.927   5.456  18.407  0.00  0.00    +0.000 N 
ENDROOT
BRANCH  14  15
ATOM     15  C   UNL     1       4.917   5.035  17.473  0.00  0.00    +0.000 A 
ATOM     16  C   UNL     1       4.531   4.473  16.248  0.00  0.00    +0.000 A 
ATOM     17  C   UNL     1       5.491   4.035  15.334  0.00  0.00    +0.000 A 
ATOM     18  C   UNL     1       6.846   4.121  15.650  0.00  0.00    +0.000 A 
ATOM     19  C   UNL     1       7.242   4.663  16.872  0.00  0.00    +0.000 A 
ATOM     20  C   UNL     1       6.284   5.130  17.775  0.00  0.00    +0.000 A 
ENDBRANCH  14  15
BRANCH   7  21
ATOM     21  C   UNL     1       1.768   9.474  18.841  0.00  0.00    +0.000 C 
BRANCH  21  22
ATOM     22  C   UNL     1       0.667  10.507  19.122  0.00  0.00    +0.000 C 
BRANCH  22  23
ATOM     23  C   UNL     1      -0.586  10.327  18.244  0.00  0.00    +0.000 C 
BRANCH  23  24
ATOM     24  N   UNL     1      -1.256  11.607  17.992  0.00  0.00    +0.000 NA
ATOM     25  C   UNL     1      -1.410  12.497  19.160  0.00  0.00    +0.000 C 
ATOM     26  C   UNL     1      -2.701  12.343  19.991  0.00  0.00    +0.000 C 
ATOM     27  O   UNL     1      -3.873  12.266  19.176  0.00  0.00    +0.000 OA
ATOM     28  C   UNL     1      -3.745  11.194  18.239  0.00  0.00    +0.000 C 
ATOM     29  C   UNL     1      -2.555  11.449  17.304  0.00  0.00    +0.000 C 
ENDBRANCH  23  24
ENDBRANCH  22  23
ENDBRANCH  21  22
ENDBRANCH   7  21
TORSDOF 5
ENDMDL
MODEL 4
REMARK VINA RESULT:      -7.8      0.670      1.405
REMARK  Name = 
REMARK  5 active torsions:
REMARK  status: ('A' for Active; 'I' for Inactive)
REMARK    1  A    between atoms: N_7  and  C_8
REMARK    2  A    between atoms: C_8  and  C_9
REMARK    3  A    between atoms: C_9  and  C_10
REMARK    4  A    between atoms: C_10  and  N_11
REMARK    5  A    between atoms: N_23  and  C_24
REMARK                            x       y       z     vdW  Elec       q    Type
REMARK                         _______ _______ _______ _____ _____    ______ ____
ROOT
ATOM      1  O   UNL     1       3.564   7.808  17.643  0.00  0.00    +0.000 OA
ATOM      2  C   UNL     1       3.281   6.947  18.475  0.00  0.00    +0.000 A 
ATOM      3  C   UNL     1       2.295   7.199  19.503  0.00  0.00    +0.000 A 
ATOM      4  C   UNL     1       1.907   6.274  20.437  0.00  0.00    +0.000 A 
ATOM      5  N   UNL     1       0.941   6.755  21.266  0.00  0.00    +0.000 NA
ATOM      6  C   UNL     1       0.719   7.978  20.837  0.00  0.00    +0.000 A 
ATOM      7  N   UNL     1       1.542   8.313  19.784  0.00  0.00    +0.000 N 
ATOM      8  C   UNL     1       2.505   4.972  20.448  0.00  0.00    +0.000 A 
ATOM      9  C   UNL     1       2.171   4.030  21.424  0.00  0.00    +0.000 A 
ATOM     10  C   UNL     1       2.805   2.794  21.418  0.00  0.00    +0.000 A 
ATOM     11  C   UNL     1       3.750   2.555  20.440  0.00  0.00    +0.000 A 
ATOM     12  N   UNL     1       4.085   3.449  19.480  0.00  0.00    +0.000 NA
ATOM     13  C   UNL     1       3.465   4.657  19.474  0.00  0.00    +0.000 A 
ATOM     14  N   UNL     1       3.833   5.650  18.492  0.00  0.00    +0.000 N 
ENDROOT
BRANCH  14  15
ATOM     15  C   UNL     1       4.832   5.294  17.542  0.00  0.00    +0.000 A 
ATOM     16  C   UNL     1       4.480   4.584  16.386  0.00  0.00    +0.000 A 
ATOM     17  C   UNL     1       5.454   4.209  15.458  0.00  0.00    +0.000 A 
ATOM     18  C   UNL     1       6.794   4.510  15.695  0.00  0.00    +0.000 A 
ATOM     19  C   UNL     1       7.160   5.201  16.849  0.00  0.00    +0.000 A 
ATOM     20  C   UNL     1       6.183   5.604  17.763  0.00  0.00    +0.000 A 
ENDBRANCH  14  15
BRANCH   7  21
ATOM     21  C   UNL     1       1.528   9.569  19.056  0.00  0.00    +0.000 C 
BRANCH  21  22
ATOM     22  C   UNL     1       0.539   9.692  17.887  0.00  0.00    +0.000 C 
BRANCH  22  23
ATOM     23  C   UNL     1      -0.696  10.553  18.213  0.00  0.00    +0.000 C 
BRANCH  23  24
ATOM     24  N   UNL     1      -1.936   9.902  17.780  0.00  0.00    +0.000 NA
ATOM     25  C   UNL     1      -2.143   9.808  16.321  0.00  0.00    +0.000 C 
ATOM     26  C   UNL     1      -2.890  10.976  15.644  0.00  0.00    +0.000 C 
ATOM     27  O   UNL     1      -4.064  11.367  16.360  0.00  0.00    +0.000 OA
ATOM     28  C   UNL     1      -3.724  11.698  17.708  0.00  0.00    +0.000 C 
ATOM     29  C   UNL     1      -3.139  10.473  18.423  0.00  0.00    +0.000 C 
ENDBRANCH  23  24
ENDBRANCH  22  23
ENDBRANCH  21  22
ENDBRANCH   7  21
TORSDOF 5
ENDMDL
MODEL 5
REMARK VINA RESULT:      -7.7      1.623      1.999
REMARK  Name = 
REMARK  5 active torsions:
REMARK  status: ('A' for Active; 'I' for Inactive)
REMARK    1  A    between atoms: N_7  and  C_8
REMARK    2  A    between atoms: C_8  and  C_9
REMARK    3  A    between atoms: C_9  and  C_10
REMARK    4  A    between atoms: C_10  and  N_11
REMARK    5  A    between atoms: N_23  and  C_24
REMARK                            x       y       z     vdW  Elec       q    Type
REMARK                         _______ _______ _______ _____ _____    ______ ____
ROOT
ATOM      1  O   UNL     1       3.796   7.537  17.459  0.00  0.00    +0.000 OA
ATOM      2  C   UNL     1       3.459   6.731  18.326  0.00  0.00    +0.000 A 
ATOM      3  C   UNL     1       2.475   7.079  19.326  0.00  0.00    +0.000 A 
ATOM      4  C   UNL     1       2.028   6.219  20.295  0.00  0.00    +0.000 A 
ATOM      5  N   UNL     1       1.078   6.786  21.088  0.00  0.00    +0.000 NA
ATOM      6  C   UNL     1       0.924   7.998  20.599  0.00  0.00    +0.000 A 
ATOM      7  N   UNL     1       1.775   8.242  19.545  0.00  0.00    +0.000 N 
ATOM      8  C   UNL     1       2.559   4.890  20.374  0.00  0.00    +0.000 A 
ATOM      9  C   UNL     1       2.165   4.013  21.388  0.00  0.00    +0.000 A 
ATOM     10  C   UNL     1       2.736   2.748  21.448  0.00  0.00    +0.000 A 
ATOM     11  C   UNL     1       3.680   2.416  20.495  0.00  0.00    +0.000 A 
ATOM     12  N   UNL     1       4.071   3.247  19.500  0.00  0.00    +0.000 NA
ATOM     13  C   UNL     1       3.514   4.484  19.430  0.00  0.00    +0.000 A 
ATOM     14  N   UNL     1       3.944   5.410  18.410  0.00  0.00    +0.000 N 
ENDROOT
BRANCH  14  15
ATOM     15  C   UNL     1       4.936   4.961  17.492  0.00  0.00    +0.000 A 
ATOM     16  C   UNL     1       6.295   5.125  17.792  0.00  0.00    +0.000 A 
ATOM     17  C   UNL     1       7.277   4.709  16.890  0.00  0.00    +0.000 A 
ATOM     18  C   UNL     1       6.909   4.158  15.664  0.00  0.00    +0.000 A 
ATOM     19  C   UNL     1       5.560   4.005  15.347  0.00  0.00    +0.000 A 
ATOM     20  C   UNL     1       4.577   4.391  16.261  0.00  0.00    +0.000 A 
ENDBRANCH  14  15
BRANCH   7  21
ATOM     21  C   UNL     1       1.834   9.462  18.760  0.00  0.00    +0.000 C 
BRANCH  21  22
ATOM     22  C   UNL     1       0.504  10.168  18.460  0.00  0.00    +0.000 C 
BRANCH  22  23
ATOM     23  C   UNL     1       0.252  11.407  19.340  0.00  0.00    +0.000 C 
BRANCH  23  24
ATOM     24  N   UNL     1      -0.964  11.258  20.146  0.00  0.00    +0.000 NA
ATOM     25  C   UNL     1      -2.068  12.186  19.831  0.00  0.00    +0.000 C 
ATOM     26  C   UNL     1      -2.100  13.523  20.601  0.00  0.00    +0.000 C 
ATOM     27  O   UNL     1      -1.882  13.355  22.003  0.00  0.00    +0.000 OA
ATOM     28  C   UNL     1      -0.646  12.673  22.226  0.00  0.00    +0.000 C 
ATOM     29  C   UNL     1      -0.694  11.272  21.600  0.00  0.00    +0.000 C 
ENDBRANCH  23  24
ENDBRANCH  22  23
ENDBRANCH  21  22
ENDBRANCH   7  21
TORSDOF 5
ENDMDL
MODEL 6
REMARK VINA RESULT:      -7.7      1.125      1.445
REMARK  Name = 
REMARK  5 active torsions:
REMARK  status: ('A' for Active; 'I' for Inactive)
REMARK    1  A    between atoms: N_7  and  C_8
REMARK    2  A    between atoms: C_8  and  C_9
REMARK    3  A    between atoms: C_9  and  C_10
REMARK    4  A    between atoms: C_10  and  N_11
REMARK    5  A    between atoms: N_23  and  C_24
REMARK                            x       y       z     vdW  Elec       q    Type
REMARK                         _______ _______ _______ _____ _____    ______ ____
ROOT
ATOM      1  O   UNL     1       3.755   7.556  17.569  0.00  0.00    +0.000 OA
ATOM      2  C   UNL     1       3.430   6.729  18.421  0.00  0.00    +0.000 A 
ATOM      3  C   UNL     1       2.455   7.052  19.440  0.00  0.00    +0.000 A 
ATOM      4  C   UNL     1       2.022   6.169  20.395  0.00  0.00    +0.000 A 
ATOM      5  N   UNL     1       1.079   6.715  21.210  0.00  0.00    +0.000 NA
ATOM      6  C   UNL     1       0.917   7.937  20.752  0.00  0.00    +0.000 A 
ATOM      7  N   UNL     1       1.756   8.207  19.693  0.00  0.00    +0.000 N 
ATOM      8  C   UNL     1       2.557   4.840  20.438  0.00  0.00    +0.000 A 
ATOM      9  C   UNL     1       2.176   3.939  21.435  0.00  0.00    +0.000 A 
ATOM     10  C   UNL     1       2.751   2.675  21.460  0.00  0.00    +0.000 A 
ATOM     11  C   UNL     1       3.685   2.367  20.490  0.00  0.00    +0.000 A 
ATOM     12  N   UNL     1       4.063   3.221  19.510  0.00  0.00    +0.000 NA
ATOM     13  C   UNL     1       3.502   4.458  19.474  0.00  0.00    +0.000 A 
ATOM     14  N   UNL     1       3.918   5.408  18.470  0.00  0.00    +0.000 N 
ENDROOT
BRANCH  14  15
ATOM     15  C   UNL     1       4.901   4.982  17.531  0.00  0.00    +0.000 A 
ATOM     16  C   UNL     1       6.263   5.096  17.842  0.00  0.00    +0.000 A 
ATOM     17  C   UNL     1       7.237   4.703  16.920  0.00  0.00    +0.000 A 
ATOM     18  C   UNL     1       6.858   4.226  15.667  0.00  0.00    +0.000 A 
ATOM     19  C   UNL     1       5.506   4.124  15.340  0.00  0.00    +0.000 A 
ATOM     20  C   UNL     1       4.531   4.487  16.272  0.00  0.00    +0.000 A 
ENDBRANCH  14  15
BRANCH   7  21
ATOM     21  C   UNL     1       1.803   9.445  18.936  0.00  0.00    +0.000 C 
BRANCH  21  22
ATOM     22  C   UNL     1       0.618   9.745  18.006  0.00  0.00    +0.000 C 
BRANCH  22  23
ATOM     23  C   UNL     1      -0.634  10.253  18.746  0.00  0.00    +0.000 C 
BRANCH  23  24
ATOM     24  N   UNL     1      -1.037  11.582  18.274  0.00  0.00    +0.000 NA
ATOM     25  C   UNL     1      -0.183  12.708  18.703  0.00  0.00    +0.000 C 
ATOM     26  C   UNL     1      -0.560  13.408  20.025  0.00  0.00    +0.000 C 
ATOM     27  O   UNL     1      -1.959  13.688  20.119  0.00  0.00    +0.000 OA
ATOM     28  C   UNL     1      -2.709  12.482  19.954  0.00  0.00    +0.000 C 
ATOM     29  C   UNL     1      -2.455  11.888  18.562  0.00  0.00    +0.000 C 
ENDBRANCH  23  24
ENDBRANCH  22  23
ENDBRANCH  21  22
ENDBRANCH   7  21
TORSDOF 5
ENDMDL
MODEL 7
REMARK VINA RESULT:      -7.7      1.474      2.028
REMARK  Name = 
REMARK  5 active torsions:
REMARK  status: ('A' for Active; 'I' for Inactive)
REMARK    1  A    between atoms: N_7  and  C_8
REMARK    2  A    between atoms: C_8  and  C_9
REMARK    3  A    between atoms: C_9  and  C_10
REMARK    4  A    between atoms: C_10  and  N_11
REMARK    5  A    between atoms: N_23  and  C_24
REMARK                            x       y       z     vdW  Elec       q    Type
REMARK                         _______ _______ _______ _____ _____    ______ ____
ROOT
ATOM      1  O   UNL     1       3.774   7.561  17.565  0.00  0.00    +0.000 OA
ATOM      2  C   UNL     1       3.451   6.727  18.410  0.00  0.00    +0.000 A 
ATOM      3  C   UNL     1       2.468   7.035  19.426  0.00  0.00    +0.000 A 
ATOM      4  C   UNL     1       2.037   6.143  20.373  0.00  0.00    +0.000 A 
ATOM      5  N   UNL     1       1.085   6.676  21.186  0.00  0.00    +0.000 NA
ATOM      6  C   UNL     1       0.915   7.900  20.734  0.00  0.00    +0.000 A 
ATOM      7  N   UNL     1       1.758   8.183  19.682  0.00  0.00    +0.000 N 
ATOM      8  C   UNL     1       2.582   4.818  20.410  0.00  0.00    +0.000 A 
ATOM      9  C   UNL     1       2.203   3.907  21.400  0.00  0.00    +0.000 A 
ATOM     10  C   UNL     1       2.788   2.648  21.420  0.00  0.00    +0.000 A 
ATOM     11  C   UNL     1       3.729   2.354  20.453  0.00  0.00    +0.000 A 
ATOM     12  N   UNL     1       4.107   3.217  19.480  0.00  0.00    +0.000 NA
ATOM     13  C   UNL     1       3.535   4.449  19.449  0.00  0.00    +0.000 A 
ATOM     14  N   UNL     1       3.950   5.409  18.454  0.00  0.00    +0.000 N 
ENDROOT
BRANCH  14  15
ATOM     15  C   UNL     1       4.941   4.997  17.518  0.00  0.00    +0.000 A 
ATOM     16  C   UNL     1       4.557   4.443  16.289  0.00  0.00    +0.000 A 
ATOM     17  C   UNL     1       5.520   4.014  15.372  0.00  0.00    +0.000 A 
ATOM     18  C   UNL     1       6.873   4.103  15.689  0.00  0.00    +0.000 A 
ATOM     19  C   UNL     1       7.267   4.637  16.916  0.00  0.00    +0.000 A 
ATOM     20  C   UNL     1       6.307   5.095  17.821  0.00  0.00    +0.000 A 
ENDBRANCH  14  15
BRANCH   7  21
ATOM     21  C   UNL     1       1.799   9.426  18.933  0.00  0.00    +0.000 C 
BRANCH  21  22
ATOM     22  C   UNL     1       0.657   9.686  17.940  0.00  0.00    +0.000 C 
BRANCH  22  23
ATOM     23  C   UNL     1      -0.456  10.590  18.505  0.00  0.00    +0.000 C 
BRANCH  23  24
ATOM     24  N   UNL     1       0.064  11.523  19.509  0.00  0.00    +0.000 NA
ATOM     25  C   UNL     1      -0.860  11.876  20.605  0.00  0.00    +0.000 C 
ATOM     26  C   UNL     1      -1.765  13.106  20.388  0.00  0.00    +0.000 C 
ATOM     27  O   UNL     1      -1.051  14.228  19.863  0.00  0.00    +0.000 OA
ATOM     28  C   UNL     1      -0.396  13.862  18.647  0.00  0.00    +0.000 C 
ATOM     29  C   UNL     1       0.630  12.752  18.912  0.00  0.00    +0.000 C 
ENDBRANCH  23  24
ENDBRANCH  22  23
ENDBRANCH  21  22
ENDBRANCH   7  21
TORSDOF 5
ENDMDL
MODEL 8
REMARK VINA RESULT:      -7.7      0.896      1.265
REMARK  Name = 
REMARK  5 active torsions:
REMARK  status: ('A' for Active; 'I' for Inactive)
REMARK    1  A    between atoms: N_7  and  C_8
REMARK    2  A    between atoms: C_8  and  C_9
REMARK    3  A    between atoms: C_9  and  C_10
REMARK    4  A    between atoms: C_10  and  N_11
REMARK    5  A    between atoms: N_23  and  C_24
REMARK                            x       y       z     vdW  Elec       q    Type
REMARK                         _______ _______ _______ _____ _____    ______ ____
ROOT
ATOM      1  O   UNL     1       3.836   7.570  17.315  0.00  0.00    +0.000 OA
ATOM      2  C   UNL     1       3.486   6.789  18.200  0.00  0.00    +0.000 A 
ATOM      3  C   UNL     1       2.508   7.177  19.192  0.00  0.00    +0.000 A 
ATOM      4  C   UNL     1       2.047   6.347  20.181  0.00  0.00    +0.000 A 
ATOM      5  N   UNL     1       1.107   6.947  20.960  0.00  0.00    +0.000 NA
ATOM      6  C   UNL     1       0.973   8.150  20.444  0.00  0.00    +0.000 A 
ATOM      7  N   UNL     1       1.828   8.356  19.384  0.00  0.00    +0.000 N 
ATOM      8  C   UNL     1       2.556   5.012  20.291  0.00  0.00    +0.000 A 
ATOM      9  C   UNL     1       2.148   4.164  21.324  0.00  0.00    +0.000 A 
ATOM     10  C   UNL     1       2.697   2.892  21.413  0.00  0.00    +0.000 A 
ATOM     11  C   UNL     1       3.635   2.523  20.469  0.00  0.00    +0.000 A 
ATOM     12  N   UNL     1       4.041   3.323  19.455  0.00  0.00    +0.000 NA
ATOM     13  C   UNL     1       3.504   4.567  19.356  0.00  0.00    +0.000 A 
ATOM     14  N   UNL     1       3.949   5.463  18.315  0.00  0.00    +0.000 N 
ENDROOT
BRANCH  14  15
ATOM     15  C   UNL     1       4.933   4.976  17.407  0.00  0.00    +0.000 A 
ATOM     16  C   UNL     1       6.294   5.096  17.719  0.00  0.00    +0.000 A 
ATOM     17  C   UNL     1       7.269   4.643  16.827  0.00  0.00    +0.000 A 
ATOM     18  C   UNL     1       6.893   4.098  15.601  0.00  0.00    +0.000 A 
ATOM     19  C   UNL     1       5.543   3.988  15.272  0.00  0.00    +0.000 A 
ATOM     20  C   UNL     1       4.566   4.412  16.176  0.00  0.00    +0.000 A 
ENDBRANCH  14  15
BRANCH   7  21
ATOM     21  C   UNL     1       1.907   9.556  18.571  0.00  0.00    +0.000 C 
BRANCH  21  22
ATOM     22  C   UNL     1       1.452  10.873  19.218  0.00  0.00    +0.000 C 
BRANCH  22  23
ATOM     23  C   UNL     1       0.147  11.434  18.621  0.00  0.00    +0.000 C 
BRANCH  23  24
ATOM     24  N   UNL     1      -1.033  10.792  19.207  0.00  0.00    +0.000 NA
ATOM     25  C   UNL     1      -2.107  10.425  18.261  0.00  0.00    +0.000 C 
ATOM     26  C   UNL     1      -3.200  11.482  18.000  0.00  0.00    +0.000 C 
ATOM     27  O   UNL     1      -3.684  12.082  19.205  0.00  0.00    +0.000 OA
ATOM     28  C   UNL     1      -2.595  12.650  19.937  0.00  0.00    +0.000 C 
ATOM     29  C   UNL     1      -1.599  11.555  20.340  0.00  0.00    +0.000 C 
ENDBRANCH  23  24
ENDBRANCH  22  23
ENDBRANCH  21  22
ENDBRANCH   7  21
TORSDOF 5
ENDMDL
MODEL 9
REMARK VINA RESULT:      -7.7      2.328      2.869
REMARK  Name = 
REMARK  5 active torsions:
REMARK  status: ('A' for Active; 'I' for Inactive)
REMARK    1  A    between atoms: N_7  and  C_8
REMARK    2  A    between atoms: C_8  and  C_9
REMARK    3  A    between atoms: C_9  and  C_10
REMARK    4  A    between atoms: C_10  and  N_11
REMARK    5  A    between atoms: N_23  and  C_24
REMARK                            x       y       z     vdW  Elec       q    Type
REMARK                         _______ _______ _______ _____ _____    ______ ____
ROOT
ATOM      1  O   UNL     1       3.844   7.519  17.394  0.00  0.00    +0.000 OA
ATOM      2  C   UNL     1       3.498   6.725  18.268  0.00  0.00    +0.000 A 
ATOM      3  C   UNL     1       2.513   7.093  19.261  0.00  0.00    +0.000 A 
ATOM      4  C   UNL     1       2.056   6.247  20.238  0.00  0.00    +0.000 A 
ATOM      5  N   UNL     1       1.109   6.830  21.022  0.00  0.00    +0.000 NA
ATOM      6  C   UNL     1       0.968   8.039  20.521  0.00  0.00    +0.000 A 
ATOM      7  N   UNL     1       1.824   8.264  19.466  0.00  0.00    +0.000 N 
ATOM      8  C   UNL     1       2.574   4.914  20.333  0.00  0.00    +0.000 A 
ATOM      9  C   UNL     1       2.169   4.051  21.354  0.00  0.00    +0.000 A 
ATOM     10  C   UNL     1       2.728   2.781  21.429  0.00  0.00    +0.000 A 
ATOM     11  C   UNL     1       3.672   2.431  20.483  0.00  0.00    +0.000 A 
ATOM     12  N   UNL     1       4.074   3.248  19.480  0.00  0.00    +0.000 NA
ATOM     13  C   UNL     1       3.528   4.489  19.396  0.00  0.00    +0.000 A 
ATOM     14  N   UNL     1       3.970   5.401  18.367  0.00  0.00    +0.000 N 
ENDROOT
BRANCH  14  15
ATOM     15  C   UNL     1       4.960   4.933  17.457  0.00  0.00    +0.000 A 
ATOM     16  C   UNL     1       6.319   5.052  17.777  0.00  0.00    +0.000 A 
ATOM     17  C   UNL     1       7.300   4.618  16.882  0.00  0.00    +0.000 A 
ATOM     18  C   UNL     1       6.933   4.093  15.645  0.00  0.00    +0.000 A 
ATOM     19  C   UNL     1       5.584   3.984  15.308  0.00  0.00    +0.000 A 
ATOM     20  C   UNL     1       4.601   4.389  16.214  0.00  0.00    +0.000 A 
ENDBRANCH  14  15
BRANCH   7  21
ATOM     21  C   UNL     1       1.897   9.475  18.669  0.00  0.00    +0.000 C 
BRANCH  21  22
ATOM     22  C   UNL     1       0.681  10.413  18.705  0.00  0.00    +0.000 C 
BRANCH  22  23
ATOM     23  C   UNL     1       0.951  11.745  19.432  0.00  0.00    +0.000 C 
BRANCH  23  24
ATOM     24  N   UNL     1       1.139  12.847  18.484  0.00  0.00    +0.000 NA
ATOM     25  C   UNL     1       2.535  13.261  18.241  0.00  0.00    +0.000 C 
ATOM     26  C   UNL     1       3.107  14.365  19.154  0.00  0.00    +0.000 C 
ATOM     27  O   UNL     1       2.208  15.465  19.316  0.00  0.00    +0.000 OA
ATOM     28  C   UNL     1       0.951  14.998  19.813  0.00  0.00    +0.000 C 
ATOM     29  C   UNL     1       0.312  14.030  18.808  0.00  0.00    +0.000 C 
ENDBRANCH  23  24
ENDBRANCH  22  23
ENDBRANCH  21  22
ENDBRANCH   7  21
TORSDOF 5
ENDMDL
