MODEL 1
REMARK VINA RESULT:      -7.7      0.000      0.000
REMARK  Name = 
REMARK  6 active torsions:
REMARK  status: ('A' for Active; 'I' for Inactive)
REMARK    1  A    between atoms: C_1  and  C_2
REMARK    2  A    between atoms: C_10  and  C_11
REMARK    3  A    between atoms: N_13  and  C_14
REMARK    4  A    between atoms: C_14  and  C_15
REMARK    5  A    between atoms: C_15  and  C_16
REMARK    6  A    between atoms: N_23  and  C_24
REMARK                            x       y       z     vdW  Elec       q    Type
REMARK                         _______ _______ _______ _____ _____    ______ ____
ROOT
ATOM      1  C   UNL     1      -0.152   9.254  22.897  0.00  0.00    +0.000 C 
ATOM      2  C   UNL     1       0.528   9.055  21.572  0.00  0.00    +0.000 A 
ATOM      3  C   UNL     1       0.513  10.073  20.620  0.00  0.00    +0.000 A 
ATOM      4  C   UNL     1       1.108   9.874  19.379  0.00  0.00    +0.000 A 
ATOM      5  C   UNL     1       1.735   8.656  19.076  0.00  0.00    +0.000 A 
ATOM      6  C   UNL     1       1.782   7.609  20.032  0.00  0.00    +0.000 A 
ATOM      7  C   UNL     1       1.172   7.836  21.276  0.00  0.00    +0.000 A 
ATOM      8  C   UNL     1       2.498   6.367  19.671  0.00  0.00    +0.000 A 
ATOM      9  C   UNL     1       3.380   6.252  18.605  0.00  0.00    +0.000 A 
ATOM     10  C   UNL     1       3.834   4.906  18.596  0.00  0.00    +0.000 A 
ATOM     11  N   UNL     1       3.264   4.210  19.596  0.00  0.00    +0.000 NA
ATOM     12  N   UNL     1       2.459   5.106  20.223  0.00  0.00    +0.000 N 
ATOM     13  C   UNL     1       1.680   4.623  21.337  0.00  0.00    +0.000 C 
ATOM     14  C   UNL     1       3.778   7.362  17.703  0.00  0.00    +0.000 C 
ATOM     15  S   UNL     1       2.403   8.519  17.411  0.00  0.00    +0.000 S 
ENDROOT
BRANCH  10  16
ATOM     16  C   UNL     1       4.807   4.299  17.664  0.00  0.00    +0.000 C 
ATOM     17  O   UNL     1       4.557   3.291  17.012  0.00  0.00    +0.000 OA
ATOM     18  N   UNL     1       6.012   4.966  17.579  0.00  0.00    +0.000 N 
ATOM     19  H   UNL     1       6.148   5.705  18.263  0.00  0.00    +0.000 HD
BRANCH  18  20
ATOM     20  C   UNL     1       7.112   4.507  16.747  0.00  0.00    +0.000 C 
BRANCH  20  21
ATOM     21  C   UNL     1       7.392   5.426  15.548  0.00  0.00    +0.000 C 
BRANCH  21  22
ATOM     22  C   UNL     1       7.042   4.795  14.222  0.00  0.00    +0.000 A 
ATOM     23  C   UNL     1       6.000   3.858  14.136  0.00  0.00    +0.000 A 
ATOM     24  C   UNL     1       5.664   3.280  12.913  0.00  0.00    +0.000 A 
ATOM     25  C   UNL     1       6.365   3.629  11.760  0.00  0.00    +0.000 A 
ATOM     26  C   UNL     1       7.401   4.560  11.832  0.00  0.00    +0.000 A 
ATOM     27  C   UNL     1       7.739   5.140  13.057  0.00  0.00    +0.000 A 
ENDBRANCH  21  22
ENDBRANCH  20  21
ENDBRANCH  18  20
ENDBRANCH  10  16
TORSDOF 4
ENDMDL
MODEL 2
REMARK VINA RESULT:      -7.4      4.770      7.501
REMARK  Name = 
REMARK  6 active torsions:
REMARK  status: ('A' for Active; 'I' for Inactive)
REMARK    1  A    between atoms: C_1  and  C_2
REMARK    2  A    between atoms: C_10  and  C_11
REMARK    3  A    between atoms: N_13  and  C_14
REMARK    4  A    between atoms: C_14  and  C_15
REMARK    5  A    between atoms: C_15  and  C_16
REMARK    6  A    between atoms: N_23  and  C_24
REMARK                            x       y       z     vdW  Elec       q    Type
REMARK                         _______ _______ _______ _____ _____    ______ ____
ROOT
ATOM      1  C   UNL     1      -7.191  12.608  18.090  0.00  0.00    +0.000 C 
ATOM      2  C   UNL     1      -5.865  12.633  18.797  0.00  0.00    +0.000 A 
ATOM      3  C   UNL     1      -5.701  13.406  19.946  0.00  0.00    +0.000 A 
ATOM      4  C   UNL     1      -4.463  13.459  20.577  0.00  0.00    +0.000 A 
ATOM      5  C   UNL     1      -3.374  12.731  20.075  0.00  0.00    +0.000 A 
ATOM      6  C   UNL     1      -3.517  11.922  18.919  0.00  0.00    +0.000 A 
ATOM      7  C   UNL     1      -4.776  11.887  18.300  0.00  0.00    +0.000 A 
ATOM      8  C   UNL     1      -2.346  11.141  18.465  0.00  0.00    +0.000 A 
ATOM      9  C   UNL     1      -1.218  10.898  19.238  0.00  0.00    +0.000 A 
ATOM     10  C   UNL     1      -0.332  10.133  18.434  0.00  0.00    +0.000 A 
ATOM     11  N   UNL     1      -0.867   9.913  17.220  0.00  0.00    +0.000 NA
ATOM     12  N   UNL     1      -2.073  10.535  17.259  0.00  0.00    +0.000 N 
ATOM     13  C   UNL     1      -2.873  10.495  16.058  0.00  0.00    +0.000 C 
ATOM     14  C   UNL     1      -1.039  11.334  20.646  0.00  0.00    +0.000 C 
ATOM     15  S   UNL     1      -1.821  12.948  20.957  0.00  0.00    +0.000 S 
ENDROOT
BRANCH  10  16
ATOM     16  C   UNL     1       0.993   9.605  18.822  0.00  0.00    +0.000 C 
ATOM     17  O   UNL     1       2.042  10.132  18.470  0.00  0.00    +0.000 OA
ATOM     18  N   UNL     1       0.950   8.481  19.621  0.00  0.00    +0.000 N 
ATOM     19  H   UNL     1       0.031   8.063  19.733  0.00  0.00    +0.000 HD
BRANCH  18  20
ATOM     20  C   UNL     1       2.145   7.790  20.077  0.00  0.00    +0.000 C 
BRANCH  20  21
ATOM     21  C   UNL     1       2.695   6.787  19.052  0.00  0.00    +0.000 C 
BRANCH  21  22
ATOM     22  C   UNL     1       2.093   5.408  19.188  0.00  0.00    +0.000 A 
ATOM     23  C   UNL     1       1.594   4.973  20.426  0.00  0.00    +0.000 A 
ATOM     24  C   UNL     1       1.026   3.706  20.556  0.00  0.00    +0.000 A 
ATOM     25  C   UNL     1       0.950   2.858  19.453  0.00  0.00    +0.000 A 
ATOM     26  C   UNL     1       1.442   3.281  18.218  0.00  0.00    +0.000 A 
ATOM     27  C   UNL     1       2.012   4.549  18.085  0.00  0.00    +0.000 A 
ENDBRANCH  21  22
ENDBRANCH  20  21
ENDBRANCH  18  20
ENDBRANCH  10  16
TORSDOF 4
ENDMDL
MODEL 3
REMARK VINA RESULT:      -7.4      4.717      7.268
REMARK  Name = 
REMARK  6 active torsions:
REMARK  status: ('A' for Active; 'I' for Inactive)
REMARK    1  A    between atoms: C_1  and  C_2
REMARK    2  A    between atoms: C_10  and  C_11
REMARK    3  A    between atoms: N_13  and  C_14
REMARK    4  A    between atoms: C_14  and  C_15
REMARK    5  A    between atoms: C_15  and  C_16
REMARK    6  A    between atoms: N_23  and  C_24
REMARK                            x       y       z     vdW  Elec       q    Type
REMARK                         _______ _______ _______ _____ _____    ______ ____
ROOT
ATOM      1  C   UNL     1      -6.385  13.516  21.074  0.00  0.00    +0.000 C 
ATOM      2  C   UNL     1      -4.904  13.310  21.233  0.00  0.00    +0.000 A 
ATOM      3  C   UNL     1      -4.230  13.894  22.305  0.00  0.00    +0.000 A 
ATOM      4  C   UNL     1      -2.854  13.735  22.431  0.00  0.00    +0.000 A 
ATOM      5  C   UNL     1      -2.134  12.983  21.491  0.00  0.00    +0.000 A 
ATOM      6  C   UNL     1      -2.796  12.363  20.401  0.00  0.00    +0.000 A 
ATOM      7  C   UNL     1      -4.185  12.540  20.296  0.00  0.00    +0.000 A 
ATOM      8  C   UNL     1      -1.991  11.544  19.470  0.00  0.00    +0.000 A 
ATOM      9  C   UNL     1      -0.708  11.085  19.739  0.00  0.00    +0.000 A 
ATOM     10  C   UNL     1      -0.287  10.358  18.593  0.00  0.00    +0.000 A 
ATOM     11  N   UNL     1      -1.248  10.365  17.652  0.00  0.00    +0.000 NA
ATOM     12  N   UNL     1      -2.258  11.091  18.197  0.00  0.00    +0.000 N 
ATOM     13  C   UNL     1      -3.432  11.299  17.384  0.00  0.00    +0.000 C 
ATOM     14  C   UNL     1       0.025  11.298  21.012  0.00  0.00    +0.000 C 
ATOM     15  S   UNL     1      -0.354  12.921  21.745  0.00  0.00    +0.000 S 
ENDROOT
BRANCH  10  16
ATOM     16  C   UNL     1       0.998   9.654  18.406  0.00  0.00    +0.000 C 
ATOM     17  O   UNL     1       1.836  10.015  17.587  0.00  0.00    +0.000 OA
ATOM     18  N   UNL     1       1.182   8.566  19.235  0.00  0.00    +0.000 N 
ATOM     19  H   UNL     1       0.366   8.288  19.773  0.00  0.00    +0.000 HD
BRANCH  18  20
ATOM     20  C   UNL     1       2.363   7.722  19.180  0.00  0.00    +0.000 C 
BRANCH  20  21
ATOM     21  C   UNL     1       2.354   6.595  20.224  0.00  0.00    +0.000 C 
BRANCH  21  22
ATOM     22  C   UNL     1       1.914   5.265  19.659  0.00  0.00    +0.000 A 
ATOM     23  C   UNL     1       1.251   4.334  20.474  0.00  0.00    +0.000 A 
ATOM     24  C   UNL     1       0.831   3.110  19.956  0.00  0.00    +0.000 A 
ATOM     25  C   UNL     1       1.069   2.799  18.618  0.00  0.00    +0.000 A 
ATOM     26  C   UNL     1       1.726   3.717  17.799  0.00  0.00    +0.000 A 
ATOM     27  C   UNL     1       2.148   4.944  18.316  0.00  0.00    +0.000 A 
ENDBRANCH  21  22
ENDBRANCH  20  21
ENDBRANCH  18  20
ENDBRANCH  10  16
TORSDOF 4
ENDMDL
MODEL 4
REMARK VINA RESULT:      -7.3      2.849      4.639
REMARK  Name = 
REMARK  6 active torsions:
REMARK  status: ('A' for Active; 'I' for Inactive)
REMARK    1  A    between atoms: C_1  and  C_2
REMARK    2  A    between atoms: C_10  and  C_11
REMARK    3  A    between atoms: N_13  and  C_14
REMARK    4  A    between atoms: C_14  and  C_15
REMARK    5  A    between atoms: C_15  and  C_16
REMARK    6  A    between atoms: N_23  and  C_24
REMARK                            x       y       z     vdW  Elec       q    Type
REMARK                         _______ _______ _______ _____ _____    ______ ____
ROOT
ATOM      1  C   UNL     1      -2.198  14.089  23.309  0.00  0.00    +0.000 C 
ATOM      2  C   UNL     1      -1.902  13.264  22.088  0.00  0.00    +0.000 A 
ATOM      3  C   UNL     1      -2.444  13.624  20.855  0.00  0.00    +0.000 A 
ATOM      4  C   UNL     1      -2.202  12.838  19.733  0.00  0.00    +0.000 A 
ATOM      5  C   UNL     1      -1.407  11.686  19.827  0.00  0.00    +0.000 A 
ATOM      6  C   UNL     1      -0.829  11.306  21.064  0.00  0.00    +0.000 A 
ATOM      7  C   UNL     1      -1.089  12.115  22.181  0.00  0.00    +0.000 A 
ATOM      8  C   UNL     1       0.038  10.108  21.090  0.00  0.00    +0.000 A 
ATOM      9  C   UNL     1       0.574   9.504  19.960  0.00  0.00    +0.000 A 
ATOM     10  C   UNL     1       1.326   8.387  20.414  0.00  0.00    +0.000 A 
ATOM     11  N   UNL     1       1.260   8.288  21.754  0.00  0.00    +0.000 NA
ATOM     12  N   UNL     1       0.474   9.327  22.137  0.00  0.00    +0.000 N 
ATOM     13  C   UNL     1       0.195   9.456  23.547  0.00  0.00    +0.000 C 
ATOM     14  C   UNL     1       0.407   9.995  18.569  0.00  0.00    +0.000 C 
ATOM     15  S   UNL     1      -1.236  10.735  18.309  0.00  0.00    +0.000 S 
ENDROOT
BRANCH  10  16
ATOM     16  C   UNL     1       2.107   7.443  19.589  0.00  0.00    +0.000 C 
ATOM     17  O   UNL     1       2.346   7.644  18.403  0.00  0.00    +0.000 OA
ATOM     18  N   UNL     1       2.556   6.327  20.264  0.00  0.00    +0.000 N 
ATOM     19  H   UNL     1       2.183   6.208  21.202  0.00  0.00    +0.000 HD
BRANCH  18  20
ATOM     20  C   UNL     1       3.309   5.264  19.620  0.00  0.00    +0.000 C 
BRANCH  20  21
ATOM     21  C   UNL     1       4.721   5.694  19.191  0.00  0.00    +0.000 C 
BRANCH  21  22
ATOM     22  C   UNL     1       5.007   5.419  17.734  0.00  0.00    +0.000 A 
ATOM     23  C   UNL     1       5.114   6.479  16.821  0.00  0.00    +0.000 A 
ATOM     24  C   UNL     1       5.390   6.233  15.476  0.00  0.00    +0.000 A 
ATOM     25  C   UNL     1       5.561   4.925  15.027  0.00  0.00    +0.000 A 
ATOM     26  C   UNL     1       5.458   3.863  15.925  0.00  0.00    +0.000 A 
ATOM     27  C   UNL     1       5.181   4.108  17.272  0.00  0.00    +0.000 A 
ENDBRANCH  21  22
ENDBRANCH  20  21
ENDBRANCH  18  20
ENDBRANCH  10  16
TORSDOF 4
ENDMDL
MODEL 5
REMARK VINA RESULT:      -7.2      4.506      6.946
REMARK  Name = 
REMARK  6 active torsions:
REMARK  status: ('A' for Active; 'I' for Inactive)
REMARK    1  A    between atoms: C_1  and  C_2
REMARK    2  A    between atoms: C_10  and  C_11
REMARK    3  A    between atoms: N_13  and  C_14
REMARK    4  A    between atoms: C_14  and  C_15
REMARK    5  A    between atoms: C_15  and  C_16
REMARK    6  A    between atoms: N_23  and  C_24
REMARK                            x       y       z     vdW  Elec       q    Type
REMARK                         _______ _______ _______ _____ _____    ______ ____
ROOT
ATOM      1  C   UNL     1      -5.325  13.288  21.787  0.00  0.00    +0.000 C 
ATOM      2  C   UNL     1      -3.832  13.188  21.643  0.00  0.00    +0.000 A 
ATOM      3  C   UNL     1      -3.000  13.968  22.445  0.00  0.00    +0.000 A 
ATOM      4  C   UNL     1      -1.620  13.904  22.284  0.00  0.00    +0.000 A 
ATOM      5  C   UNL     1      -1.052  13.051  21.326  0.00  0.00    +0.000 A 
ATOM      6  C   UNL     1      -1.874  12.233  20.509  0.00  0.00    +0.000 A 
ATOM      7  C   UNL     1      -3.263  12.317  20.691  0.00  0.00    +0.000 A 
ATOM      8  C   UNL     1      -1.215  11.320  19.550  0.00  0.00    +0.000 A 
ATOM      9  C   UNL     1       0.130  10.977  19.592  0.00  0.00    +0.000 A 
ATOM     10  C   UNL     1       0.361  10.101  18.497  0.00  0.00    +0.000 A 
ATOM     11  N   UNL     1      -0.774   9.909  17.801  0.00  0.00    +0.000 NA
ATOM     12  N   UNL     1      -1.704  10.657  18.447  0.00  0.00    +0.000 N 
ATOM     13  C   UNL     1      -3.037  10.673  17.892  0.00  0.00    +0.000 C 
ATOM     14  C   UNL     1       1.094  11.426  20.628  0.00  0.00    +0.000 C 
ATOM     15  S   UNL     1       0.740  13.123  21.187  0.00  0.00    +0.000 S 
ENDROOT
BRANCH  10  16
ATOM     16  C   UNL     1       1.634   9.444  18.133  0.00  0.00    +0.000 C 
ATOM     17  O   UNL     1       2.529  10.027  17.533  0.00  0.00    +0.000 OA
ATOM     18  N   UNL     1       1.735   8.128  18.536  0.00  0.00    +0.000 N 
ATOM     19  H   UNL     1       0.880   7.720  18.904  0.00  0.00    +0.000 HD
BRANCH  18  20
ATOM     20  C   UNL     1       2.891   7.299  18.241  0.00  0.00    +0.000 C 
BRANCH  20  21
ATOM     21  C   UNL     1       2.521   5.874  17.801  0.00  0.00    +0.000 C 
BRANCH  21  22
ATOM     22  C   UNL     1       2.154   4.973  18.956  0.00  0.00    +0.000 A 
ATOM     23  C   UNL     1       2.736   5.168  20.218  0.00  0.00    +0.000 A 
ATOM     24  C   UNL     1       2.392   4.347  21.292  0.00  0.00    +0.000 A 
ATOM     25  C   UNL     1       1.464   3.321  21.118  0.00  0.00    +0.000 A 
ATOM     26  C   UNL     1       0.879   3.119  19.868  0.00  0.00    +0.000 A 
ATOM     27  C   UNL     1       1.223   3.940  18.791  0.00  0.00    +0.000 A 
ENDBRANCH  21  22
ENDBRANCH  20  21
ENDBRANCH  18  20
ENDBRANCH  10  16
TORSDOF 4
ENDMDL
MODEL 6
REMARK VINA RESULT:      -7.2      1.370      2.816
REMARK  Name = 
REMARK  6 active torsions:
REMARK  status: ('A' for Active; 'I' for Inactive)
REMARK    1  A    between atoms: C_1  and  C_2
REMARK    2  A    between atoms: C_10  and  C_11
REMARK    3  A    between atoms: N_13  and  C_14
REMARK    4  A    between atoms: C_14  and  C_15
REMARK    5  A    between atoms: C_15  and  C_16
REMARK    6  A    between atoms: N_23  and  C_24
REMARK                            x       y       z     vdW  Elec       q    Type
REMARK                         _______ _______ _______ _____ _____    ______ ____
ROOT
ATOM      1  C   UNL     1       0.343   9.303  23.279  0.00  0.00    +0.000 C 
ATOM      2  C   UNL     1       0.826   9.119  21.868  0.00  0.00    +0.000 A 
ATOM      3  C   UNL     1       0.782  10.186  20.971  0.00  0.00    +0.000 A 
ATOM      4  C   UNL     1       1.192  10.004  19.654  0.00  0.00    +0.000 A 
ATOM      5  C   UNL     1       1.661   8.756  19.219  0.00  0.00    +0.000 A 
ATOM      6  C   UNL     1       1.734   7.659  20.114  0.00  0.00    +0.000 A 
ATOM      7  C   UNL     1       1.312   7.868  21.436  0.00  0.00    +0.000 A 
ATOM      8  C   UNL     1       2.281   6.381  19.608  0.00  0.00    +0.000 A 
ATOM      9  C   UNL     1       3.005   6.250  18.430  0.00  0.00    +0.000 A 
ATOM     10  C   UNL     1       3.328   4.873  18.303  0.00  0.00    +0.000 A 
ATOM     11  N   UNL     1       2.831   4.174  19.339  0.00  0.00    +0.000 NA
ATOM     12  N   UNL     1       2.198   5.100  20.105  0.00  0.00    +0.000 N 
ATOM     13  C   UNL     1       1.527   4.625  21.291  0.00  0.00    +0.000 C 
ATOM     14  C   UNL     1       3.384   7.370  17.532  0.00  0.00    +0.000 C 
ATOM     15  S   UNL     1       2.094   8.655  17.475  0.00  0.00    +0.000 S 
ENDROOT
BRANCH  10  16
ATOM     16  C   UNL     1       4.115   4.237  17.225  0.00  0.00    +0.000 C 
ATOM     17  O   UNL     1       4.369   3.038  17.213  0.00  0.00    +0.000 OA
ATOM     18  N   UNL     1       4.526   5.101  16.230  0.00  0.00    +0.000 N 
ATOM     19  H   UNL     1       4.370   6.087  16.419  0.00  0.00    +0.000 HD
BRANCH  18  20
ATOM     20  C   UNL     1       5.340   4.676  15.103  0.00  0.00    +0.000 C 
BRANCH  20  21
ATOM     21  C   UNL     1       6.767   5.246  15.136  0.00  0.00    +0.000 C 
BRANCH  21  22
ATOM     22  C   UNL     1       7.221   5.629  16.525  0.00  0.00    +0.000 A 
ATOM     23  C   UNL     1       7.536   4.636  17.466  0.00  0.00    +0.000 A 
ATOM     24  C   UNL     1       7.967   4.982  18.746  0.00  0.00    +0.000 A 
ATOM     25  C   UNL     1       8.087   6.324  19.102  0.00  0.00    +0.000 A 
ATOM     26  C   UNL     1       7.777   7.319  18.176  0.00  0.00    +0.000 A 
ATOM     27  C   UNL     1       7.344   6.974  16.893  0.00  0.00    +0.000 A 
ENDBRANCH  21  22
ENDBRANCH  20  21
ENDBRANCH  18  20
ENDBRANCH  10  16
TORSDOF 4
ENDMDL
MODEL 7
REMARK VINA RESULT:      -7.2      4.079      6.029
REMARK  Name = 
REMARK  6 active torsions:
REMARK  status: ('A' for Active; 'I' for Inactive)
REMARK    1  A    between atoms: C_1  and  C_2
REMARK    2  A    between atoms: C_10  and  C_11
REMARK    3  A    between atoms: N_13  and  C_14
REMARK    4  A    between atoms: C_14  and  C_15
REMARK    5  A    between atoms: C_15  and  C_16
REMARK    6  A    between atoms: N_23  and  C_24
REMARK                            x       y       z     vdW  Elec       q    Type
REMARK                         _______ _______ _______ _____ _____    ______ ____
ROOT
ATOM      1  C   UNL     1      -2.434  13.815  23.912  0.00  0.00    +0.000 C 
ATOM      2  C   UNL     1      -2.182  13.181  22.573  0.00  0.00    +0.000 A 
ATOM      3  C   UNL     1      -2.852  13.647  21.443  0.00  0.00    +0.000 A 
ATOM      4  C   UNL     1      -2.648  13.034  20.211  0.00  0.00    +0.000 A 
ATOM      5  C   UNL     1      -1.762  11.953  20.090  0.00  0.00    +0.000 A 
ATOM      6  C   UNL     1      -1.053  11.470  21.219  0.00  0.00    +0.000 A 
ATOM      7  C   UNL     1      -1.278  12.105  22.451  0.00  0.00    +0.000 A 
ATOM      8  C   UNL     1      -0.098  10.358  21.020  0.00  0.00    +0.000 A 
ATOM      9  C   UNL     1       0.384   9.951  19.783  0.00  0.00    +0.000 A 
ATOM     10  C   UNL     1       1.254   8.855  20.026  0.00  0.00    +0.000 A 
ATOM     11  N   UNL     1       1.311   8.581  21.342  0.00  0.00    +0.000 NA
ATOM     12  N   UNL     1       0.484   9.491  21.918  0.00  0.00    +0.000 N 
ATOM     13  C   UNL     1       0.317   9.415  23.349  0.00  0.00    +0.000 C 
ATOM     14  C   UNL     1       0.062  10.598  18.486  0.00  0.00    +0.000 C 
ATOM     15  S   UNL     1      -1.650  11.220  18.451  0.00  0.00    +0.000 S 
ENDROOT
BRANCH  10  16
ATOM     16  C   UNL     1       2.032   8.095  19.026  0.00  0.00    +0.000 C 
ATOM     17  O   UNL     1       1.925   8.289  17.820  0.00  0.00    +0.000 OA
ATOM     18  N   UNL     1       2.896   7.161  19.560  0.00  0.00    +0.000 N 
ATOM     19  H   UNL     1       2.797   7.001  20.559  0.00  0.00    +0.000 HD
BRANCH  18  20
ATOM     20  C   UNL     1       3.720   6.288  18.741  0.00  0.00    +0.000 C 
BRANCH  20  21
ATOM     21  C   UNL     1       4.041   4.946  19.417  0.00  0.00    +0.000 C 
BRANCH  21  22
ATOM     22  C   UNL     1       2.836   4.044  19.546  0.00  0.00    +0.000 A 
ATOM     23  C   UNL     1       2.288   3.428  18.410  0.00  0.00    +0.000 A 
ATOM     24  C   UNL     1       1.183   2.585  18.524  0.00  0.00    +0.000 A 
ATOM     25  C   UNL     1       0.610   2.349  19.773  0.00  0.00    +0.000 A 
ATOM     26  C   UNL     1       1.147   2.956  20.908  0.00  0.00    +0.000 A 
ATOM     27  C   UNL     1       2.253   3.801  20.796  0.00  0.00    +0.000 A 
ENDBRANCH  21  22
ENDBRANCH  20  21
ENDBRANCH  18  20
ENDBRANCH  10  16
TORSDOF 4
ENDMDL
MODEL 8
REMARK VINA RESULT:      -7.2      1.372      2.890
REMARK  Name = 
REMARK  6 active torsions:
REMARK  status: ('A' for Active; 'I' for Inactive)
REMARK    1  A    between atoms: C_1  and  C_2
REMARK    2  A    between atoms: C_10  and  C_11
REMARK    3  A    between atoms: N_13  and  C_14
REMARK    4  A    between atoms: C_14  and  C_15
REMARK    5  A    between atoms: C_15  and  C_16
REMARK    6  A    between atoms: N_23  and  C_24
REMARK                            x       y       z     vdW  Elec       q    Type
REMARK                         _______ _______ _______ _____ _____    ______ ____
ROOT
ATOM      1  C   UNL     1      -0.201   9.110  22.823  0.00  0.00    +0.000 C 
ATOM      2  C   UNL     1       0.528   8.939  21.519  0.00  0.00    +0.000 A 
ATOM      3  C   UNL     1       0.763  10.043  20.701  0.00  0.00    +0.000 A 
ATOM      4  C   UNL     1       1.403   9.879  19.478  0.00  0.00    +0.000 A 
ATOM      5  C   UNL     1       1.826   8.608  19.059  0.00  0.00    +0.000 A 
ATOM      6  C   UNL     1       1.616   7.470  19.879  0.00  0.00    +0.000 A 
ATOM      7  C   UNL     1       0.967   7.664  21.108  0.00  0.00    +0.000 A 
ATOM      8  C   UNL     1       2.127   6.166  19.405  0.00  0.00    +0.000 A 
ATOM      9  C   UNL     1       3.050   6.011  18.379  0.00  0.00    +0.000 A 
ATOM     10  C   UNL     1       3.258   4.615  18.227  0.00  0.00    +0.000 A 
ATOM     11  N   UNL     1       2.503   3.927  19.102  0.00  0.00    +0.000 NA
ATOM     12  N   UNL     1       1.825   4.879  19.793  0.00  0.00    +0.000 N 
ATOM     13  C   UNL     1       0.893   4.426  20.797  0.00  0.00    +0.000 C 
ATOM     14  C   UNL     1       3.703   7.123  17.644  0.00  0.00    +0.000 C 
ATOM     15  S   UNL     1       2.579   8.540  17.426  0.00  0.00    +0.000 S 
ENDROOT
BRANCH  10  16
ATOM     16  C   UNL     1       4.175   3.948  17.278  0.00  0.00    +0.000 C 
ATOM     17  O   UNL     1       4.571   2.799  17.440  0.00  0.00    +0.000 OA
ATOM     18  N   UNL     1       4.537   4.719  16.193  0.00  0.00    +0.000 N 
ATOM     19  H   UNL     1       4.254   5.693  16.239  0.00  0.00    +0.000 HD
BRANCH  18  20
ATOM     20  C   UNL     1       5.459   4.257  15.168  0.00  0.00    +0.000 C 
BRANCH  20  21
ATOM     21  C   UNL     1       6.776   5.047  15.135  0.00  0.00    +0.000 C 
BRANCH  21  22
ATOM     22  C   UNL     1       7.229   5.503  16.503  0.00  0.00    +0.000 A 
ATOM     23  C   UNL     1       7.246   6.869  16.824  0.00  0.00    +0.000 A 
ATOM     24  C   UNL     1       7.651   7.296  18.088  0.00  0.00    +0.000 A 
ATOM     25  C   UNL     1       8.046   6.364  19.046  0.00  0.00    +0.000 A 
ATOM     26  C   UNL     1       8.033   5.004  18.738  0.00  0.00    +0.000 A 
ATOM     27  C   UNL     1       7.627   4.574  17.472  0.00  0.00    +0.000 A 
ENDBRANCH  21  22
ENDBRANCH  20  21
ENDBRANCH  18  20
ENDBRANCH  10  16
TORSDOF 4
ENDMDL
MODEL 9
REMARK VINA RESULT:      -6.9      3.853     10.306
REMARK  Name = 
REMARK  6 active torsions:
REMARK  status: ('A' for Active; 'I' for Inactive)
REMARK    1  A    between atoms: C_1  and  C_2
REMARK    2  A    between atoms: C_10  and  C_11
REMARK    3  A    between atoms: N_13  and  C_14
REMARK    4  A    between atoms: C_14  and  C_15
REMARK    5  A    between atoms: C_15  and  C_16
REMARK    6  A    between atoms: N_23  and  C_24
REMARK                            x       y       z     vdW  Elec       q    Type
REMARK                         _______ _______ _______ _____ _____    ______ ____
ROOT
ATOM      1  C   UNL     1       5.847   5.918  15.940  0.00  0.00    +0.000 C 
ATOM      2  C   UNL     1       4.828   5.650  17.011  0.00  0.00    +0.000 A 
ATOM      3  C   UNL     1       4.649   4.355  17.496  0.00  0.00    +0.000 A 
ATOM      4  C   UNL     1       3.678   4.100  18.459  0.00  0.00    +0.000 A 
ATOM      5  C   UNL     1       2.879   5.139  18.958  0.00  0.00    +0.000 A 
ATOM      6  C   UNL     1       3.051   6.469  18.497  0.00  0.00    +0.000 A 
ATOM      7  C   UNL     1       4.036   6.699  17.524  0.00  0.00    +0.000 A 
ATOM      8  C   UNL     1       2.211   7.529  19.095  0.00  0.00    +0.000 A 
ATOM      9  C   UNL     1       1.488   7.385  20.272  0.00  0.00    +0.000 A 
ATOM     10  C   UNL     1       0.812   8.616  20.486  0.00  0.00    +0.000 A 
ATOM     11  N   UNL     1       1.087   9.484  19.496  0.00  0.00    +0.000 NA
ATOM     12  N   UNL     1       1.922   8.806  18.668  0.00  0.00    +0.000 N 
ATOM     13  C   UNL     1       2.364   9.489  17.476  0.00  0.00    +0.000 C 
ATOM     14  C   UNL     1       1.490   6.176  21.133  0.00  0.00    +0.000 C 
ATOM     15  S   UNL     1       1.623   4.649  20.149  0.00  0.00    +0.000 S 
ENDROOT
BRANCH  10  16
ATOM     16  C   UNL     1      -0.065   8.966  21.624  0.00  0.00    +0.000 C 
ATOM     17  O   UNL     1      -0.749   8.134  22.209  0.00  0.00    +0.000 OA
ATOM     18  N   UNL     1      -0.038  10.299  21.979  0.00  0.00    +0.000 N 
ATOM     19  H   UNL     1       0.461  10.909  21.338  0.00  0.00    +0.000 HD
BRANCH  18  20
ATOM     20  C   UNL     1      -0.857  10.847  23.047  0.00  0.00    +0.000 C 
BRANCH  20  21
ATOM     21  C   UNL     1      -1.259  12.312  22.813  0.00  0.00    +0.000 C 
BRANCH  21  22
ATOM     22  C   UNL     1      -2.751  12.537  22.887  0.00  0.00    +0.000 A 
ATOM     23  C   UNL     1      -3.491  12.768  21.718  0.00  0.00    +0.000 A 
ATOM     24  C   UNL     1      -4.870  12.964  21.778  0.00  0.00    +0.000 A 
ATOM     25  C   UNL     1      -5.527  12.934  23.007  0.00  0.00    +0.000 A 
ATOM     26  C   UNL     1      -4.801  12.704  24.176  0.00  0.00    +0.000 A 
ATOM     27  C   UNL     1      -3.420  12.508  24.118  0.00  0.00    +0.000 A 
ENDBRANCH  21  22
ENDBRANCH  20  21
ENDBRANCH  18  20
ENDBRANCH  10  16
TORSDOF 4
ENDMDL
