MODEL 1
REMARK VINA RESULT:      -7.8      0.000      0.000
REMARK  Name = 
REMARK  4 active torsions:
REMARK  status: ('A' for Active; 'I' for Inactive)
REMARK    1  A    between atoms: C_5  and  C_7
REMARK    2  A    between atoms: C_11  and  C_12
REMARK    3  A    between atoms: N_20  and  C_21
REMARK    4  A    between atoms: C_21  and  C_22
REMARK                            x       y       z     vdW  Elec       q    Type
REMARK                         _______ _______ _______ _____ _____    ______ ____
ROOT
ATOM      1  O   UNL     1       2.129  10.019  17.438  0.00  0.00    +0.000 OA
ATOM      2  C   UNL     1       2.067   9.084  18.242  0.00  0.00    +0.000 C 
ATOM      3  C   UNL     1       2.668   7.729  17.869  0.00  0.00    +0.000 C 
ATOM      4  N   UNL     1       2.904   6.780  18.959  0.00  0.00    +0.000 N 
ATOM      5  C   UNL     1       3.963   5.866  19.058  0.00  0.00    +0.000 C 
ATOM      6  O   UNL     1       4.041   5.080  20.003  0.00  0.00    +0.000 OA
ATOM      7  C   UNL     1       1.833   6.750  19.955  0.00  0.00    +0.000 C 
ATOM      8  C   UNL     1       1.548   8.162  20.476  0.00  0.00    +0.000 C 
ATOM      9  N   UNL     1       1.324   9.145  19.414  0.00  0.00    +0.000 N 
ENDROOT
BRANCH   5  10
ATOM     10  C   UNL     1       5.030   5.811  18.007  0.00  0.00    +0.000 A 
ATOM     11  C   UNL     1       6.138   6.669  18.134  0.00  0.00    +0.000 A 
ATOM     12  C   UNL     1       7.220   6.575  17.267  0.00  0.00    +0.000 A 
ATOM     13  C   UNL     1       7.169   5.698  16.193  0.00  0.00    +0.000 A 
ATOM     14  C   UNL     1       6.025   4.915  15.955  0.00  0.00    +0.000 A 
ATOM     15  C   UNL     1       4.953   4.970  16.875  0.00  0.00    +0.000 A 
ATOM     16 CL   UNL     1       3.560   3.970  16.590  0.00  0.00    +0.000 Cl
BRANCH  14  17
ATOM     17  C   UNL     1       5.984   4.045  14.724  0.00  0.00    +0.000 C 
ATOM     18  F   UNL     1       7.080   4.215  13.919  0.00  0.00    +0.000 F 
ATOM     19  F   UNL     1       5.959   2.714  15.002  0.00  0.00    +0.000 F 
ATOM     20  F   UNL     1       4.916   4.301  13.920  0.00  0.00    +0.000 F 
ENDBRANCH  14  17
ENDBRANCH   5  10
BRANCH   9  21
ATOM     21  C   UNL     1       0.715  10.421  19.778  0.00  0.00    +0.000 C 
BRANCH  21  22
ATOM     22  C   UNL     1      -0.669  10.616  19.220  0.00  0.00    +0.000 A 
ATOM     23  C   UNL     1      -1.147   9.888  18.129  0.00  0.00    +0.000 A 
ATOM     24  C   UNL     1      -2.389  10.198  17.575  0.00  0.00    +0.000 A 
ATOM     25  C   UNL     1      -3.118  11.232  18.140  0.00  0.00    +0.000 A 
ATOM     26  N   UNL     1      -2.699  11.949  19.203  0.00  0.00    +0.000 NA
ATOM     27  C   UNL     1      -1.488  11.629  19.713  0.00  0.00    +0.000 A 
ENDBRANCH  21  22
ENDBRANCH   9  21
TORSDOF 4
ENDMDL
MODEL 2
REMARK VINA RESULT:      -7.4      1.722      2.222
REMARK  Name = 
REMARK  4 active torsions:
REMARK  status: ('A' for Active; 'I' for Inactive)
REMARK    1  A    between atoms: C_5  and  C_7
REMARK    2  A    between atoms: C_11  and  C_12
REMARK    3  A    between atoms: N_20  and  C_21
REMARK    4  A    between atoms: C_21  and  C_22
REMARK                            x       y       z     vdW  Elec       q    Type
REMARK                         _______ _______ _______ _____ _____    ______ ____
ROOT
ATOM      1  O   UNL     1       2.003   9.353  17.422  0.00  0.00    +0.000 OA
ATOM      2  C   UNL     1       1.858   8.614  18.400  0.00  0.00    +0.000 C 
ATOM      3  C   UNL     1       2.030   7.103  18.234  0.00  0.00    +0.000 C 
ATOM      4  N   UNL     1       2.218   6.315  19.453  0.00  0.00    +0.000 N 
ATOM      5  C   UNL     1       3.019   5.172  19.596  0.00  0.00    +0.000 C 
ATOM      6  O   UNL     1       3.070   4.558  20.662  0.00  0.00    +0.000 OA
ATOM      7  C   UNL     1       1.371   6.742  20.567  0.00  0.00    +0.000 C 
ATOM      8  C   UNL     1       1.542   8.242  20.823  0.00  0.00    +0.000 C 
ATOM      9  N   UNL     1       1.378   9.065  19.622  0.00  0.00    +0.000 N 
ENDROOT
BRANCH   5  10
ATOM     10  C   UNL     1       3.831   4.657  18.446  0.00  0.00    +0.000 A 
ATOM     11  C   UNL     1       3.207   3.804  17.518  0.00  0.00    +0.000 A 
ATOM     12  C   UNL     1       3.866   3.398  16.362  0.00  0.00    +0.000 A 
ATOM     13  C   UNL     1       5.194   3.750  16.166  0.00  0.00    +0.000 A 
ATOM     14  C   UNL     1       5.893   4.495  17.133  0.00  0.00    +0.000 A 
ATOM     15  C   UNL     1       5.200   4.955  18.277  0.00  0.00    +0.000 A 
ATOM     16 CL   UNL     1       6.066   5.906  19.446  0.00  0.00    +0.000 Cl
BRANCH  14  17
ATOM     17  C   UNL     1       7.359   4.774  16.914  0.00  0.00    +0.000 C 
ATOM     18  F   UNL     1       7.669   6.103  17.038  0.00  0.00    +0.000 F 
ATOM     19  F   UNL     1       8.170   4.143  17.805  0.00  0.00    +0.000 F 
ATOM     20  F   UNL     1       7.792   4.427  15.671  0.00  0.00    +0.000 F 
ENDBRANCH  14  17
ENDBRANCH   5  10
BRANCH   9  21
ATOM     21  C   UNL     1       1.179  10.501  19.797  0.00  0.00    +0.000 C 
BRANCH  21  22
ATOM     22  C   UNL     1      -0.251  10.941  19.631  0.00  0.00    +0.000 A 
ATOM     23  C   UNL     1      -1.053  10.503  18.575  0.00  0.00    +0.000 A 
ATOM     24  C   UNL     1      -2.327  11.041  18.399  0.00  0.00    +0.000 A 
ATOM     25  C   UNL     1      -2.761  12.003  19.297  0.00  0.00    +0.000 A 
ATOM     26  N   UNL     1      -2.025  12.441  20.338  0.00  0.00    +0.000 NA
ATOM     27  C   UNL     1      -0.791  11.907  20.477  0.00  0.00    +0.000 A 
ENDBRANCH  21  22
ENDBRANCH   9  21
TORSDOF 4
ENDMDL
MODEL 3
REMARK VINA RESULT:      -7.4      0.551      1.179
REMARK  Name = 
REMARK  4 active torsions:
REMARK  status: ('A' for Active; 'I' for Inactive)
REMARK    1  A    between atoms: C_5  and  C_7
REMARK    2  A    between atoms: C_11  and  C_12
REMARK    3  A    between atoms: N_20  and  C_21
REMARK    4  A    between atoms: C_21  and  C_22
REMARK                            x       y       z     vdW  Elec       q    Type
REMARK                         _______ _______ _______ _____ _____    ______ ____
ROOT
ATOM      1  O   UNL     1       2.203  10.189  17.442  0.00  0.00    +0.000 OA
ATOM      2  C   UNL     1       2.092   9.247  18.231  0.00  0.00    +0.000 C 
ATOM      3  C   UNL     1       2.658   7.878  17.854  0.00  0.00    +0.000 C 
ATOM      4  N   UNL     1       2.838   6.909  18.937  0.00  0.00    +0.000 N 
ATOM      5  C   UNL     1       3.866   5.960  19.049  0.00  0.00    +0.000 C 
ATOM      6  O   UNL     1       3.896   5.160  19.984  0.00  0.00    +0.000 OA
ATOM      7  C   UNL     1       1.745   6.901  19.908  0.00  0.00    +0.000 C 
ATOM      8  C   UNL     1       1.493   8.315  20.440  0.00  0.00    +0.000 C 
ATOM      9  N   UNL     1       1.324   9.318  19.386  0.00  0.00    +0.000 N 
ENDROOT
BRANCH   5  10
ATOM     10  C   UNL     1       4.954   5.884  18.021  0.00  0.00    +0.000 A 
ATOM     11  C   UNL     1       6.046   6.763  18.139  0.00  0.00    +0.000 A 
ATOM     12  C   UNL     1       7.147   6.655  17.297  0.00  0.00    +0.000 A 
ATOM     13  C   UNL     1       7.131   5.739  16.255  0.00  0.00    +0.000 A 
ATOM     14  C   UNL     1       6.004   4.929  16.024  0.00  0.00    +0.000 A 
ATOM     15  C   UNL     1       4.912   5.002  16.920  0.00  0.00    +0.000 A 
ATOM     16 CL   UNL     1       3.541   3.970  16.644  0.00  0.00    +0.000 Cl
BRANCH  14  17
ATOM     17  C   UNL     1       6.001   4.015  14.825  0.00  0.00    +0.000 C 
ATOM     18  F   UNL     1       4.929   4.229  13.997  0.00  0.00    +0.000 F 
ATOM     19  F   UNL     1       7.092   4.164  14.027  0.00  0.00    +0.000 F 
ATOM     20  F   UNL     1       5.930   2.696  15.155  0.00  0.00    +0.000 F 
ENDBRANCH  14  17
ENDBRANCH   5  10
BRANCH   9  21
ATOM     21  C   UNL     1       0.748  10.608  19.753  0.00  0.00    +0.000 C 
BRANCH  21  22
ATOM     22  C   UNL     1      -0.612  10.859  19.158  0.00  0.00    +0.000 A 
ATOM     23  C   UNL     1      -1.472  11.846  19.643  0.00  0.00    +0.000 A 
ATOM     24  C   UNL     1      -2.767  11.951  19.138  0.00  0.00    +0.000 A 
ATOM     25  C   UNL     1      -3.159  11.059  18.152  0.00  0.00    +0.000 A 
ATOM     26  N   UNL     1      -2.354  10.103  17.645  0.00  0.00    +0.000 NA
ATOM     27  C   UNL     1      -1.107  10.022  18.161  0.00  0.00    +0.000 A 
ENDBRANCH  21  22
ENDBRANCH   9  21
TORSDOF 4
ENDMDL
MODEL 4
REMARK VINA RESULT:      -7.3      1.778      2.329
REMARK  Name = 
REMARK  4 active torsions:
REMARK  status: ('A' for Active; 'I' for Inactive)
REMARK    1  A    between atoms: C_5  and  C_7
REMARK    2  A    between atoms: C_11  and  C_12
REMARK    3  A    between atoms: N_20  and  C_21
REMARK    4  A    between atoms: C_21  and  C_22
REMARK                            x       y       z     vdW  Elec       q    Type
REMARK                         _______ _______ _______ _____ _____    ______ ____
ROOT
ATOM      1  O   UNL     1       2.113   9.345  17.575  0.00  0.00    +0.000 OA
ATOM      2  C   UNL     1       1.942   8.554  18.507  0.00  0.00    +0.000 C 
ATOM      3  C   UNL     1       2.099   7.053  18.259  0.00  0.00    +0.000 C 
ATOM      4  N   UNL     1       2.257   6.195  19.435  0.00  0.00    +0.000 N 
ATOM      5  C   UNL     1       3.042   5.037  19.526  0.00  0.00    +0.000 C 
ATOM      6  O   UNL     1       3.067   4.363  20.557  0.00  0.00    +0.000 OA
ATOM      7  C   UNL     1       1.396   6.570  20.556  0.00  0.00    +0.000 C 
ATOM      8  C   UNL     1       1.579   8.051  20.899  0.00  0.00    +0.000 C 
ATOM      9  N   UNL     1       1.446   8.942  19.744  0.00  0.00    +0.000 N 
ENDROOT
BRANCH   5  10
ATOM     10  C   UNL     1       3.869   4.577  18.364  0.00  0.00    +0.000 A 
ATOM     11  C   UNL     1       3.265   3.745  17.403  0.00  0.00    +0.000 A 
ATOM     12  C   UNL     1       3.936   3.393  16.237  0.00  0.00    +0.000 A 
ATOM     13  C   UNL     1       5.258   3.775  16.060  0.00  0.00    +0.000 A 
ATOM     14  C   UNL     1       5.939   4.498  17.057  0.00  0.00    +0.000 A 
ATOM     15  C   UNL     1       5.233   4.905  18.212  0.00  0.00    +0.000 A 
ATOM     16 CL   UNL     1       6.076   5.830  19.418  0.00  0.00    +0.000 Cl
BRANCH  14  17
ATOM     17  C   UNL     1       7.401   4.811  16.855  0.00  0.00    +0.000 C 
ATOM     18  F   UNL     1       7.851   4.456  15.610  0.00  0.00    +0.000 F 
ATOM     19  F   UNL     1       7.693   6.135  16.966  0.00  0.00    +0.000 F 
ATOM     20  F   UNL     1       8.216   4.152  17.724  0.00  0.00    +0.000 F 
ENDBRANCH  14  17
ENDBRANCH   5  10
BRANCH   9  21
ATOM     21  C   UNL     1       1.260  10.368  19.996  0.00  0.00    +0.000 C 
BRANCH  21  22
ATOM     22  C   UNL     1       0.044  10.951  19.326  0.00  0.00    +0.000 A 
ATOM     23  C   UNL     1      -1.119  10.210  19.108  0.00  0.00    +0.000 A 
ATOM     24  C   UNL     1      -2.167  10.760  18.371  0.00  0.00    +0.000 A 
ATOM     25  C   UNL     1      -2.016  12.046  17.877  0.00  0.00    +0.000 A 
ATOM     26  N   UNL     1      -0.916  12.800  18.079  0.00  0.00    +0.000 NA
ATOM     27  C   UNL     1       0.086  12.236  18.791  0.00  0.00    +0.000 A 
ENDBRANCH  21  22
ENDBRANCH   9  21
TORSDOF 4
ENDMDL
MODEL 5
REMARK VINA RESULT:      -7.1      4.916      8.819
REMARK  Name = 
REMARK  4 active torsions:
REMARK  status: ('A' for Active; 'I' for Inactive)
REMARK    1  A    between atoms: C_5  and  C_7
REMARK    2  A    between atoms: C_11  and  C_12
REMARK    3  A    between atoms: N_20  and  C_21
REMARK    4  A    between atoms: C_21  and  C_22
REMARK                            x       y       z     vdW  Elec       q    Type
REMARK                         _______ _______ _______ _____ _____    ______ ____
ROOT
ATOM      1  O   UNL     1       3.106   7.718  16.828  0.00  0.00    +0.000 OA
ATOM      2  C   UNL     1       2.695   7.609  17.987  0.00  0.00    +0.000 C 
ATOM      3  C   UNL     1       2.161   8.843  18.716  0.00  0.00    +0.000 C 
ATOM      4  N   UNL     1       1.357   8.613  19.917  0.00  0.00    +0.000 N 
ATOM      5  C   UNL     1       0.261   9.373  20.350  0.00  0.00    +0.000 C 
ATOM      6  O   UNL     1      -0.319   9.115  21.404  0.00  0.00    +0.000 OA
ATOM      7  C   UNL     1       1.867   7.539  20.770  0.00  0.00    +0.000 C 
ATOM      8  C   UNL     1       2.061   6.257  19.956  0.00  0.00    +0.000 C 
ATOM      9  N   UNL     1       2.847   6.450  18.735  0.00  0.00    +0.000 N 
ENDROOT
BRANCH   5  10
ATOM     10  C   UNL     1      -0.232  10.536  19.542  0.00  0.00    +0.000 A 
ATOM     11  C   UNL     1      -1.210  10.299  18.559  0.00  0.00    +0.000 A 
ATOM     12  C   UNL     1      -1.801  11.351  17.868  0.00  0.00    +0.000 A 
ATOM     13  C   UNL     1      -1.350  12.648  18.069  0.00  0.00    +0.000 A 
ATOM     14  C   UNL     1      -0.285  12.912  18.949  0.00  0.00    +0.000 A 
ATOM     15  C   UNL     1       0.271  11.846  19.693  0.00  0.00    +0.000 A 
ATOM     16 CL   UNL     1       1.562  12.193  20.804  0.00  0.00    +0.000 Cl
BRANCH  14  17
ATOM     17  C   UNL     1       0.227  14.326  19.063  0.00  0.00    +0.000 C 
ATOM     18  F   UNL     1      -0.465  15.206  18.273  0.00  0.00    +0.000 F 
ATOM     19  F   UNL     1       0.131  14.837  20.320  0.00  0.00    +0.000 F 
ATOM     20  F   UNL     1       1.527  14.460  18.681  0.00  0.00    +0.000 F 
ENDBRANCH  14  17
ENDBRANCH   5  10
BRANCH   9  21
ATOM     21  C   UNL     1       3.382   5.266  18.070  0.00  0.00    +0.000 C 
BRANCH  21  22
ATOM     22  C   UNL     1       4.886   5.216  18.031  0.00  0.00    +0.000 A 
ATOM     23  C   UNL     1       5.598   4.988  16.851  0.00  0.00    +0.000 A 
ATOM     24  C   UNL     1       6.983   4.826  16.894  0.00  0.00    +0.000 A 
ATOM     25  C   UNL     1       7.613   4.906  18.126  0.00  0.00    +0.000 A 
ATOM     26  N   UNL     1       6.965   5.141  19.285  0.00  0.00    +0.000 NA
ATOM     27  C   UNL     1       5.622   5.286  19.211  0.00  0.00    +0.000 A 
ENDBRANCH  21  22
ENDBRANCH   9  21
TORSDOF 4
ENDMDL
MODEL 6
REMARK VINA RESULT:      -7.1      2.112      2.877
REMARK  Name = 
REMARK  4 active torsions:
REMARK  status: ('A' for Active; 'I' for Inactive)
REMARK    1  A    between atoms: C_5  and  C_7
REMARK    2  A    between atoms: C_11  and  C_12
REMARK    3  A    between atoms: N_20  and  C_21
REMARK    4  A    between atoms: C_21  and  C_22
REMARK                            x       y       z     vdW  Elec       q    Type
REMARK                         _______ _______ _______ _____ _____    ______ ____
ROOT
ATOM      1  O   UNL     1       2.013   9.379  17.511  0.00  0.00    +0.000 OA
ATOM      2  C   UNL     1       1.872   8.615  18.470  0.00  0.00    +0.000 C 
ATOM      3  C   UNL     1       2.035   7.109  18.264  0.00  0.00    +0.000 C 
ATOM      4  N   UNL     1       2.228   6.288  19.461  0.00  0.00    +0.000 N 
ATOM      5  C   UNL     1       3.025   5.139  19.569  0.00  0.00    +0.000 C 
ATOM      6  O   UNL     1       3.081   4.497  20.618  0.00  0.00    +0.000 OA
ATOM      7  C   UNL     1       1.391   6.690  20.592  0.00  0.00    +0.000 C 
ATOM      8  C   UNL     1       1.570   8.182  20.885  0.00  0.00    +0.000 C 
ATOM      9  N   UNL     1       1.402   9.037  19.707  0.00  0.00    +0.000 N 
ENDROOT
BRANCH   5  10
ATOM     10  C   UNL     1       3.827   4.651  18.401  0.00  0.00    +0.000 A 
ATOM     11  C   UNL     1       3.195   3.822  17.456  0.00  0.00    +0.000 A 
ATOM     12  C   UNL     1       3.844   3.444  16.286  0.00  0.00    +0.000 A 
ATOM     13  C   UNL     1       5.171   3.797  16.089  0.00  0.00    +0.000 A 
ATOM     14  C   UNL     1       5.879   4.516  17.069  0.00  0.00    +0.000 A 
ATOM     15  C   UNL     1       5.197   4.949  18.229  0.00  0.00    +0.000 A 
ATOM     16 CL   UNL     1       6.074   5.869  19.415  0.00  0.00    +0.000 Cl
BRANCH  14  17
ATOM     17  C   UNL     1       7.344   4.796  16.846  0.00  0.00    +0.000 C 
ATOM     18  F   UNL     1       7.767   4.437  15.593  0.00  0.00    +0.000 F 
ATOM     19  F   UNL     1       7.668   6.112  16.959  0.00  0.00    +0.000 F 
ATOM     20  F   UNL     1       8.158   4.115  17.699  0.00  0.00    +0.000 F 
ENDBRANCH  14  17
ENDBRANCH   5  10
BRANCH   9  21
ATOM     21  C   UNL     1       1.210  10.468  19.920  0.00  0.00    +0.000 C 
BRANCH  21  22
ATOM     22  C   UNL     1       0.146  10.796  20.933  0.00  0.00    +0.000 A 
ATOM     23  C   UNL     1      -0.953  11.604  20.632  0.00  0.00    +0.000 A 
ATOM     24  C   UNL     1      -1.839  11.978  21.641  0.00  0.00    +0.000 A 
ATOM     25  C   UNL     1      -1.598  11.521  22.927  0.00  0.00    +0.000 A 
ATOM     26  N   UNL     1      -0.559  10.727  23.256  0.00  0.00    +0.000 NA
ATOM     27  C   UNL     1       0.288  10.388  22.257  0.00  0.00    +0.000 A 
ENDBRANCH  21  22
ENDBRANCH   9  21
TORSDOF 4
ENDMDL
MODEL 7
REMARK VINA RESULT:      -7.1      1.717      2.414
REMARK  Name = 
REMARK  4 active torsions:
REMARK  status: ('A' for Active; 'I' for Inactive)
REMARK    1  A    between atoms: C_5  and  C_7
REMARK    2  A    between atoms: C_11  and  C_12
REMARK    3  A    between atoms: N_20  and  C_21
REMARK    4  A    between atoms: C_21  and  C_22
REMARK                            x       y       z     vdW  Elec       q    Type
REMARK                         _______ _______ _______ _____ _____    ______ ____
ROOT
ATOM      1  O   UNL     1       2.047   9.448  17.390  0.00  0.00    +0.000 OA
ATOM      2  C   UNL     1       1.881   8.720  18.373  0.00  0.00    +0.000 C 
ATOM      3  C   UNL     1       2.024   7.205  18.220  0.00  0.00    +0.000 C 
ATOM      4  N   UNL     1       2.188   6.423  19.446  0.00  0.00    +0.000 N 
ATOM      5  C   UNL     1       2.966   5.266  19.604  0.00  0.00    +0.000 C 
ATOM      6  O   UNL     1       2.997   4.659  20.675  0.00  0.00    +0.000 OA
ATOM      7  C   UNL     1       1.342   6.876  20.551  0.00  0.00    +0.000 C 
ATOM      8  C   UNL     1       1.541   8.374  20.796  0.00  0.00    +0.000 C 
ATOM      9  N   UNL     1       1.402   9.190  19.588  0.00  0.00    +0.000 N 
ENDROOT
BRANCH   5  10
ATOM     10  C   UNL     1       3.775   4.726  18.464  0.00  0.00    +0.000 A 
ATOM     11  C   UNL     1       3.147   3.861  17.549  0.00  0.00    +0.000 A 
ATOM     12  C   UNL     1       3.805   3.432  16.402  0.00  0.00    +0.000 A 
ATOM     13  C   UNL     1       5.135   3.771  16.201  0.00  0.00    +0.000 A 
ATOM     14  C   UNL     1       5.838   4.528  17.157  0.00  0.00    +0.000 A 
ATOM     15  C   UNL     1       5.147   5.012  18.291  0.00  0.00    +0.000 A 
ATOM     16 CL   UNL     1       6.018   5.976  19.446  0.00  0.00    +0.000 Cl
BRANCH  14  17
ATOM     17  C   UNL     1       7.306   4.792  16.935  0.00  0.00    +0.000 C 
ATOM     18  F   UNL     1       8.103   4.163  17.856  0.00  0.00    +0.000 F 
ATOM     19  F   UNL     1       7.759   4.358  15.729  0.00  0.00    +0.000 F 
ATOM     20  F   UNL     1       7.635   6.110  17.029  0.00  0.00    +0.000 F 
ENDBRANCH  14  17
ENDBRANCH   5  10
BRANCH   9  21
ATOM     21  C   UNL     1       1.229  10.631  19.749  0.00  0.00    +0.000 C 
BRANCH  21  22
ATOM     22  C   UNL     1      -0.175  11.109  19.491  0.00  0.00    +0.000 A 
ATOM     23  C   UNL     1      -0.790  12.087  20.275  0.00  0.00    +0.000 A 
ATOM     24  C   UNL     1      -2.133  12.400  20.070  0.00  0.00    +0.000 A 
ATOM     25  C   UNL     1      -2.819  11.722  19.075  0.00  0.00    +0.000 A 
ATOM     26  N   UNL     1      -2.258  10.783  18.286  0.00  0.00    +0.000 NA
ATOM     27  C   UNL     1      -0.956  10.496  18.514  0.00  0.00    +0.000 A 
ENDBRANCH  21  22
ENDBRANCH   9  21
TORSDOF 4
ENDMDL
MODEL 8
REMARK VINA RESULT:      -7.1      4.696      8.492
REMARK  Name = 
REMARK  4 active torsions:
REMARK  status: ('A' for Active; 'I' for Inactive)
REMARK    1  A    between atoms: C_5  and  C_7
REMARK    2  A    between atoms: C_11  and  C_12
REMARK    3  A    between atoms: N_20  and  C_21
REMARK    4  A    between atoms: C_21  and  C_22
REMARK                            x       y       z     vdW  Elec       q    Type
REMARK                         _______ _______ _______ _____ _____    ______ ____
ROOT
ATOM      1  O   UNL     1       7.033   7.196  16.992  0.00  0.00    +0.000 OA
ATOM      2  C   UNL     1       6.198   6.293  17.091  0.00  0.00    +0.000 C 
ATOM      3  C   UNL     1       5.032   6.449  18.068  0.00  0.00    +0.000 C 
ATOM      4  N   UNL     1       3.888   5.552  17.891  0.00  0.00    +0.000 N 
ATOM      5  C   UNL     1       2.538   5.863  18.112  0.00  0.00    +0.000 C 
ATOM      6  O   UNL     1       1.657   5.015  17.974  0.00  0.00    +0.000 OA
ATOM      7  C   UNL     1       4.263   4.178  17.561  0.00  0.00    +0.000 C 
ATOM      8  C   UNL     1       5.201   4.156  16.350  0.00  0.00    +0.000 C 
ATOM      9  N   UNL     1       6.350   5.054  16.481  0.00  0.00    +0.000 N 
ENDROOT
BRANCH   5  10
ATOM     10  C   UNL     1       2.129   7.241  18.537  0.00  0.00    +0.000 A 
ATOM     11  C   UNL     1       2.254   8.291  17.609  0.00  0.00    +0.000 A 
ATOM     12  C   UNL     1       1.771   9.563  17.897  0.00  0.00    +0.000 A 
ATOM     13  C   UNL     1       1.253   9.836  19.154  0.00  0.00    +0.000 A 
ATOM     14  C   UNL     1       1.228   8.846  20.154  0.00  0.00    +0.000 A 
ATOM     15  C   UNL     1       1.664   7.540  19.837  0.00  0.00    +0.000 A 
ATOM     16 CL   UNL     1       1.594   6.317  21.071  0.00  0.00    +0.000 Cl
BRANCH  14  17
ATOM     17  C   UNL     1       0.738   9.219  21.531  0.00  0.00    +0.000 C 
ATOM     18  F   UNL     1       1.672   8.985  22.507  0.00  0.00    +0.000 F 
ATOM     19  F   UNL     1       0.425  10.536  21.657  0.00  0.00    +0.000 F 
ATOM     20  F   UNL     1      -0.359   8.513  21.920  0.00  0.00    +0.000 F 
ENDBRANCH  14  17
ENDBRANCH   5  10
BRANCH   9  21
ATOM     21  C   UNL     1       7.473   4.870  15.567  0.00  0.00    +0.000 C 
BRANCH  21  22
ATOM     22  C   UNL     1       7.061   4.581  14.148  0.00  0.00    +0.000 A 
ATOM     23  C   UNL     1       6.051   3.670  13.832  0.00  0.00    +0.000 A 
ATOM     24  C   UNL     1       5.797   3.346  12.499  0.00  0.00    +0.000 A 
ATOM     25  C   UNL     1       6.566   3.955  11.520  0.00  0.00    +0.000 A 
ATOM     26  N   UNL     1       7.539   4.852  11.783  0.00  0.00    +0.000 NA
ATOM     27  C   UNL     1       7.766   5.138  13.085  0.00  0.00    +0.000 A 
ENDBRANCH  21  22
ENDBRANCH   9  21
TORSDOF 4
ENDMDL
MODEL 9
REMARK VINA RESULT:      -7.0      2.899      3.920
REMARK  Name = 
REMARK  4 active torsions:
REMARK  status: ('A' for Active; 'I' for Inactive)
REMARK    1  A    between atoms: C_5  and  C_7
REMARK    2  A    between atoms: C_11  and  C_12
REMARK    3  A    between atoms: N_20  and  C_21
REMARK    4  A    between atoms: C_21  and  C_22
REMARK                            x       y       z     vdW  Elec       q    Type
REMARK                         _______ _______ _______ _____ _____    ______ ____
ROOT
ATOM      1  O   UNL     1       0.573   8.102  21.522  0.00  0.00    +0.000 OA
ATOM      2  C   UNL     1       0.998   8.505  20.435  0.00  0.00    +0.000 C 
ATOM      3  C   UNL     1       2.316   7.954  19.891  0.00  0.00    +0.000 C 
ATOM      4  N   UNL     1       2.592   8.166  18.469  0.00  0.00    +0.000 N 
ATOM      5  C   UNL     1       3.263   7.287  17.606  0.00  0.00    +0.000 C 
ATOM      6  O   UNL     1       3.480   7.587  16.432  0.00  0.00    +0.000 OA
ATOM      7  C   UNL     1       2.206   9.492  17.986  0.00  0.00    +0.000 C 
ATOM      8  C   UNL     1       0.745   9.785  18.336  0.00  0.00    +0.000 C 
ATOM      9  N   UNL     1       0.424   9.567  19.748  0.00  0.00    +0.000 N 
ENDROOT
BRANCH   5  10
ATOM     10  C   UNL     1       3.749   5.956  18.094  0.00  0.00    +0.000 A 
ATOM     11  C   UNL     1       5.081   5.852  18.535  0.00  0.00    +0.000 A 
ATOM     12  C   UNL     1       5.552   4.682  19.120  0.00  0.00    +0.000 A 
ATOM     13  C   UNL     1       4.736   3.562  19.177  0.00  0.00    +0.000 A 
ATOM     14  C   UNL     1       3.439   3.585  18.630  0.00  0.00    +0.000 A 
ATOM     15  C   UNL     1       2.945   4.795  18.091  0.00  0.00    +0.000 A 
ATOM     16 CL   UNL     1       1.329   4.821  17.452  0.00  0.00    +0.000 Cl
BRANCH  14  17
ATOM     17  C   UNL     1       2.626   2.315  18.636  0.00  0.00    +0.000 C 
ATOM     18  F   UNL     1       1.548   2.382  19.481  0.00  0.00    +0.000 F 
ATOM     19  F   UNL     1       2.098   2.003  17.422  0.00  0.00    +0.000 F 
ATOM     20  F   UNL     1       3.331   1.228  19.052  0.00  0.00    +0.000 F 
ENDBRANCH  14  17
ENDBRANCH   5  10
BRANCH   9  21
ATOM     21  C   UNL     1      -0.820  10.130  20.264  0.00  0.00    +0.000 C 
BRANCH  21  22
ATOM     22  C   UNL     1      -0.623  11.325  21.158  0.00  0.00    +0.000 A 
ATOM     23  C   UNL     1      -1.499  11.633  22.201  0.00  0.00    +0.000 A 
ATOM     24  C   UNL     1      -1.340  12.819  22.916  0.00  0.00    +0.000 A 
ATOM     25  C   UNL     1      -0.298  13.662  22.563  0.00  0.00    +0.000 A 
ATOM     26  N   UNL     1       0.578  13.394  21.573  0.00  0.00    +0.000 NA
ATOM     27  C   UNL     1       0.393  12.239  20.894  0.00  0.00    +0.000 A 
ENDBRANCH  21  22
ENDBRANCH   9  21
TORSDOF 4
ENDMDL
