MODEL 1
REMARK VINA RESULT:      -7.1      0.000      0.000
REMARK  Name = 
REMARK  9 active torsions:
REMARK  status: ('A' for Active; 'I' for Inactive)
REMARK    1  A    between atoms: C_1  and  C_2
REMARK    2  A    between atoms: C_5  and  C_6
REMARK    3  A    between atoms: C_6  and  N_7
REMARK    4  A    between atoms: C_8  and  C_10
REMARK    5  A    between atoms: C_10  and  C_11
REMARK    6  A    between atoms: C_11  and  C_12
REMARK    7  A    between atoms: C_12  and  C_13
REMARK    8  A    between atoms: N_15  and  C_16
REMARK    9  A    between atoms: C_16  and  C_17
REMARK                            x       y       z     vdW  Elec       q    Type
REMARK                         _______ _______ _______ _____ _____    ______ ____
ROOT
ATOM      1  C   UNL     1      -0.330   9.182  22.315  0.00  0.00    +0.000 C 
ENDROOT
BRANCH   1   2
ATOM      2  C   UNL     1      -0.676  10.628  22.680  0.00  0.00    +0.000 C 
BRANCH   2   4
ATOM      3  N   UNL     1      -1.140  11.123  20.342  0.00  0.00    +0.000 N 
ATOM      4  C   UNL     1      -0.496  11.548  21.480  0.00  0.00    +0.000 C 
ATOM      5  O   UNL     1       0.159  12.585  21.517  0.00  0.00    +0.000 OA
ATOM      6  H   UNL     1      -1.545  10.197  20.295  0.00  0.00    +0.000 HD
BRANCH   3   7
ATOM      7  C   UNL     1      -1.002  11.853  19.100  0.00  0.00    +0.000 C 
BRANCH   7  12
ATOM      8  C   UNL     1      -3.048  10.317  14.988  0.00  0.00    +0.000 C 
ATOM      9  C   UNL     1      -3.090  10.858  16.360  0.00  0.00    +0.000 A 
ATOM     10  C   UNL     1      -4.121  11.237  17.191  0.00  0.00    +0.000 A 
ATOM     11  C   UNL     1      -3.522  11.684  18.391  0.00  0.00    +0.000 A 
ATOM     12  C   UNL     1      -2.159  11.550  18.223  0.00  0.00    +0.000 A 
ATOM     13  O   UNL     1      -1.890  11.043  16.982  0.00  0.00    +0.000 OA
ENDBRANCH   7  12
ENDBRANCH   3   7
ENDBRANCH   2   4
ENDBRANCH   1   2
BRANCH   1  14
ATOM     14  C   UNL     1       1.168   8.919  22.145  0.00  0.00    +0.000 C 
BRANCH  14  15
ATOM     15  C   UNL     1       1.478   8.439  20.735  0.00  0.00    +0.000 C 
ATOM     16  O   UNL     1       1.136   9.048  19.724  0.00  0.00    +0.000 OA
ATOM     17  N   UNL     1       2.187   7.257  20.677  0.00  0.00    +0.000 N 
ATOM     18  H   UNL     1       2.251   6.680  21.505  0.00  0.00    +0.000 HD
BRANCH  17  19
ATOM     19  C   UNL     1       2.489   6.645  19.397  0.00  0.00    +0.000 C 
BRANCH  19  20
ATOM     20  C   UNL     1       1.984   5.227  19.320  0.00  0.00    +0.000 A 
ATOM     21  C   UNL     1       1.467   4.588  20.455  0.00  0.00    +0.000 A 
ATOM     22  C   UNL     1       1.002   3.273  20.383  0.00  0.00    +0.000 A 
ATOM     23  C   UNL     1       1.052   2.582  19.172  0.00  0.00    +0.000 A 
ATOM     24  C   UNL     1       1.559   3.205  18.034  0.00  0.00    +0.000 A 
ATOM     25  C   UNL     1       2.026   4.521  18.107  0.00  0.00    +0.000 A 
ENDBRANCH  19  20
ENDBRANCH  17  19
ENDBRANCH  14  15
ENDBRANCH   1  14
TORSDOF 8
ENDMDL
MODEL 2
REMARK VINA RESULT:      -6.9      3.110      5.359
REMARK  Name = 
REMARK  9 active torsions:
REMARK  status: ('A' for Active; 'I' for Inactive)
REMARK    1  A    between atoms: C_1  and  C_2
REMARK    2  A    between atoms: C_5  and  C_6
REMARK    3  A    between atoms: C_6  and  N_7
REMARK    4  A    between atoms: C_8  and  C_10
REMARK    5  A    between atoms: C_10  and  C_11
REMARK    6  A    between atoms: C_11  and  C_12
REMARK    7  A    between atoms: C_12  and  C_13
REMARK    8  A    between atoms: N_15  and  C_16
REMARK    9  A    between atoms: C_16  and  C_17
REMARK                            x       y       z     vdW  Elec       q    Type
REMARK                         _______ _______ _______ _____ _____    ______ ____
ROOT
ATOM      1  C   UNL     1       4.473   6.909  17.189  0.00  0.00    +0.000 C 
ENDROOT
BRANCH   1   2
ATOM      2  C   UNL     1       3.422   6.830  18.299  0.00  0.00    +0.000 C 
BRANCH   2   4
ATOM      3  N   UNL     1       1.897   8.335  19.454  0.00  0.00    +0.000 N 
ATOM      4  C   UNL     1       2.490   8.033  18.251  0.00  0.00    +0.000 C 
ATOM      5  O   UNL     1       2.283   8.687  17.233  0.00  0.00    +0.000 OA
ATOM      6  H   UNL     1       1.965   7.697  20.236  0.00  0.00    +0.000 HD
BRANCH   3   7
ATOM      7  C   UNL     1       0.929   9.406  19.551  0.00  0.00    +0.000 C 
BRANCH   7  12
ATOM      8  C   UNL     1      -1.654  11.421  23.118  0.00  0.00    +0.000 C 
ATOM      9  C   UNL     1      -0.652  10.478  22.586  0.00  0.00    +0.000 A 
ATOM     10  C   UNL     1       0.161   9.536  23.177  0.00  0.00    +0.000 A 
ATOM     11  C   UNL     1       0.913   8.947  22.134  0.00  0.00    +0.000 A 
ATOM     12  C   UNL     1       0.515   9.565  20.966  0.00  0.00    +0.000 A 
ATOM     13  O   UNL     1      -0.444  10.501  21.238  0.00  0.00    +0.000 OA
ENDBRANCH   7  12
ENDBRANCH   3   7
ENDBRANCH   2   4
ENDBRANCH   1   2
BRANCH   1  14
ATOM     14  C   UNL     1       5.723   6.064  17.446  0.00  0.00    +0.000 C 
BRANCH  14  15
ATOM     15  C   UNL     1       5.365   4.764  18.150  0.00  0.00    +0.000 C 
ATOM     16  O   UNL     1       5.894   4.395  19.196  0.00  0.00    +0.000 OA
ATOM     17  N   UNL     1       4.384   4.026  17.522  0.00  0.00    +0.000 N 
ATOM     18  H   UNL     1       4.140   4.244  16.566  0.00  0.00    +0.000 HD
BRANCH  17  19
ATOM     19  C   UNL     1       3.994   2.730  18.043  0.00  0.00    +0.000 C 
BRANCH  19  20
ATOM     20  C   UNL     1       3.035   2.854  19.198  0.00  0.00    +0.000 A 
ATOM     21  C   UNL     1       3.409   2.447  20.486  0.00  0.00    +0.000 A 
ATOM     22  C   UNL     1       2.517   2.560  21.556  0.00  0.00    +0.000 A 
ATOM     23  C   UNL     1       1.240   3.079  21.347  0.00  0.00    +0.000 A 
ATOM     24  C   UNL     1       0.855   3.491  20.073  0.00  0.00    +0.000 A 
ATOM     25  C   UNL     1       1.747   3.377  19.002  0.00  0.00    +0.000 A 
ENDBRANCH  19  20
ENDBRANCH  17  19
ENDBRANCH  14  15
ENDBRANCH   1  14
TORSDOF 8
ENDMDL
MODEL 3
REMARK VINA RESULT:      -6.9      3.102      8.223
REMARK  Name = 
REMARK  9 active torsions:
REMARK  status: ('A' for Active; 'I' for Inactive)
REMARK    1  A    between atoms: C_1  and  C_2
REMARK    2  A    between atoms: C_5  and  C_6
REMARK    3  A    between atoms: C_6  and  N_7
REMARK    4  A    between atoms: C_8  and  C_10
REMARK    5  A    between atoms: C_10  and  C_11
REMARK    6  A    between atoms: C_11  and  C_12
REMARK    7  A    between atoms: C_12  and  C_13
REMARK    8  A    between atoms: N_15  and  C_16
REMARK    9  A    between atoms: C_16  and  C_17
REMARK                            x       y       z     vdW  Elec       q    Type
REMARK                         _______ _______ _______ _____ _____    ______ ____
ROOT
ATOM      1  C   UNL     1       4.056   6.945  17.120  0.00  0.00    +0.000 C 
ENDROOT
BRANCH   1   2
ATOM      2  C   UNL     1       5.403   6.273  17.395  0.00  0.00    +0.000 C 
BRANCH   2   4
ATOM      3  N   UNL     1       4.291   4.116  17.205  0.00  0.00    +0.000 N 
ATOM      4  C   UNL     1       5.207   4.856  17.915  0.00  0.00    +0.000 C 
ATOM      5  O   UNL     1       5.812   4.400  18.881  0.00  0.00    +0.000 OA
ATOM      6  H   UNL     1       3.700   4.557  16.512  0.00  0.00    +0.000 HD
BRANCH   3   7
ATOM      7  C   UNL     1       3.941   2.776  17.623  0.00  0.00    +0.000 C 
BRANCH   7  12
ATOM      8  C   UNL     1       1.653   2.582  21.888  0.00  0.00    +0.000 C 
ATOM      9  C   UNL     1       1.699   2.741  20.422  0.00  0.00    +0.000 A 
ATOM     10  C   UNL     1       0.729   2.957  19.468  0.00  0.00    +0.000 A 
ATOM     11  C   UNL     1       1.398   3.015  18.224  0.00  0.00    +0.000 A 
ATOM     12  C   UNL     1       2.740   2.831  18.491  0.00  0.00    +0.000 A 
ATOM     13  O   UNL     1       2.928   2.665  19.835  0.00  0.00    +0.000 OA
ENDBRANCH   7  12
ENDBRANCH   3   7
ENDBRANCH   2   4
ENDBRANCH   1   2
BRANCH   1  14
ATOM     14  C   UNL     1       3.195   7.162  18.367  0.00  0.00    +0.000 C 
BRANCH  14  15
ATOM     15  C   UNL     1       2.302   8.383  18.204  0.00  0.00    +0.000 C 
ATOM     16  O   UNL     1       2.233   9.035  17.165  0.00  0.00    +0.000 OA
ATOM     17  N   UNL     1       1.563   8.702  19.324  0.00  0.00    +0.000 N 
ATOM     18  H   UNL     1       1.812   8.290  20.213  0.00  0.00    +0.000 HD
BRANCH  17  19
ATOM     19  C   UNL     1       0.724   9.885  19.336  0.00  0.00    +0.000 C 
BRANCH  19  20
ATOM     20  C   UNL     1       0.110  10.125  20.691  0.00  0.00    +0.000 A 
ATOM     21  C   UNL     1       0.084   9.108  21.655  0.00  0.00    +0.000 A 
ATOM     22  C   UNL     1      -0.488   9.331  22.910  0.00  0.00    +0.000 A 
ATOM     23  C   UNL     1      -1.042  10.575  23.213  0.00  0.00    +0.000 A 
ATOM     24  C   UNL     1      -1.020  11.596  22.266  0.00  0.00    +0.000 A 
ATOM     25  C   UNL     1      -0.449  11.373  21.009  0.00  0.00    +0.000 A 
ENDBRANCH  19  20
ENDBRANCH  17  19
ENDBRANCH  14  15
ENDBRANCH   1  14
TORSDOF 8
ENDMDL
MODEL 4
REMARK VINA RESULT:      -6.9      6.180      9.655
REMARK  Name = 
REMARK  9 active torsions:
REMARK  status: ('A' for Active; 'I' for Inactive)
REMARK    1  A    between atoms: C_1  and  C_2
REMARK    2  A    between atoms: C_5  and  C_6
REMARK    3  A    between atoms: C_6  and  N_7
REMARK    4  A    between atoms: C_8  and  C_10
REMARK    5  A    between atoms: C_10  and  C_11
REMARK    6  A    between atoms: C_11  and  C_12
REMARK    7  A    between atoms: C_12  and  C_13
REMARK    8  A    between atoms: N_15  and  C_16
REMARK    9  A    between atoms: C_16  and  C_17
REMARK                            x       y       z     vdW  Elec       q    Type
REMARK                         _______ _______ _______ _____ _____    ______ ____
ROOT
ATOM      1  C   UNL     1       7.665   4.954  17.849  0.00  0.00    +0.000 C 
ENDROOT
BRANCH   1   2
ATOM      2  C   UNL     1       6.232   4.472  17.610  0.00  0.00    +0.000 C 
BRANCH   2   4
ATOM      3  N   UNL     1       4.271   5.526  18.596  0.00  0.00    +0.000 N 
ATOM      4  C   UNL     1       5.363   4.725  18.835  0.00  0.00    +0.000 C 
ATOM      5  O   UNL     1       5.603   4.255  19.942  0.00  0.00    +0.000 OA
ATOM      6  H   UNL     1       4.178   6.020  17.718  0.00  0.00    +0.000 HD
BRANCH   3   7
ATOM      7  C   UNL     1       3.392   5.917  19.676  0.00  0.00    +0.000 C 
BRANCH   7  12
ATOM      8  C   UNL     1       0.549   2.113  18.725  0.00  0.00    +0.000 C 
ATOM      9  C   UNL     1       1.252   3.040  19.633  0.00  0.00    +0.000 A 
ATOM     10  C   UNL     1       1.330   3.136  21.005  0.00  0.00    +0.000 A 
ATOM     11  C   UNL     1       2.161   4.246  21.281  0.00  0.00    +0.000 A 
ATOM     12  C   UNL     1       2.543   4.763  20.059  0.00  0.00    +0.000 A 
ATOM     13  O   UNL     1       1.991   4.027  19.048  0.00  0.00    +0.000 OA
ENDBRANCH   7  12
ENDBRANCH   3   7
ENDBRANCH   2   4
ENDBRANCH   1   2
BRANCH   1  14
ATOM     14  C   UNL     1       7.769   6.203  18.728  0.00  0.00    +0.000 C 
BRANCH  14  15
ATOM     15  C   UNL     1       7.768   7.466  17.879  0.00  0.00    +0.000 C 
ATOM     16  O   UNL     1       7.279   7.521  16.752  0.00  0.00    +0.000 OA
ATOM     17  N   UNL     1       8.359   8.558  18.479  0.00  0.00    +0.000 N 
ATOM     18  H   UNL     1       8.941   8.417  19.294  0.00  0.00    +0.000 HD
BRANCH  17  19
ATOM     19  C   UNL     1       8.494   9.808  17.756  0.00  0.00    +0.000 C 
BRANCH  19  20
ATOM     20  C   UNL     1       9.204  10.856  18.574  0.00  0.00    +0.000 A 
ATOM     21  C   UNL     1       9.536  12.097  18.014  0.00  0.00    +0.000 A 
ATOM     22  C   UNL     1      10.197  13.067  18.772  0.00  0.00    +0.000 A 
ATOM     23  C   UNL     1      10.534  12.803  20.100  0.00  0.00    +0.000 A 
ATOM     24  C   UNL     1      10.207  11.576  20.671  0.00  0.00    +0.000 A 
ATOM     25  C   UNL     1       9.547  10.605  19.912  0.00  0.00    +0.000 A 
ENDBRANCH  19  20
ENDBRANCH  17  19
ENDBRANCH  14  15
ENDBRANCH   1  14
TORSDOF 8
ENDMDL
MODEL 5
REMARK VINA RESULT:      -6.9      3.530      6.477
REMARK  Name = 
REMARK  9 active torsions:
REMARK  status: ('A' for Active; 'I' for Inactive)
REMARK    1  A    between atoms: C_1  and  C_2
REMARK    2  A    between atoms: C_5  and  C_6
REMARK    3  A    between atoms: C_6  and  N_7
REMARK    4  A    between atoms: C_8  and  C_10
REMARK    5  A    between atoms: C_10  and  C_11
REMARK    6  A    between atoms: C_11  and  C_12
REMARK    7  A    between atoms: C_12  and  C_13
REMARK    8  A    between atoms: N_15  and  C_16
REMARK    9  A    between atoms: C_16  and  C_17
REMARK                            x       y       z     vdW  Elec       q    Type
REMARK                         _______ _______ _______ _____ _____    ______ ____
ROOT
ATOM      1  C   UNL     1       3.035   2.661  20.263  0.00  0.00    +0.000 C 
ENDROOT
BRANCH   1   2
ATOM      2  C   UNL     1       2.458   4.024  20.655  0.00  0.00    +0.000 C 
BRANCH   2   4
ATOM      3  N   UNL     1       2.244   5.887  19.103  0.00  0.00    +0.000 N 
ATOM      4  C   UNL     1       3.118   5.142  19.859  0.00  0.00    +0.000 C 
ATOM      5  O   UNL     1       4.323   5.371  19.887  0.00  0.00    +0.000 OA
ATOM      6  H   UNL     1       1.285   5.587  18.980  0.00  0.00    +0.000 HD
BRANCH   3   7
ATOM      7  C   UNL     1       2.730   6.937  18.234  0.00  0.00    +0.000 C 
BRANCH   7  12
ATOM      8  C   UNL     1       0.363   9.917  21.231  0.00  0.00    +0.000 C 
ATOM      9  C   UNL     1       0.985   9.565  19.940  0.00  0.00    +0.000 A 
ATOM     10  C   UNL     1       1.120  10.239  18.746  0.00  0.00    +0.000 A 
ATOM     11  C   UNL     1       1.812   9.368  17.873  0.00  0.00    +0.000 A 
ATOM     12  C   UNL     1       2.060   8.213  18.586  0.00  0.00    +0.000 A 
ATOM     13  O   UNL     1       1.557   8.330  19.852  0.00  0.00    +0.000 OA
ENDBRANCH   7  12
ENDBRANCH   3   7
ENDBRANCH   2   4
ENDBRANCH   1   2
BRANCH   1  14
ATOM     14  C   UNL     1       2.456   2.082  18.971  0.00  0.00    +0.000 C 
BRANCH  14  15
ATOM     15  C   UNL     1       2.962   2.848  17.758  0.00  0.00    +0.000 C 
ATOM     16  O   UNL     1       2.218   3.346  16.915  0.00  0.00    +0.000 OA
ATOM     17  N   UNL     1       4.335   2.948  17.678  0.00  0.00    +0.000 N 
ATOM     18  H   UNL     1       4.907   2.344  18.252  0.00  0.00    +0.000 HD
BRANCH  17  19
ATOM     19  C   UNL     1       4.959   3.588  16.536  0.00  0.00    +0.000 C 
BRANCH  19  20
ATOM     20  C   UNL     1       5.809   4.763  16.945  0.00  0.00    +0.000 A 
ATOM     21  C   UNL     1       5.522   6.052  16.474  0.00  0.00    +0.000 A 
ATOM     22  C   UNL     1       6.313   7.140  16.852  0.00  0.00    +0.000 A 
ATOM     23  C   UNL     1       7.400   6.949  17.704  0.00  0.00    +0.000 A 
ATOM     24  C   UNL     1       7.695   5.675  18.183  0.00  0.00    +0.000 A 
ATOM     25  C   UNL     1       6.904   4.586  17.804  0.00  0.00    +0.000 A 
ENDBRANCH  19  20
ENDBRANCH  17  19
ENDBRANCH  14  15
ENDBRANCH   1  14
TORSDOF 8
ENDMDL
MODEL 6
REMARK VINA RESULT:      -6.9      3.913      8.594
REMARK  Name = 
REMARK  9 active torsions:
REMARK  status: ('A' for Active; 'I' for Inactive)
REMARK    1  A    between atoms: C_1  and  C_2
REMARK    2  A    between atoms: C_5  and  C_6
REMARK    3  A    between atoms: C_6  and  N_7
REMARK    4  A    between atoms: C_8  and  C_10
REMARK    5  A    between atoms: C_10  and  C_11
REMARK    6  A    between atoms: C_11  and  C_12
REMARK    7  A    between atoms: C_12  and  C_13
REMARK    8  A    between atoms: N_15  and  C_16
REMARK    9  A    between atoms: C_16  and  C_17
REMARK                            x       y       z     vdW  Elec       q    Type
REMARK                         _______ _______ _______ _____ _____    ______ ____
ROOT
ATOM      1  C   UNL     1       2.040   3.058  18.105  0.00  0.00    +0.000 C 
ENDROOT
BRANCH   1   2
ATOM      2  C   UNL     1       3.538   2.992  18.409  0.00  0.00    +0.000 C 
BRANCH   2   4
ATOM      3  N   UNL     1       5.536   3.527  17.125  0.00  0.00    +0.000 N 
ATOM      4  C   UNL     1       4.311   3.984  17.550  0.00  0.00    +0.000 C 
ATOM      5  O   UNL     1       3.884   5.095  17.251  0.00  0.00    +0.000 OA
ATOM      6  H   UNL     1       5.928   2.675  17.506  0.00  0.00    +0.000 HD
BRANCH   3   7
ATOM      7  C   UNL     1       6.419   4.383  16.363  0.00  0.00    +0.000 C 
BRANCH   7  12
ATOM      8  C   UNL     1       7.981   8.800  17.590  0.00  0.00    +0.000 C 
ATOM      9  C   UNL     1       7.775   7.360  17.833  0.00  0.00    +0.000 A 
ATOM     10  C   UNL     1       8.096   6.527  18.882  0.00  0.00    +0.000 A 
ATOM     11  C   UNL     1       7.638   5.238  18.523  0.00  0.00    +0.000 A 
ATOM     12  C   UNL     1       7.063   5.360  17.274  0.00  0.00    +0.000 A 
ATOM     13  O   UNL     1       7.142   6.657  16.849  0.00  0.00    +0.000 OA
ENDBRANCH   7  12
ENDBRANCH   3   7
ENDBRANCH   2   4
ENDBRANCH   1   2
BRANCH   1  14
ATOM     14  C   UNL     1       1.173   3.459  19.301  0.00  0.00    +0.000 C 
BRANCH  14  15
ATOM     15  C   UNL     1       1.837   4.565  20.107  0.00  0.00    +0.000 C 
ATOM     16  O   UNL     1       2.260   4.407  21.251  0.00  0.00    +0.000 OA
ATOM     17  N   UNL     1       1.936   5.772  19.447  0.00  0.00    +0.000 N 
ATOM     18  H   UNL     1       1.385   5.923  18.613  0.00  0.00    +0.000 HD
BRANCH  17  19
ATOM     19  C   UNL     1       2.482   6.934  20.121  0.00  0.00    +0.000 C 
BRANCH  19  20
ATOM     20  C   UNL     1       1.517   8.092  20.116  0.00  0.00    +0.000 A 
ATOM     21  C   UNL     1       1.417   8.935  19.000  0.00  0.00    +0.000 A 
ATOM     22  C   UNL     1       0.524  10.010  18.998  0.00  0.00    +0.000 A 
ATOM     23  C   UNL     1      -0.277  10.252  20.113  0.00  0.00    +0.000 A 
ATOM     24  C   UNL     1      -0.192   9.420  21.227  0.00  0.00    +0.000 A 
ATOM     25  C   UNL     1       0.702   8.346  21.230  0.00  0.00    +0.000 A 
ENDBRANCH  19  20
ENDBRANCH  17  19
ENDBRANCH  14  15
ENDBRANCH   1  14
TORSDOF 8
ENDMDL
MODEL 7
REMARK VINA RESULT:      -6.9      4.592      8.827
REMARK  Name = 
REMARK  9 active torsions:
REMARK  status: ('A' for Active; 'I' for Inactive)
REMARK    1  A    between atoms: C_1  and  C_2
REMARK    2  A    between atoms: C_5  and  C_6
REMARK    3  A    between atoms: C_6  and  N_7
REMARK    4  A    between atoms: C_8  and  C_10
REMARK    5  A    between atoms: C_10  and  C_11
REMARK    6  A    between atoms: C_11  and  C_12
REMARK    7  A    between atoms: C_12  and  C_13
REMARK    8  A    between atoms: N_15  and  C_16
REMARK    9  A    between atoms: C_16  and  C_17
REMARK                            x       y       z     vdW  Elec       q    Type
REMARK                         _______ _______ _______ _____ _____    ______ ____
ROOT
ATOM      1  C   UNL     1       2.801   2.093  19.187  0.00  0.00    +0.000 C 
ENDROOT
BRANCH   1   2
ATOM      2  C   UNL     1       3.473   1.982  17.817  0.00  0.00    +0.000 C 
BRANCH   2   4
ATOM      3  N   UNL     1       5.327   3.333  17.000  0.00  0.00    +0.000 N 
ATOM      4  C   UNL     1       3.999   3.336  17.359  0.00  0.00    +0.000 C 
ATOM      5  O   UNL     1       3.307   4.347  17.306  0.00  0.00    +0.000 OA
ATOM      6  H   UNL     1       5.910   2.529  17.193  0.00  0.00    +0.000 HD
BRANCH   3   7
ATOM      7  C   UNL     1       5.990   4.559  16.614  0.00  0.00    +0.000 C 
BRANCH   7  12
ATOM      8  C   UNL     1       8.548   5.878  12.718  0.00  0.00    +0.000 C 
ATOM      9  C   UNL     1       7.518   5.082  13.412  0.00  0.00    +0.000 A 
ATOM     10  C   UNL     1       6.637   4.110  12.990  0.00  0.00    +0.000 A 
ATOM     11  C   UNL     1       5.892   3.725  14.128  0.00  0.00    +0.000 A 
ATOM     12  C   UNL     1       6.362   4.485  15.180  0.00  0.00    +0.000 A 
ATOM     13  O   UNL     1       7.359   5.315  14.747  0.00  0.00    +0.000 OA
ENDBRANCH   7  12
ENDBRANCH   3   7
ENDBRANCH   2   4
ENDBRANCH   1   2
BRANCH   1  14
ATOM     14  C   UNL     1       3.624   2.851  20.231  0.00  0.00    +0.000 C 
BRANCH  14  15
ATOM     15  C   UNL     1       2.773   3.890  20.945  0.00  0.00    +0.000 C 
ATOM     16  O   UNL     1       2.152   3.659  21.981  0.00  0.00    +0.000 OA
ATOM     17  N   UNL     1       2.755   5.128  20.338  0.00  0.00    +0.000 N 
ATOM     18  H   UNL     1       3.084   5.214  19.386  0.00  0.00    +0.000 HD
BRANCH  17  19
ATOM     19  C   UNL     1       1.926   6.194  20.869  0.00  0.00    +0.000 C 
BRANCH  19  20
ATOM     20  C   UNL     1       1.872   7.379  19.940  0.00  0.00    +0.000 A 
ATOM     21  C   UNL     1       1.208   8.555  20.318  0.00  0.00    +0.000 A 
ATOM     22  C   UNL     1       1.156   9.652  19.454  0.00  0.00    +0.000 A 
ATOM     23  C   UNL     1       1.766   9.583  18.202  0.00  0.00    +0.000 A 
ATOM     24  C   UNL     1       2.433   8.424  17.815  0.00  0.00    +0.000 A 
ATOM     25  C   UNL     1       2.484   7.325  18.678  0.00  0.00    +0.000 A 
ENDBRANCH  19  20
ENDBRANCH  17  19
ENDBRANCH  14  15
ENDBRANCH   1  14
TORSDOF 8
ENDMDL
MODEL 8
REMARK VINA RESULT:      -6.8      4.026      8.824
REMARK  Name = 
REMARK  9 active torsions:
REMARK  status: ('A' for Active; 'I' for Inactive)
REMARK    1  A    between atoms: C_1  and  C_2
REMARK    2  A    between atoms: C_5  and  C_6
REMARK    3  A    between atoms: C_6  and  N_7
REMARK    4  A    between atoms: C_8  and  C_10
REMARK    5  A    between atoms: C_10  and  C_11
REMARK    6  A    between atoms: C_11  and  C_12
REMARK    7  A    between atoms: C_12  and  C_13
REMARK    8  A    between atoms: N_15  and  C_16
REMARK    9  A    between atoms: C_16  and  C_17
REMARK                            x       y       z     vdW  Elec       q    Type
REMARK                         _______ _______ _______ _____ _____    ______ ____
ROOT
ATOM      1  C   UNL     1       2.492   4.259  18.041  0.00  0.00    +0.000 C 
ENDROOT
BRANCH   1   2
ATOM      2  C   UNL     1       3.445   3.435  17.172  0.00  0.00    +0.000 C 
BRANCH   2   4
ATOM      3  N   UNL     1       5.775   3.646  16.497  0.00  0.00    +0.000 N 
ATOM      4  C   UNL     1       4.574   4.303  16.632  0.00  0.00    +0.000 C 
ATOM      5  O   UNL     1       4.435   5.485  16.335  0.00  0.00    +0.000 OA
ATOM      6  H   UNL     1       5.902   2.721  16.887  0.00  0.00    +0.000 HD
BRANCH   3   7
ATOM      7  C   UNL     1       6.959   4.356  16.067  0.00  0.00    +0.000 C 
BRANCH   7  12
ATOM      8  C   UNL     1       8.029   8.785  17.710  0.00  0.00    +0.000 C 
ATOM      9  C   UNL     1       7.847   7.329  17.865  0.00  0.00    +0.000 A 
ATOM     10  C   UNL     1       7.992   6.471  18.933  0.00  0.00    +0.000 A 
ATOM     11  C   UNL     1       7.678   5.179  18.452  0.00  0.00    +0.000 A 
ATOM     12  C   UNL     1       7.359   5.324  17.117  0.00  0.00    +0.000 A 
ATOM     13  O   UNL     1       7.460   6.638  16.754  0.00  0.00    +0.000 OA
ENDBRANCH   7  12
ENDBRANCH   3   7
ENDBRANCH   2   4
ENDBRANCH   1   2
BRANCH   1  14
ATOM     14  C   UNL     1       3.154   4.910  19.256  0.00  0.00    +0.000 C 
BRANCH  14  15
ATOM     15  C   UNL     1       2.117   5.574  20.150  0.00  0.00    +0.000 C 
ATOM     16  O   UNL     1       1.215   4.956  20.711  0.00  0.00    +0.000 OA
ATOM     17  N   UNL     1       2.271   6.937  20.289  0.00  0.00    +0.000 N 
ATOM     18  H   UNL     1       2.872   7.433  19.645  0.00  0.00    +0.000 HD
BRANCH  17  19
ATOM     19  C   UNL     1       1.311   7.710  21.053  0.00  0.00    +0.000 C 
BRANCH  19  20
ATOM     20  C   UNL     1       0.997   9.028  20.393  0.00  0.00    +0.000 A 
ATOM     21  C   UNL     1       1.332   9.254  19.051  0.00  0.00    +0.000 A 
ATOM     22  C   UNL     1       1.044  10.477  18.441  0.00  0.00    +0.000 A 
ATOM     23  C   UNL     1       0.417  11.488  19.169  0.00  0.00    +0.000 A 
ATOM     24  C   UNL     1       0.074  11.277  20.502  0.00  0.00    +0.000 A 
ATOM     25  C   UNL     1       0.364  10.053  21.113  0.00  0.00    +0.000 A 
ENDBRANCH  19  20
ENDBRANCH  17  19
ENDBRANCH  14  15
ENDBRANCH   1  14
TORSDOF 8
ENDMDL
MODEL 9
REMARK VINA RESULT:      -6.8      3.712      8.334
REMARK  Name = 
REMARK  9 active torsions:
REMARK  status: ('A' for Active; 'I' for Inactive)
REMARK    1  A    between atoms: C_1  and  C_2
REMARK    2  A    between atoms: C_5  and  C_6
REMARK    3  A    between atoms: C_6  and  N_7
REMARK    4  A    between atoms: C_8  and  C_10
REMARK    5  A    between atoms: C_10  and  C_11
REMARK    6  A    between atoms: C_11  and  C_12
REMARK    7  A    between atoms: C_12  and  C_13
REMARK    8  A    between atoms: N_15  and  C_16
REMARK    9  A    between atoms: C_16  and  C_17
REMARK                            x       y       z     vdW  Elec       q    Type
REMARK                         _______ _______ _______ _____ _____    ______ ____
ROOT
ATOM      1  C   UNL     1       1.167   3.313  19.747  0.00  0.00    +0.000 C 
ENDROOT
BRANCH   1   2
ATOM      2  C   UNL     1       2.106   2.259  19.154  0.00  0.00    +0.000 C 
BRANCH   2   4
ATOM      3  N   UNL     1       4.112   2.760  17.869  0.00  0.00    +0.000 N 
ATOM      4  C   UNL     1       2.737   2.760  17.862  0.00  0.00    +0.000 C 
ATOM      5  O   UNL     1       2.085   3.128  16.890  0.00  0.00    +0.000 OA
ATOM      6  H   UNL     1       4.622   2.596  18.727  0.00  0.00    +0.000 HD
BRANCH   3   7
ATOM      7  C   UNL     1       4.855   3.277  16.741  0.00  0.00    +0.000 C 
BRANCH   7  12
ATOM      8  C   UNL     1       7.823   6.745  18.363  0.00  0.00    +0.000 C 
ATOM      9  C   UNL     1       6.574   6.261  17.744  0.00  0.00    +0.000 A 
ATOM     10  C   UNL     1       5.450   6.900  17.270  0.00  0.00    +0.000 A 
ATOM     11  C   UNL     1       4.585   5.887  16.796  0.00  0.00    +0.000 A 
ATOM     12  C   UNL     1       5.233   4.687  17.008  0.00  0.00    +0.000 A 
ATOM     13  O   UNL     1       6.452   4.911  17.586  0.00  0.00    +0.000 OA
ENDBRANCH   7  12
ENDBRANCH   3   7
ENDBRANCH   2   4
ENDBRANCH   1   2
BRANCH   1  14
ATOM     14  C   UNL     1       1.756   4.084  20.930  0.00  0.00    +0.000 C 
BRANCH  14  15
ATOM     15  C   UNL     1       2.335   5.416  20.476  0.00  0.00    +0.000 C 
ATOM     16  O   UNL     1       3.472   5.540  20.027  0.00  0.00    +0.000 OA
ATOM     17  N   UNL     1       1.474   6.486  20.602  0.00  0.00    +0.000 N 
ATOM     18  H   UNL     1       0.647   6.387  21.175  0.00  0.00    +0.000 HD
BRANCH  17  19
ATOM     19  C   UNL     1       1.918   7.827  20.275  0.00  0.00    +0.000 C 
BRANCH  19  20
ATOM     20  C   UNL     1       1.054   8.879  20.922  0.00  0.00    +0.000 A 
ATOM     21  C   UNL     1       0.475   9.900  20.157  0.00  0.00    +0.000 A 
ATOM     22  C   UNL     1      -0.324  10.876  20.759  0.00  0.00    +0.000 A 
ATOM     23  C   UNL     1      -0.550  10.840  22.135  0.00  0.00    +0.000 A 
ATOM     24  C   UNL     1       0.015   9.829  22.908  0.00  0.00    +0.000 A 
ATOM     25  C   UNL     1       0.815   8.853  22.305  0.00  0.00    +0.000 A 
ENDBRANCH  19  20
ENDBRANCH  17  19
ENDBRANCH  14  15
ENDBRANCH   1  14
TORSDOF 8
ENDMDL
