MODEL 1
REMARK VINA RESULT:      -7.1      0.000      0.000
REMARK  Name = 
REMARK  8 active torsions:
REMARK  status: ('A' for Active; 'I' for Inactive)
REMARK    1  A    between atoms: C_1  and  O_2
REMARK    2  A    between atoms: O_2  and  C_3
REMARK    3  A    between atoms: C_3  and  C_5
REMARK    4  A    between atoms: C_5  and  C_6
REMARK    5  A    between atoms: N_10  and  C_11
REMARK    6  A    between atoms: C_12  and  C_13
REMARK    7  A    between atoms: N_14  and  C_15
REMARK    8  A    between atoms: N_16  and  C_17
REMARK                            x       y       z     vdW  Elec       q    Type
REMARK                         _______ _______ _______ _____ _____    ______ ____
ROOT
ATOM      1  C   UNL     1       2.570   7.618  18.708  0.00  0.00    +0.000 A 
ATOM      2  C   UNL     1       1.995   7.318  19.891  0.00  0.00    +0.000 A 
ATOM      3  C   UNL     1       2.266   6.110  20.724  0.00  0.00    +0.000 C 
ATOM      4  N   UNL     1       1.093   8.296  20.287  0.00  0.00    +0.000 N 
ATOM      5  C   UNL     1       0.428   8.446  21.564  0.00  0.00    +0.000 C 
ATOM      6  N   UNL     1       1.240   9.388  19.409  0.00  0.00    +0.000 N 
ATOM      7  C   UNL     1       1.910   8.909  18.282  0.00  0.00    +0.000 A 
ATOM      8  O   UNL     1       2.040   9.385  17.166  0.00  0.00    +0.000 OA
ENDROOT
BRANCH   1  13
ATOM      9  C   UNL     1       3.177   3.579  17.654  0.00  0.00    +0.000 A 
ATOM     10  C   UNL     1       4.534   3.484  17.418  0.00  0.00    +0.000 A 
ATOM     11  S   UNL     1       5.239   5.047  17.398  0.00  0.00    +0.000 S 
ATOM     12  C   UNL     1       3.700   5.748  17.733  0.00  0.00    +0.000 A 
ATOM     13  N   UNL     1       3.581   7.086  17.939  0.00  0.00    +0.000 N 
ATOM     14  N   UNL     1       2.721   4.873  17.820  0.00  0.00    +0.000 NA
ATOM     15  H   UNL     1       4.464   7.553  18.142  0.00  0.00    +0.000 HD
BRANCH   9  16
ATOM     16  C   UNL     1       2.177   2.474  17.709  0.00  0.00    +0.000 C 
BRANCH  16  17
ATOM     17  C   UNL     1       1.382   2.484  18.992  0.00  0.00    +0.000 C 
ATOM     18  O   UNL     1       0.169   2.607  19.081  0.00  0.00    +0.000 OA
BRANCH  17  20
ATOM     19  C   UNL     1       1.594   2.573  21.330  0.00  0.00    +0.000 C 
ATOM     20  O   UNL     1       2.232   2.422  20.062  0.00  0.00    +0.000 OA
ENDBRANCH  17  20
ENDBRANCH  16  17
ENDBRANCH   9  16
ENDBRANCH   1  13
BRANCH   6  21
ATOM     21  C   UNL     1       0.293  10.421  19.400  0.00  0.00    +0.000 A 
ATOM     22  C   UNL     1       0.527  11.649  20.020  0.00  0.00    +0.000 A 
ATOM     23  C   UNL     1      -0.449  12.646  19.964  0.00  0.00    +0.000 A 
ATOM     24  C   UNL     1      -1.664  12.407  19.317  0.00  0.00    +0.000 A 
ATOM     25  C   UNL     1      -1.906  11.173  18.717  0.00  0.00    +0.000 A 
ATOM     26  C   UNL     1      -0.926  10.184  18.752  0.00  0.00    +0.000 A 
ENDBRANCH   6  21
TORSDOF 5
ENDMDL
MODEL 2
REMARK VINA RESULT:      -6.9      3.130      7.597
REMARK  Name = 
REMARK  8 active torsions:
REMARK  status: ('A' for Active; 'I' for Inactive)
REMARK    1  A    between atoms: C_1  and  O_2
REMARK    2  A    between atoms: O_2  and  C_3
REMARK    3  A    between atoms: C_3  and  C_5
REMARK    4  A    between atoms: C_5  and  C_6
REMARK    5  A    between atoms: N_10  and  C_11
REMARK    6  A    between atoms: C_12  and  C_13
REMARK    7  A    between atoms: N_14  and  C_15
REMARK    8  A    between atoms: N_16  and  C_17
REMARK                            x       y       z     vdW  Elec       q    Type
REMARK                         _______ _______ _______ _____ _____    ______ ____
ROOT
ATOM      1  C   UNL     1       1.485   8.682  19.717  0.00  0.00    +0.000 A 
ATOM      2  C   UNL     1       2.193   8.179  18.685  0.00  0.00    +0.000 A 
ATOM      3  C   UNL     1       2.722   8.946  17.519  0.00  0.00    +0.000 C 
ATOM      4  N   UNL     1       2.407   6.815  18.824  0.00  0.00    +0.000 N 
ATOM      5  C   UNL     1       3.274   5.954  18.049  0.00  0.00    +0.000 C 
ATOM      6  N   UNL     1       1.986   6.451  20.119  0.00  0.00    +0.000 N 
ATOM      7  C   UNL     1       1.167   7.482  20.579  0.00  0.00    +0.000 A 
ATOM      8  O   UNL     1       0.374   7.522  21.505  0.00  0.00    +0.000 OA
ENDROOT
BRANCH   1  13
ATOM      9  C   UNL     1      -1.926  10.884  18.570  0.00  0.00    +0.000 A 
ATOM     10  C   UNL     1      -1.567  12.203  18.766  0.00  0.00    +0.000 A 
ATOM     11  S   UNL     1      -0.075  12.289  19.606  0.00  0.00    +0.000 S 
ATOM     12  C   UNL     1       0.013  10.567  19.630  0.00  0.00    +0.000 A 
ATOM     13  N   UNL     1       1.108   9.939  20.135  0.00  0.00    +0.000 N 
ATOM     14  N   UNL     1      -1.020   9.971  19.076  0.00  0.00    +0.000 NA
ATOM     15  H   UNL     1       1.924  10.542  20.228  0.00  0.00    +0.000 HD
BRANCH   9  16
ATOM     16  C   UNL     1      -3.162  10.357  17.925  0.00  0.00    +0.000 C 
BRANCH  16  17
ATOM     17  C   UNL     1      -3.478  11.062  16.627  0.00  0.00    +0.000 C 
ATOM     18  O   UNL     1      -4.447  11.779  16.421  0.00  0.00    +0.000 OA
BRANCH  17  20
ATOM     19  C   UNL     1      -3.126  10.157  14.488  0.00  0.00    +0.000 C 
ATOM     20  O   UNL     1      -2.560  10.710  15.677  0.00  0.00    +0.000 OA
ENDBRANCH  17  20
ENDBRANCH  16  17
ENDBRANCH   9  16
ENDBRANCH   1  13
BRANCH   6  21
ATOM     21  C   UNL     1       1.843   5.099  20.462  0.00  0.00    +0.000 A 
ATOM     22  C   UNL     1       2.598   4.507  21.475  0.00  0.00    +0.000 A 
ATOM     23  C   UNL     1       2.400   3.159  21.783  0.00  0.00    +0.000 A 
ATOM     24  C   UNL     1       1.472   2.401  21.063  0.00  0.00    +0.000 A 
ATOM     25  C   UNL     1       0.734   2.988  20.037  0.00  0.00    +0.000 A 
ATOM     26  C   UNL     1       0.914   4.338  19.743  0.00  0.00    +0.000 A 
ENDBRANCH   6  21
TORSDOF 5
ENDMDL
MODEL 3
REMARK VINA RESULT:      -6.8      3.127      7.662
REMARK  Name = 
REMARK  8 active torsions:
REMARK  status: ('A' for Active; 'I' for Inactive)
REMARK    1  A    between atoms: C_1  and  O_2
REMARK    2  A    between atoms: O_2  and  C_3
REMARK    3  A    between atoms: C_3  and  C_5
REMARK    4  A    between atoms: C_5  and  C_6
REMARK    5  A    between atoms: N_10  and  C_11
REMARK    6  A    between atoms: C_12  and  C_13
REMARK    7  A    between atoms: N_14  and  C_15
REMARK    8  A    between atoms: N_16  and  C_17
REMARK                            x       y       z     vdW  Elec       q    Type
REMARK                         _______ _______ _______ _____ _____    ______ ____
ROOT
ATOM      1  C   UNL     1       1.478   8.666  19.655  0.00  0.00    +0.000 A 
ATOM      2  C   UNL     1       2.223   8.164  18.649  0.00  0.00    +0.000 A 
ATOM      3  C   UNL     1       2.780   8.929  17.495  0.00  0.00    +0.000 C 
ATOM      4  N   UNL     1       2.446   6.802  18.803  0.00  0.00    +0.000 N 
ATOM      5  C   UNL     1       3.346   5.946  18.060  0.00  0.00    +0.000 C 
ATOM      6  N   UNL     1       1.990   6.442  20.086  0.00  0.00    +0.000 N 
ATOM      7  C   UNL     1       1.146   7.467  20.515  0.00  0.00    +0.000 A 
ATOM      8  O   UNL     1       0.324   7.505  21.416  0.00  0.00    +0.000 OA
ENDROOT
BRANCH   1  13
ATOM      9  C   UNL     1      -1.920  10.823  18.393  0.00  0.00    +0.000 A 
ATOM     10  C   UNL     1      -1.582  12.147  18.591  0.00  0.00    +0.000 A 
ATOM     11  S   UNL     1      -0.116  12.254  19.474  0.00  0.00    +0.000 S 
ATOM     12  C   UNL     1      -0.011  10.534  19.512  0.00  0.00    +0.000 A 
ATOM     13  N   UNL     1       1.075   9.921  20.054  0.00  0.00    +0.000 N 
ATOM     14  N   UNL     1      -1.021   9.922  18.932  0.00  0.00    +0.000 NA
ATOM     15  H   UNL     1       1.882  10.533  20.167  0.00  0.00    +0.000 HD
BRANCH   9  16
ATOM     16  C   UNL     1      -3.132  10.277  17.715  0.00  0.00    +0.000 C 
BRANCH  16  17
ATOM     17  C   UNL     1      -3.485  11.047  16.465  0.00  0.00    +0.000 C 
ATOM     18  O   UNL     1      -2.862  11.027  15.414  0.00  0.00    +0.000 OA
BRANCH  17  20
ATOM     19  C   UNL     1      -5.491  11.315  17.657  0.00  0.00    +0.000 C 
ATOM     20  O   UNL     1      -4.567  11.847  16.707  0.00  0.00    +0.000 OA
ENDBRANCH  17  20
ENDBRANCH  16  17
ENDBRANCH   9  16
ENDBRANCH   1  13
BRANCH   6  21
ATOM     21  C   UNL     1       1.850   5.091  20.434  0.00  0.00    +0.000 A 
ATOM     22  C   UNL     1       2.578   4.512  21.473  0.00  0.00    +0.000 A 
ATOM     23  C   UNL     1       2.385   3.165  21.784  0.00  0.00    +0.000 A 
ATOM     24  C   UNL     1       1.488   2.393  21.040  0.00  0.00    +0.000 A 
ATOM     25  C   UNL     1       0.778   2.965  19.987  0.00  0.00    +0.000 A 
ATOM     26  C   UNL     1       0.952   4.315  19.690  0.00  0.00    +0.000 A 
ENDBRANCH   6  21
TORSDOF 5
ENDMDL
MODEL 4
REMARK VINA RESULT:      -6.7      5.306      9.256
REMARK  Name = 
REMARK  8 active torsions:
REMARK  status: ('A' for Active; 'I' for Inactive)
REMARK    1  A    between atoms: C_1  and  O_2
REMARK    2  A    between atoms: O_2  and  C_3
REMARK    3  A    between atoms: C_3  and  C_5
REMARK    4  A    between atoms: C_5  and  C_6
REMARK    5  A    between atoms: N_10  and  C_11
REMARK    6  A    between atoms: C_12  and  C_13
REMARK    7  A    between atoms: N_14  and  C_15
REMARK    8  A    between atoms: N_16  and  C_17
REMARK                            x       y       z     vdW  Elec       q    Type
REMARK                         _______ _______ _______ _____ _____    ______ ____
ROOT
ATOM      1  C   UNL     1      -1.829  12.054  18.629  0.00  0.00    +0.000 A 
ATOM      2  C   UNL     1      -0.706  12.765  18.861  0.00  0.00    +0.000 A 
ATOM      3  C   UNL     1      -0.601  14.252  18.930  0.00  0.00    +0.000 C 
ATOM      4  N   UNL     1       0.394  11.942  19.055  0.00  0.00    +0.000 N 
ATOM      5  C   UNL     1       1.718  12.299  19.518  0.00  0.00    +0.000 C 
ATOM      6  N   UNL     1      -0.080  10.618  19.152  0.00  0.00    +0.000 N 
ATOM      7  C   UNL     1      -1.370  10.614  18.619  0.00  0.00    +0.000 A 
ATOM      8  O   UNL     1      -2.079   9.694  18.248  0.00  0.00    +0.000 OA
ENDROOT
BRANCH   1  13
ATOM      9  C   UNL     1      -4.635  12.811  21.685  0.00  0.00    +0.000 A 
ATOM     10  C   UNL     1      -5.852  12.465  21.131  0.00  0.00    +0.000 A 
ATOM     11  S   UNL     1      -5.671  12.172  19.451  0.00  0.00    +0.000 S 
ATOM     12  C   UNL     1      -3.982  12.496  19.574  0.00  0.00    +0.000 A 
ATOM     13  N   UNL     1      -3.169  12.341  18.496  0.00  0.00    +0.000 N 
ATOM     14  N   UNL     1      -3.588  12.833  20.783  0.00  0.00    +0.000 NA
ATOM     15  H   UNL     1      -3.579  11.785  17.746  0.00  0.00    +0.000 HD
BRANCH   9  16
ATOM     16  C   UNL     1      -4.346  13.189  23.099  0.00  0.00    +0.000 C 
BRANCH  16  17
ATOM     17  C   UNL     1      -5.507  12.897  24.019  0.00  0.00    +0.000 C 
ATOM     18  O   UNL     1      -5.727  11.831  24.577  0.00  0.00    +0.000 OA
BRANCH  17  20
ATOM     19  C   UNL     1      -7.727  13.660  24.104  0.00  0.00    +0.000 C 
ATOM     20  O   UNL     1      -6.337  13.983  24.073  0.00  0.00    +0.000 OA
ENDBRANCH  17  20
ENDBRANCH  16  17
ENDBRANCH   9  16
ENDBRANCH   1  13
BRANCH   6  21
ATOM     21  C   UNL     1       0.814   9.540  19.096  0.00  0.00    +0.000 A 
ATOM     22  C   UNL     1       1.469   9.180  17.919  0.00  0.00    +0.000 A 
ATOM     23  C   UNL     1       2.362   8.106  17.927  0.00  0.00    +0.000 A 
ATOM     24  C   UNL     1       2.576   7.379  19.101  0.00  0.00    +0.000 A 
ATOM     25  C   UNL     1       1.906   7.726  20.272  0.00  0.00    +0.000 A 
ATOM     26  C   UNL     1       1.032   8.811  20.271  0.00  0.00    +0.000 A 
ENDBRANCH   6  21
TORSDOF 5
ENDMDL
MODEL 5
REMARK VINA RESULT:      -6.7      4.653      8.626
REMARK  Name = 
REMARK  8 active torsions:
REMARK  status: ('A' for Active; 'I' for Inactive)
REMARK    1  A    between atoms: C_1  and  O_2
REMARK    2  A    between atoms: O_2  and  C_3
REMARK    3  A    between atoms: C_3  and  C_5
REMARK    4  A    between atoms: C_5  and  C_6
REMARK    5  A    between atoms: N_10  and  C_11
REMARK    6  A    between atoms: C_12  and  C_13
REMARK    7  A    between atoms: N_14  and  C_15
REMARK    8  A    between atoms: N_16  and  C_17
REMARK                            x       y       z     vdW  Elec       q    Type
REMARK                         _______ _______ _______ _____ _____    ______ ____
ROOT
ATOM      1  C   UNL     1      -1.811  12.086  18.640  0.00  0.00    +0.000 A 
ATOM      2  C   UNL     1      -0.687  12.785  18.901  0.00  0.00    +0.000 A 
ATOM      3  C   UNL     1      -0.572  14.271  18.994  0.00  0.00    +0.000 C 
ATOM      4  N   UNL     1       0.404  11.951  19.098  0.00  0.00    +0.000 N 
ATOM      5  C   UNL     1       1.723  12.291  19.587  0.00  0.00    +0.000 C 
ATOM      6  N   UNL     1      -0.081  10.630  19.168  0.00  0.00    +0.000 N 
ATOM      7  C   UNL     1      -1.362  10.643  18.615  0.00  0.00    +0.000 A 
ATOM      8  O   UNL     1      -2.073   9.734  18.219  0.00  0.00    +0.000 OA
ENDROOT
BRANCH   1  13
ATOM      9  C   UNL     1      -4.689  12.682  21.666  0.00  0.00    +0.000 A 
ATOM     10  C   UNL     1      -5.893  12.372  21.064  0.00  0.00    +0.000 A 
ATOM     11  S   UNL     1      -5.672  12.172  19.376  0.00  0.00    +0.000 S 
ATOM     12  C   UNL     1      -3.986  12.483  19.557  0.00  0.00    +0.000 A 
ATOM     13  N   UNL     1      -3.147  12.385  18.492  0.00  0.00    +0.000 N 
ATOM     14  N   UNL     1      -3.621  12.750  20.792  0.00  0.00    +0.000 NA
ATOM     15  H   UNL     1      -3.540  11.873  17.702  0.00  0.00    +0.000 HD
BRANCH   9  16
ATOM     16  C   UNL     1      -4.434  12.979  23.105  0.00  0.00    +0.000 C 
BRANCH  16  17
ATOM     17  C   UNL     1      -2.981  12.805  23.477  0.00  0.00    +0.000 C 
ATOM     18  O   UNL     1      -2.169  13.707  23.627  0.00  0.00    +0.000 OA
BRANCH  17  20
ATOM     19  C   UNL     1      -1.383  11.142  23.037  0.00  0.00    +0.000 C 
ATOM     20  O   UNL     1      -2.677  11.473  23.540  0.00  0.00    +0.000 OA
ENDBRANCH  17  20
ENDBRANCH  16  17
ENDBRANCH   9  16
ENDBRANCH   1  13
BRANCH   6  21
ATOM     21  C   UNL     1       0.806   9.546  19.109  0.00  0.00    +0.000 A 
ATOM     22  C   UNL     1       1.455   9.182  17.930  0.00  0.00    +0.000 A 
ATOM     23  C   UNL     1       2.341   8.103  17.936  0.00  0.00    +0.000 A 
ATOM     24  C   UNL     1       2.554   7.374  19.108  0.00  0.00    +0.000 A 
ATOM     25  C   UNL     1       1.889   7.724  20.281  0.00  0.00    +0.000 A 
ATOM     26  C   UNL     1       1.022   8.814  20.283  0.00  0.00    +0.000 A 
ENDBRANCH   6  21
TORSDOF 5
ENDMDL
MODEL 6
REMARK VINA RESULT:      -6.7      0.764      1.445
REMARK  Name = 
REMARK  8 active torsions:
REMARK  status: ('A' for Active; 'I' for Inactive)
REMARK    1  A    between atoms: C_1  and  O_2
REMARK    2  A    between atoms: O_2  and  C_3
REMARK    3  A    between atoms: C_3  and  C_5
REMARK    4  A    between atoms: C_5  and  C_6
REMARK    5  A    between atoms: N_10  and  C_11
REMARK    6  A    between atoms: C_12  and  C_13
REMARK    7  A    between atoms: N_14  and  C_15
REMARK    8  A    between atoms: N_16  and  C_17
REMARK                            x       y       z     vdW  Elec       q    Type
REMARK                         _______ _______ _______ _____ _____    ______ ____
ROOT
ATOM      1  C   UNL     1       2.525   7.946  18.691  0.00  0.00    +0.000 A 
ATOM      2  C   UNL     1       1.938   7.520  19.828  0.00  0.00    +0.000 A 
ATOM      3  C   UNL     1       2.271   6.276  20.583  0.00  0.00    +0.000 C 
ATOM      4  N   UNL     1       0.954   8.399  20.260  0.00  0.00    +0.000 N 
ATOM      5  C   UNL     1       0.242   8.407  21.520  0.00  0.00    +0.000 C 
ATOM      6  N   UNL     1       1.048   9.560  19.468  0.00  0.00    +0.000 N 
ATOM      7  C   UNL     1       1.785   9.215  18.335  0.00  0.00    +0.000 A 
ATOM      8  O   UNL     1       1.914   9.779  17.260  0.00  0.00    +0.000 OA
ENDROOT
BRANCH   1  13
ATOM      9  C   UNL     1       3.496   4.039  17.429  0.00  0.00    +0.000 A 
ATOM     10  C   UNL     1       4.861   4.071  17.227  0.00  0.00    +0.000 A 
ATOM     11  S   UNL     1       5.432   5.685  17.316  0.00  0.00    +0.000 S 
ATOM     12  C   UNL     1       3.832   6.235  17.645  0.00  0.00    +0.000 A 
ATOM     13  N   UNL     1       3.596   7.545  17.923  0.00  0.00    +0.000 N 
ATOM     14  N   UNL     1       2.929   5.280  17.654  0.00  0.00    +0.000 NA
ATOM     15  H   UNL     1       4.432   8.070  18.177  0.00  0.00    +0.000 HD
BRANCH   9  16
ATOM     16  C   UNL     1       2.591   2.854  17.393  0.00  0.00    +0.000 C 
BRANCH  16  17
ATOM     17  C   UNL     1       2.877   1.880  18.510  0.00  0.00    +0.000 C 
ATOM     18  O   UNL     1       3.756   1.030  18.509  0.00  0.00    +0.000 OA
BRANCH  17  20
ATOM     19  C   UNL     1       0.694   2.551  19.057  0.00  0.00    +0.000 C 
ATOM     20  O   UNL     1       1.946   2.028  19.501  0.00  0.00    +0.000 OA
ENDBRANCH  17  20
ENDBRANCH  16  17
ENDBRANCH   9  16
ENDBRANCH   1  13
BRANCH   6  21
ATOM     21  C   UNL     1       0.028  10.522  19.498  0.00  0.00    +0.000 A 
ATOM     22  C   UNL     1      -1.159  10.367  18.782  0.00  0.00    +0.000 A 
ATOM     23  C   UNL     1      -2.146  11.351  18.864  0.00  0.00    +0.000 A 
ATOM     24  C   UNL     1      -1.936  12.497  19.635  0.00  0.00    +0.000 A 
ATOM     25  C   UNL     1      -0.741  12.661  20.333  0.00  0.00    +0.000 A 
ATOM     26  C   UNL     1       0.236  11.670  20.271  0.00  0.00    +0.000 A 
ENDBRANCH   6  21
TORSDOF 5
ENDMDL
MODEL 7
REMARK VINA RESULT:      -6.6      2.877      7.583
REMARK  Name = 
REMARK  8 active torsions:
REMARK  status: ('A' for Active; 'I' for Inactive)
REMARK    1  A    between atoms: C_1  and  O_2
REMARK    2  A    between atoms: O_2  and  C_3
REMARK    3  A    between atoms: C_3  and  C_5
REMARK    4  A    between atoms: C_5  and  C_6
REMARK    5  A    between atoms: N_10  and  C_11
REMARK    6  A    between atoms: C_12  and  C_13
REMARK    7  A    between atoms: N_14  and  C_15
REMARK    8  A    between atoms: N_16  and  C_17
REMARK                            x       y       z     vdW  Elec       q    Type
REMARK                         _______ _______ _______ _____ _____    ______ ____
ROOT
ATOM      1  C   UNL     1       1.556   8.390  19.787  0.00  0.00    +0.000 A 
ATOM      2  C   UNL     1       2.188   8.602  18.615  0.00  0.00    +0.000 A 
ATOM      3  C   UNL     1       2.263   9.896  17.873  0.00  0.00    +0.000 C 
ATOM      4  N   UNL     1       2.806   7.451  18.146  0.00  0.00    +0.000 N 
ATOM      5  C   UNL     1       3.736   7.310  17.046  0.00  0.00    +0.000 C 
ATOM      6  N   UNL     1       2.740   6.488  19.173  0.00  0.00    +0.000 N 
ATOM      7  C   UNL     1       1.752   6.916  20.061  0.00  0.00    +0.000 A 
ATOM      8  O   UNL     1       1.154   6.320  20.942  0.00  0.00    +0.000 OA
ENDROOT
BRANCH   1  13
ATOM      9  C   UNL     1      -1.482  11.240  19.122  0.00  0.00    +0.000 A 
ATOM     10  C   UNL     1      -1.371  12.117  20.183  0.00  0.00    +0.000 A 
ATOM     11  S   UNL     1      -0.283  11.492  21.351  0.00  0.00    +0.000 S 
ATOM     12  C   UNL     1      -0.006  10.110  20.358  0.00  0.00    +0.000 A 
ATOM     13  N   UNL     1       0.912   9.174  20.717  0.00  0.00    +0.000 N 
ATOM     14  N   UNL     1      -0.706  10.102  19.245  0.00  0.00    +0.000 NA
ATOM     15  H   UNL     1       1.569   9.492  21.430  0.00  0.00    +0.000 HD
BRANCH   9  16
ATOM     16  C   UNL     1      -2.347  11.367  17.914  0.00  0.00    +0.000 C 
BRANCH  16  17
ATOM     17  C   UNL     1      -2.815  10.027  17.399  0.00  0.00    +0.000 C 
ATOM     18  O   UNL     1      -3.526   9.238  18.004  0.00  0.00    +0.000 OA
BRANCH  17  20
ATOM     19  C   UNL     1      -2.924  10.399  15.083  0.00  0.00    +0.000 C 
ATOM     20  O   UNL     1      -2.250   9.780  16.179  0.00  0.00    +0.000 OA
ENDBRANCH  17  20
ENDBRANCH  16  17
ENDBRANCH   9  16
ENDBRANCH   1  13
BRANCH   6  21
ATOM     21  C   UNL     1       3.054   5.148  18.907  0.00  0.00    +0.000 A 
ATOM     22  C   UNL     1       2.219   4.327  18.149  0.00  0.00    +0.000 A 
ATOM     23  C   UNL     1       2.592   3.004  17.904  0.00  0.00    +0.000 A 
ATOM     24  C   UNL     1       3.779   2.497  18.439  0.00  0.00    +0.000 A 
ATOM     25  C   UNL     1       4.602   3.311  19.215  0.00  0.00    +0.000 A 
ATOM     26  C   UNL     1       4.243   4.638  19.442  0.00  0.00    +0.000 A 
ENDBRANCH   6  21
TORSDOF 5
ENDMDL
MODEL 8
REMARK VINA RESULT:      -6.6      3.229      7.400
REMARK  Name = 
REMARK  8 active torsions:
REMARK  status: ('A' for Active; 'I' for Inactive)
REMARK    1  A    between atoms: C_1  and  O_2
REMARK    2  A    between atoms: O_2  and  C_3
REMARK    3  A    between atoms: C_3  and  C_5
REMARK    4  A    between atoms: C_5  and  C_6
REMARK    5  A    between atoms: N_10  and  C_11
REMARK    6  A    between atoms: C_12  and  C_13
REMARK    7  A    between atoms: N_14  and  C_15
REMARK    8  A    between atoms: N_16  and  C_17
REMARK                            x       y       z     vdW  Elec       q    Type
REMARK                         _______ _______ _______ _____ _____    ______ ____
ROOT
ATOM      1  C   UNL     1       1.478   9.235  19.700  0.00  0.00    +0.000 A 
ATOM      2  C   UNL     1       1.418   8.308  20.678  0.00  0.00    +0.000 A 
ATOM      3  C   UNL     1       0.931   8.525  22.072  0.00  0.00    +0.000 C 
ATOM      4  N   UNL     1       1.862   7.068  20.240  0.00  0.00    +0.000 N 
ATOM      5  C   UNL     1       1.772   5.789  20.912  0.00  0.00    +0.000 C 
ATOM      6  N   UNL     1       2.029   7.148  18.843  0.00  0.00    +0.000 N 
ATOM      7  C   UNL     1       2.083   8.505  18.523  0.00  0.00    +0.000 A 
ATOM      8  O   UNL     1       2.467   9.075  17.514  0.00  0.00    +0.000 OA
ENDROOT
BRANCH   1  13
ATOM      9  C   UNL     1      -2.132  10.648  18.036  0.00  0.00    +0.000 A 
ATOM     10  C   UNL     1      -1.832  11.920  17.590  0.00  0.00    +0.000 A 
ATOM     11  S   UNL     1      -0.283  12.391  18.153  0.00  0.00    +0.000 S 
ATOM     12  C   UNL     1      -0.098  10.863  18.930  0.00  0.00    +0.000 A 
ATOM     13  N   UNL     1       1.068  10.541  19.551  0.00  0.00    +0.000 N 
ATOM     14  N   UNL     1      -1.139  10.069  18.804  0.00  0.00    +0.000 NA
ATOM     15  H   UNL     1       1.854  11.132  19.285  0.00  0.00    +0.000 HD
BRANCH   9  16
ATOM     16  C   UNL     1      -3.387   9.872  17.818  0.00  0.00    +0.000 C 
BRANCH  16  17
ATOM     17  C   UNL     1      -4.562  10.761  17.493  0.00  0.00    +0.000 C 
ATOM     18  O   UNL     1      -4.820  11.233  16.394  0.00  0.00    +0.000 OA
BRANCH  17  20
ATOM     19  C   UNL     1      -6.646  10.704  18.575  0.00  0.00    +0.000 C 
ATOM     20  O   UNL     1      -5.260  11.040  18.636  0.00  0.00    +0.000 OA
ENDBRANCH  17  20
ENDBRANCH  16  17
ENDBRANCH   9  16
ENDBRANCH   1  13
BRANCH   6  21
ATOM     21  C   UNL     1       2.707   6.133  18.153  0.00  0.00    +0.000 A 
ATOM     22  C   UNL     1       4.029   6.276  17.734  0.00  0.00    +0.000 A 
ATOM     23  C   UNL     1       4.658   5.224  17.064  0.00  0.00    +0.000 A 
ATOM     24  C   UNL     1       3.957   4.046  16.789  0.00  0.00    +0.000 A 
ATOM     25  C   UNL     1       2.629   3.913  17.188  0.00  0.00    +0.000 A 
ATOM     26  C   UNL     1       2.007   4.952  17.877  0.00  0.00    +0.000 A 
ENDBRANCH   6  21
TORSDOF 5
ENDMDL
MODEL 9
REMARK VINA RESULT:      -6.6      3.039      7.311
REMARK  Name = 
REMARK  8 active torsions:
REMARK  status: ('A' for Active; 'I' for Inactive)
REMARK    1  A    between atoms: C_1  and  O_2
REMARK    2  A    between atoms: O_2  and  C_3
REMARK    3  A    between atoms: C_3  and  C_5
REMARK    4  A    between atoms: C_5  and  C_6
REMARK    5  A    between atoms: N_10  and  C_11
REMARK    6  A    between atoms: C_12  and  C_13
REMARK    7  A    between atoms: N_14  and  C_15
REMARK    8  A    between atoms: N_16  and  C_17
REMARK                            x       y       z     vdW  Elec       q    Type
REMARK                         _______ _______ _______ _____ _____    ______ ____
ROOT
ATOM      1  C   UNL     1       1.593   9.150  19.716  0.00  0.00    +0.000 A 
ATOM      2  C   UNL     1       1.476   8.217  20.683  0.00  0.00    +0.000 A 
ATOM      3  C   UNL     1       0.991   8.444  22.076  0.00  0.00    +0.000 C 
ATOM      4  N   UNL     1       1.854   6.959  20.233  0.00  0.00    +0.000 N 
ATOM      5  C   UNL     1       1.689   5.679  20.889  0.00  0.00    +0.000 C 
ATOM      6  N   UNL     1       2.035   7.045  18.838  0.00  0.00    +0.000 N 
ATOM      7  C   UNL     1       2.166   8.401  18.534  0.00  0.00    +0.000 A 
ATOM      8  O   UNL     1       2.588   8.960  17.535  0.00  0.00    +0.000 OA
ENDROOT
BRANCH   1  13
ATOM      9  C   UNL     1      -1.953  10.777  18.111  0.00  0.00    +0.000 A 
ATOM     10  C   UNL     1      -1.587  12.032  17.667  0.00  0.00    +0.000 A 
ATOM     11  S   UNL     1      -0.005  12.411  18.211  0.00  0.00    +0.000 S 
ATOM     12  C   UNL     1       0.103  10.870  18.977  0.00  0.00    +0.000 A 
ATOM     13  N   UNL     1       1.256  10.478  19.580  0.00  0.00    +0.000 N 
ATOM     14  N   UNL     1      -0.984  10.138  18.862  0.00  0.00    +0.000 NA
ATOM     15  H   UNL     1       2.072  11.025  19.306  0.00  0.00    +0.000 HD
BRANCH   9  16
ATOM     16  C   UNL     1      -3.253  10.075  17.907  0.00  0.00    +0.000 C 
BRANCH  16  17
ATOM     17  C   UNL     1      -3.875  10.399  16.570  0.00  0.00    +0.000 C 
ATOM     18  O   UNL     1      -4.737  11.243  16.368  0.00  0.00    +0.000 OA
BRANCH  17  20
ATOM     19  C   UNL     1      -3.032  10.174  14.390  0.00  0.00    +0.000 C 
ATOM     20  O   UNL     1      -3.394   9.543  15.618  0.00  0.00    +0.000 OA
ENDBRANCH  17  20
ENDBRANCH  16  17
ENDBRANCH   9  16
ENDBRANCH   1  13
BRANCH   6  21
ATOM     21  C   UNL     1       2.661   6.003  18.141  0.00  0.00    +0.000 A 
ATOM     22  C   UNL     1       1.990   4.827  17.805  0.00  0.00    +0.000 A 
ATOM     23  C   UNL     1       2.661   3.829  17.095  0.00  0.00    +0.000 A 
ATOM     24  C   UNL     1       4.004   3.996  16.747  0.00  0.00    +0.000 A 
ATOM     25  C   UNL     1       4.680   5.161  17.102  0.00  0.00    +0.000 A 
ATOM     26  C   UNL     1       4.006   6.167  17.791  0.00  0.00    +0.000 A 
ENDBRANCH   6  21
TORSDOF 5
ENDMDL
