MODEL 1
REMARK VINA RESULT:      -8.3      0.000      0.000
REMARK  Name = 
REMARK  7 active torsions:
REMARK  status: ('A' for Active; 'I' for Inactive)
REMARK    1  A    between atoms: C_1  and  O_2
REMARK    2  A    between atoms: O_2  and  C_3
REMARK    3  A    between atoms: C_6  and  C_7
REMARK    4  A    between atoms: C_12  and  C_14
REMARK    5  A    between atoms: N_19  and  S_20
REMARK    6  A    between atoms: S_20  and  C_23
REMARK    7  A    between atoms: N_25  and  C_26
REMARK                            x       y       z     vdW  Elec       q    Type
REMARK                         _______ _______ _______ _____ _____    ______ ____
ROOT
ATOM      1  C   UNL     1       0.451  10.180  20.005  0.00  0.00    +0.000 A 
ATOM      2  C   UNL     1       0.740  10.657  18.740  0.00  0.00    +0.000 A 
ATOM      3  S   UNL     1       1.848   9.590  17.954  0.00  0.00    +0.000 S 
ATOM      4  C   UNL     1       1.780   8.564  19.310  0.00  0.00    +0.000 A 
ATOM      5  N   UNL     1       2.474   7.385  19.225  0.00  0.00    +0.000 N 
ATOM      6  C   UNL     1       2.205   6.378  20.131  0.00  0.00    +0.000 C 
ATOM      7  O   UNL     1       1.358   6.442  21.022  0.00  0.00    +0.000 OA
ATOM      8  N   UNL     1       1.061   8.985  20.315  0.00  0.00    +0.000 NA
ATOM      9  H   UNL     1       3.047   7.225  18.403  0.00  0.00    +0.000 HD
ENDROOT
BRANCH   1  13
ATOM     10  C   UNL     1      -2.224  12.029  22.774  0.00  0.00    +0.000 A 
ATOM     11  C   UNL     1      -2.171  12.450  21.446  0.00  0.00    +0.000 A 
ATOM     12  C   UNL     1      -1.294  11.838  20.547  0.00  0.00    +0.000 A 
ATOM     13  C   UNL     1      -0.431  10.816  20.973  0.00  0.00    +0.000 A 
ATOM     14  C   UNL     1      -0.478  10.410  22.312  0.00  0.00    +0.000 A 
ATOM     15  C   UNL     1      -1.368  11.014  23.208  0.00  0.00    +0.000 A 
BRANCH  10  17
ATOM     16  C   UNL     1      -4.376  12.983  22.955  0.00  0.00    +0.000 C 
ATOM     17  O   UNL     1      -3.123  12.692  23.563  0.00  0.00    +0.000 OA
ENDBRANCH  10  17
ENDBRANCH   1  13
BRANCH   6  18
ATOM     18  C   UNL     1       3.019   5.091  19.928  0.00  0.00    +0.000 C 
ATOM     19  C   UNL     1       2.294   3.872  20.534  0.00  0.00    +0.000 C 
ATOM     20  C   UNL     1       1.076   3.417  19.730  0.00  0.00    +0.000 C 
ATOM     21  C   UNL     1       1.444   3.210  18.269  0.00  0.00    +0.000 C 
ATOM     22  C   UNL     1       2.162   4.420  17.677  0.00  0.00    +0.000 C 
ATOM     23  N   UNL     1       3.349   4.795  18.497  0.00  0.00    +0.000 NA
BRANCH  23  24
ATOM     24  S   UNL     1       4.387   5.921  17.748  0.00  0.00    +0.000 S 
ATOM     25  O   UNL     1       3.585   6.839  16.960  0.00  0.00    +0.000 OA
ATOM     26  O   UNL     1       5.293   6.434  18.758  0.00  0.00    +0.000 OA
BRANCH  24  27
ATOM     27  C   UNL     1       5.429   5.161  16.577  0.00  0.00    +0.000 A 
ATOM     28  C   UNL     1       5.169   5.077  15.219  0.00  0.00    +0.000 A 
ATOM     29  N   UNL     1       6.162   4.291  14.714  0.00  0.00    +0.000 N 
ATOM     30  C   UNL     1       6.264   3.812  13.358  0.00  0.00    +0.000 C 
ATOM     31  C   UNL     1       7.003   3.966  15.740  0.00  0.00    +0.000 A 
ATOM     32  N   UNL     1       6.603   4.486  16.882  0.00  0.00    +0.000 NA
ENDBRANCH  24  27
ENDBRANCH  23  24
ENDBRANCH   6  18
TORSDOF 5
ENDMDL
MODEL 2
REMARK VINA RESULT:      -8.3      1.553      2.116
REMARK  Name = 
REMARK  7 active torsions:
REMARK  status: ('A' for Active; 'I' for Inactive)
REMARK    1  A    between atoms: C_1  and  O_2
REMARK    2  A    between atoms: O_2  and  C_3
REMARK    3  A    between atoms: C_6  and  C_7
REMARK    4  A    between atoms: C_12  and  C_14
REMARK    5  A    between atoms: N_19  and  S_20
REMARK    6  A    between atoms: S_20  and  C_23
REMARK    7  A    between atoms: N_25  and  C_26
REMARK                            x       y       z     vdW  Elec       q    Type
REMARK                         _______ _______ _______ _____ _____    ______ ____
ROOT
ATOM      1  C   UNL     1       0.774   9.686  19.949  0.00  0.00    +0.000 A 
ATOM      2  C   UNL     1       1.177  10.113  18.698  0.00  0.00    +0.000 A 
ATOM      3  S   UNL     1       2.244   8.948  17.999  0.00  0.00    +0.000 S 
ATOM      4  C   UNL     1       2.012   7.958  19.365  0.00  0.00    +0.000 A 
ATOM      5  N   UNL     1       2.615   6.728  19.342  0.00  0.00    +0.000 N 
ATOM      6  C   UNL     1       2.212   5.763  20.244  0.00  0.00    +0.000 C 
ATOM      7  O   UNL     1       1.319   5.910  21.079  0.00  0.00    +0.000 OA
ATOM      8  N   UNL     1       1.268   8.454  20.315  0.00  0.00    +0.000 NA
ATOM      9  H   UNL     1       3.223   6.507  18.560  0.00  0.00    +0.000 HD
ENDROOT
BRANCH   1  13
ATOM     10  C   UNL     1      -1.747  11.808  22.666  0.00  0.00    +0.000 A 
ATOM     11  C   UNL     1      -1.060  10.667  23.076  0.00  0.00    +0.000 A 
ATOM     12  C   UNL     1      -0.236   9.980  22.181  0.00  0.00    +0.000 A 
ATOM     13  C   UNL     1      -0.114  10.408  20.849  0.00  0.00    +0.000 A 
ATOM     14  C   UNL     1      -0.820  11.546  20.440  0.00  0.00    +0.000 A 
ATOM     15  C   UNL     1      -1.633  12.241  21.343  0.00  0.00    +0.000 A 
BRANCH  10  17
ATOM     16  C   UNL     1      -3.855  12.702  23.242  0.00  0.00    +0.000 C 
ATOM     17  O   UNL     1      -2.517  12.405  23.626  0.00  0.00    +0.000 OA
ENDBRANCH  10  17
ENDBRANCH   1  13
BRANCH   6  18
ATOM     18  C   UNL     1       2.934   4.413  20.112  0.00  0.00    +0.000 C 
ATOM     19  C   UNL     1       3.014   3.689  21.472  0.00  0.00    +0.000 C 
ATOM     20  C   UNL     1       1.680   3.110  21.941  0.00  0.00    +0.000 C 
ATOM     21  C   UNL     1       1.058   2.244  20.855  0.00  0.00    +0.000 C 
ATOM     22  C   UNL     1       0.984   2.967  19.513  0.00  0.00    +0.000 C 
ATOM     23  N   UNL     1       2.321   3.487  19.107  0.00  0.00    +0.000 NA
BRANCH  23  24
ATOM     24  S   UNL     1       2.401   4.022  17.491  0.00  0.00    +0.000 S 
ATOM     25  O   UNL     1       2.295   2.870  16.614  0.00  0.00    +0.000 OA
ATOM     26  O   UNL     1       1.480   5.133  17.341  0.00  0.00    +0.000 OA
BRANCH  24  27
ATOM     27  C   UNL     1       3.960   4.698  17.109  0.00  0.00    +0.000 A 
ATOM     28  C   UNL     1       5.125   3.967  16.948  0.00  0.00    +0.000 A 
ATOM     29  N   UNL     1       6.112   4.895  16.802  0.00  0.00    +0.000 N 
ATOM     30  C   UNL     1       7.527   4.632  16.721  0.00  0.00    +0.000 C 
ATOM     31  C   UNL     1       5.532   6.132  16.829  0.00  0.00    +0.000 A 
ATOM     32  N   UNL     1       4.229   6.056  16.997  0.00  0.00    +0.000 NA
ENDBRANCH  24  27
ENDBRANCH  23  24
ENDBRANCH   6  18
TORSDOF 5
ENDMDL
MODEL 3
REMARK VINA RESULT:      -8.2      0.626      1.069
REMARK  Name = 
REMARK  7 active torsions:
REMARK  status: ('A' for Active; 'I' for Inactive)
REMARK    1  A    between atoms: C_1  and  O_2
REMARK    2  A    between atoms: O_2  and  C_3
REMARK    3  A    between atoms: C_6  and  C_7
REMARK    4  A    between atoms: C_12  and  C_14
REMARK    5  A    between atoms: N_19  and  S_20
REMARK    6  A    between atoms: S_20  and  C_23
REMARK    7  A    between atoms: N_25  and  C_26
REMARK                            x       y       z     vdW  Elec       q    Type
REMARK                         _______ _______ _______ _____ _____    ______ ____
ROOT
ATOM      1  C   UNL     1       0.402  10.161  20.009  0.00  0.00    +0.000 A 
ATOM      2  C   UNL     1       0.759  10.643  18.763  0.00  0.00    +0.000 A 
ATOM      3  S   UNL     1       1.890   9.566  18.024  0.00  0.00    +0.000 S 
ATOM      4  C   UNL     1       1.741   8.532  19.367  0.00  0.00    +0.000 A 
ATOM      5  N   UNL     1       2.422   7.344  19.307  0.00  0.00    +0.000 N 
ATOM      6  C   UNL     1       2.096   6.334  20.191  0.00  0.00    +0.000 C 
ATOM      7  O   UNL     1       1.207   6.403  21.039  0.00  0.00    +0.000 OA
ATOM      8  N   UNL     1       0.979   8.956  20.338  0.00  0.00    +0.000 NA
ATOM      9  H   UNL     1       3.033   7.182  18.513  0.00  0.00    +0.000 HD
ENDROOT
BRANCH   1  13
ATOM     10  C   UNL     1      -2.212  12.058  22.803  0.00  0.00    +0.000 A 
ATOM     11  C   UNL     1      -1.378  11.016  23.204  0.00  0.00    +0.000 A 
ATOM     12  C   UNL     1      -0.524  10.402  22.282  0.00  0.00    +0.000 A 
ATOM     13  C   UNL     1      -0.518  10.802  20.937  0.00  0.00    +0.000 A 
ATOM     14  C   UNL     1      -1.372  11.839  20.539  0.00  0.00    +0.000 A 
ATOM     15  C   UNL     1      -2.215  12.462  21.467  0.00  0.00    +0.000 A 
BRANCH  10  17
ATOM     16  C   UNL     1      -3.007  14.010  23.867  0.00  0.00    +0.000 C 
ATOM     17  O   UNL     1      -2.999  12.589  23.788  0.00  0.00    +0.000 OA
ENDBRANCH  10  17
ENDBRANCH   1  13
BRANCH   6  18
ATOM     18  C   UNL     1       2.901   5.038  20.017  0.00  0.00    +0.000 C 
ATOM     19  C   UNL     1       2.174   3.839  20.661  0.00  0.00    +0.000 C 
ATOM     20  C   UNL     1       0.948   3.370  19.876  0.00  0.00    +0.000 C 
ATOM     21  C   UNL     1       1.306   3.121  18.418  0.00  0.00    +0.000 C 
ATOM     22  C   UNL     1       2.027   4.311  17.790  0.00  0.00    +0.000 C 
ATOM     23  N   UNL     1       3.221   4.701  18.593  0.00  0.00    +0.000 NA
BRANCH  23  24
ATOM     24  S   UNL     1       4.261   5.800  17.808  0.00  0.00    +0.000 S 
ATOM     25  O   UNL     1       3.456   6.738  17.046  0.00  0.00    +0.000 OA
ATOM     26  O   UNL     1       5.213   6.291  18.785  0.00  0.00    +0.000 OA
BRANCH  24  27
ATOM     27  C   UNL     1       5.243   5.015  16.603  0.00  0.00    +0.000 A 
ATOM     28  C   UNL     1       6.030   5.669  15.670  0.00  0.00    +0.000 A 
ATOM     29  N   UNL     1       6.504   4.688  14.851  0.00  0.00    +0.000 N 
ATOM     30  C   UNL     1       7.279   4.878  13.651  0.00  0.00    +0.000 C 
ATOM     31  C   UNL     1       6.043   3.490  15.321  0.00  0.00    +0.000 A 
ATOM     32  N   UNL     1       5.289   3.644  16.390  0.00  0.00    +0.000 NA
ENDBRANCH  24  27
ENDBRANCH  23  24
ENDBRANCH   6  18
TORSDOF 5
ENDMDL
MODEL 4
REMARK VINA RESULT:      -8.1      1.848      2.264
REMARK  Name = 
REMARK  7 active torsions:
REMARK  status: ('A' for Active; 'I' for Inactive)
REMARK    1  A    between atoms: C_1  and  O_2
REMARK    2  A    between atoms: O_2  and  C_3
REMARK    3  A    between atoms: C_6  and  C_7
REMARK    4  A    between atoms: C_12  and  C_14
REMARK    5  A    between atoms: N_19  and  S_20
REMARK    6  A    between atoms: S_20  and  C_23
REMARK    7  A    between atoms: N_25  and  C_26
REMARK                            x       y       z     vdW  Elec       q    Type
REMARK                         _______ _______ _______ _____ _____    ______ ____
ROOT
ATOM      1  C   UNL     1       0.892   9.447  19.939  0.00  0.00    +0.000 A 
ATOM      2  C   UNL     1       1.301   9.849  18.682  0.00  0.00    +0.000 A 
ATOM      3  S   UNL     1       2.395   8.685  18.024  0.00  0.00    +0.000 S 
ATOM      4  C   UNL     1       2.165   7.726  19.411  0.00  0.00    +0.000 A 
ATOM      5  N   UNL     1       2.788   6.505  19.425  0.00  0.00    +0.000 N 
ATOM      6  C   UNL     1       2.391   5.557  20.347  0.00  0.00    +0.000 C 
ATOM      7  O   UNL     1       1.487   5.709  21.168  0.00  0.00    +0.000 OA
ATOM      8  N   UNL     1       1.402   8.232  20.341  0.00  0.00    +0.000 NA
ATOM      9  H   UNL     1       3.408   6.275  18.656  0.00  0.00    +0.000 HD
ENDROOT
BRANCH   1  13
ATOM     10  C   UNL     1      -1.692  11.599  22.572  0.00  0.00    +0.000 A 
ATOM     11  C   UNL     1      -0.941  10.520  23.036  0.00  0.00    +0.000 A 
ATOM     12  C   UNL     1      -0.097   9.823  22.168  0.00  0.00    +0.000 A 
ATOM     13  C   UNL     1      -0.017  10.175  20.811  0.00  0.00    +0.000 A 
ATOM     14  C   UNL     1      -0.787  11.250  20.349  0.00  0.00    +0.000 A 
ATOM     15  C   UNL     1      -1.621  11.957  21.224  0.00  0.00    +0.000 A 
BRANCH  10  17
ATOM     16  C   UNL     1      -2.427  13.634  23.516  0.00  0.00    +0.000 C 
ATOM     17  O   UNL     1      -2.477  12.212  23.509  0.00  0.00    +0.000 OA
ENDBRANCH  10  17
ENDBRANCH   1  13
BRANCH   6  18
ATOM     18  C   UNL     1       3.136   4.216  20.257  0.00  0.00    +0.000 C 
ATOM     19  C   UNL     1       2.665   3.241  21.356  0.00  0.00    +0.000 C 
ATOM     20  C   UNL     1       1.271   2.665  21.110  0.00  0.00    +0.000 C 
ATOM     21  C   UNL     1       1.177   2.062  19.717  0.00  0.00    +0.000 C 
ATOM     22  C   UNL     1       1.646   3.032  18.636  0.00  0.00    +0.000 C 
ATOM     23  N   UNL     1       3.018   3.538  18.926  0.00  0.00    +0.000 NA
BRANCH  23  24
ATOM     24  S   UNL     1       3.746   4.367  17.627  0.00  0.00    +0.000 S 
ATOM     25  O   UNL     1       4.215   3.393  16.659  0.00  0.00    +0.000 OA
ATOM     26  O   UNL     1       2.846   5.426  17.212  0.00  0.00    +0.000 OA
BRANCH  24  27
ATOM     27  C   UNL     1       5.195   5.200  18.121  0.00  0.00    +0.000 A 
ATOM     28  C   UNL     1       5.673   6.367  17.549  0.00  0.00    +0.000 A 
ATOM     29  N   UNL     1       6.883   6.583  18.139  0.00  0.00    +0.000 N 
ATOM     30  C   UNL     1       7.828   7.615  17.795  0.00  0.00    +0.000 C 
ATOM     31  C   UNL     1       7.082   5.595  19.062  0.00  0.00    +0.000 A 
ATOM     32  N   UNL     1       6.076   4.746  19.093  0.00  0.00    +0.000 NA
ENDBRANCH  24  27
ENDBRANCH  23  24
ENDBRANCH   6  18
TORSDOF 5
ENDMDL
MODEL 5
REMARK VINA RESULT:      -8.0      2.454      3.229
REMARK  Name = 
REMARK  7 active torsions:
REMARK  status: ('A' for Active; 'I' for Inactive)
REMARK    1  A    between atoms: C_1  and  O_2
REMARK    2  A    between atoms: O_2  and  C_3
REMARK    3  A    between atoms: C_6  and  C_7
REMARK    4  A    between atoms: C_12  and  C_14
REMARK    5  A    between atoms: N_19  and  S_20
REMARK    6  A    between atoms: S_20  and  C_23
REMARK    7  A    between atoms: N_25  and  C_26
REMARK                            x       y       z     vdW  Elec       q    Type
REMARK                         _______ _______ _______ _____ _____    ______ ____
ROOT
ATOM      1  C   UNL     1       0.161   9.591  20.064  0.00  0.00    +0.000 A 
ATOM      2  C   UNL     1       0.675  10.262  21.158  0.00  0.00    +0.000 A 
ATOM      3  S   UNL     1       1.594   9.170  22.132  0.00  0.00    +0.000 S 
ATOM      4  C   UNL     1       1.300   7.945  20.988  0.00  0.00    +0.000 A 
ATOM      5  N   UNL     1       1.911   6.738  21.208  0.00  0.00    +0.000 N 
ATOM      6  C   UNL     1       1.985   5.822  20.178  0.00  0.00    +0.000 C 
ATOM      7  O   UNL     1       1.555   6.008  19.039  0.00  0.00    +0.000 OA
ATOM      8  N   UNL     1       0.525   8.265  19.988  0.00  0.00    +0.000 NA
ATOM      9  H   UNL     1       2.432   6.616  22.070  0.00  0.00    +0.000 HD
ENDROOT
BRANCH   1  13
ATOM     10  C   UNL     1      -2.360  11.205  17.018  0.00  0.00    +0.000 A 
ATOM     11  C   UNL     1      -1.758   9.958  16.857  0.00  0.00    +0.000 A 
ATOM     12  C   UNL     1      -0.936   9.437  17.860  0.00  0.00    +0.000 A 
ATOM     13  C   UNL     1      -0.678  10.173  19.027  0.00  0.00    +0.000 A 
ATOM     14  C   UNL     1      -1.274  11.432  19.174  0.00  0.00    +0.000 A 
ATOM     15  C   UNL     1      -2.109  11.945  18.175  0.00  0.00    +0.000 A 
BRANCH  10  17
ATOM     16  C   UNL     1      -3.371  10.643  14.960  0.00  0.00    +0.000 C 
ATOM     17  O   UNL     1      -3.150  11.612  15.978  0.00  0.00    +0.000 OA
ENDBRANCH  10  17
ENDBRANCH   1  13
BRANCH   6  18
ATOM     18  C   UNL     1       2.714   4.515  20.525  0.00  0.00    +0.000 C 
ATOM     19  C   UNL     1       1.718   3.421  20.965  0.00  0.00    +0.000 C 
ATOM     20  C   UNL     1       0.894   2.842  19.816  0.00  0.00    +0.000 C 
ATOM     21  C   UNL     1       1.800   2.384  18.682  0.00  0.00    +0.000 C 
ATOM     22  C   UNL     1       2.783   3.471  18.254  0.00  0.00    +0.000 C 
ATOM     23  N   UNL     1       3.566   3.976  19.418  0.00  0.00    +0.000 NA
BRANCH  23  24
ATOM     24  S   UNL     1       4.898   4.951  18.993  0.00  0.00    +0.000 S 
ATOM     25  O   UNL     1       4.624   6.316  19.403  0.00  0.00    +0.000 OA
ATOM     26  O   UNL     1       6.103   4.286  19.450  0.00  0.00    +0.000 OA
BRANCH  24  27
ATOM     27  C   UNL     1       5.093   5.062  17.265  0.00  0.00    +0.000 A 
ATOM     28  C   UNL     1       5.581   4.050  16.455  0.00  0.00    +0.000 A 
ATOM     29  N   UNL     1       5.695   4.609  15.217  0.00  0.00    +0.000 N 
ATOM     30  C   UNL     1       6.272   3.989  14.050  0.00  0.00    +0.000 C 
ATOM     31  C   UNL     1       5.242   5.896  15.294  0.00  0.00    +0.000 A 
ATOM     32  N   UNL     1       4.854   6.204  16.514  0.00  0.00    +0.000 NA
ENDBRANCH  24  27
ENDBRANCH  23  24
ENDBRANCH   6  18
TORSDOF 5
ENDMDL
MODEL 6
REMARK VINA RESULT:      -7.8      1.101      1.227
REMARK  Name = 
REMARK  7 active torsions:
REMARK  status: ('A' for Active; 'I' for Inactive)
REMARK    1  A    between atoms: C_1  and  O_2
REMARK    2  A    between atoms: O_2  and  C_3
REMARK    3  A    between atoms: C_6  and  C_7
REMARK    4  A    between atoms: C_12  and  C_14
REMARK    5  A    between atoms: N_19  and  S_20
REMARK    6  A    between atoms: S_20  and  C_23
REMARK    7  A    between atoms: N_25  and  C_26
REMARK                            x       y       z     vdW  Elec       q    Type
REMARK                         _______ _______ _______ _____ _____    ______ ____
ROOT
ATOM      1  C   UNL     1       1.044   9.160  19.936  0.00  0.00    +0.000 A 
ATOM      2  C   UNL     1       1.222   9.579  18.631  0.00  0.00    +0.000 A 
ATOM      3  S   UNL     1       2.218   8.449  17.785  0.00  0.00    +0.000 S 
ATOM      4  C   UNL     1       2.254   7.478  19.182  0.00  0.00    +0.000 A 
ATOM      5  N   UNL     1       2.903   6.276  19.078  0.00  0.00    +0.000 N 
ATOM      6  C   UNL     1       2.697   5.312  20.046  0.00  0.00    +0.000 C 
ATOM      7  O   UNL     1       1.942   5.436  21.011  0.00  0.00    +0.000 OA
ATOM      8  N   UNL     1       1.648   7.959  20.233  0.00  0.00    +0.000 NA
ATOM      9  H   UNL     1       3.389   6.067  18.212  0.00  0.00    +0.000 HD
ENDROOT
BRANCH   1  13
ATOM     10  C   UNL     1      -1.290  11.215  22.863  0.00  0.00    +0.000 A 
ATOM     11  C   UNL     1      -1.159  11.724  21.572  0.00  0.00    +0.000 A 
ATOM     12  C   UNL     1      -0.395  11.043  20.620  0.00  0.00    +0.000 A 
ATOM     13  C   UNL     1       0.278   9.858  20.957  0.00  0.00    +0.000 A 
ATOM     14  C   UNL     1       0.155   9.362  22.261  0.00  0.00    +0.000 A 
ATOM     15  C   UNL     1      -0.624  10.037  23.209  0.00  0.00    +0.000 A 
BRANCH  10  17
ATOM     16  C   UNL     1      -3.302  12.412  23.168  0.00  0.00    +0.000 C 
ATOM     17  O   UNL     1      -2.067  11.957  23.709  0.00  0.00    +0.000 OA
ENDBRANCH  10  17
ENDBRANCH   1  13
BRANCH   6  18
ATOM     18  C   UNL     1       3.451   3.993  19.817  0.00  0.00    +0.000 C 
ATOM     19  C   UNL     1       2.522   2.778  20.015  0.00  0.00    +0.000 C 
ATOM     20  C   UNL     1       1.515   2.583  18.881  0.00  0.00    +0.000 C 
ATOM     21  C   UNL     1       2.220   2.565  17.533  0.00  0.00    +0.000 C 
ATOM     22  C   UNL     1       3.139   3.770  17.346  0.00  0.00    +0.000 C 
ATOM     23  N   UNL     1       4.107   3.888  18.475  0.00  0.00    +0.000 NA
BRANCH  23  24
ATOM     24  S   UNL     1       5.368   5.000  18.198  0.00  0.00    +0.000 S 
ATOM     25  O   UNL     1       4.816   6.343  18.218  0.00  0.00    +0.000 OA
ATOM     26  O   UNL     1       6.468   4.657  19.079  0.00  0.00    +0.000 OA
BRANCH  24  27
ATOM     27  C   UNL     1       6.031   4.842  16.595  0.00  0.00    +0.000 A 
ATOM     28  C   UNL     1       5.370   4.282  15.514  0.00  0.00    +0.000 A 
ATOM     29  N   UNL     1       6.296   4.235  14.515  0.00  0.00    +0.000 N 
ATOM     30  C   UNL     1       6.124   3.626  13.220  0.00  0.00    +0.000 C 
ATOM     31  C   UNL     1       7.450   4.795  14.986  0.00  0.00    +0.000 A 
ATOM     32  N   UNL     1       7.326   5.189  16.236  0.00  0.00    +0.000 NA
ENDBRANCH  24  27
ENDBRANCH  23  24
ENDBRANCH   6  18
TORSDOF 5
ENDMDL
MODEL 7
REMARK VINA RESULT:      -7.8      1.330      1.755
REMARK  Name = 
REMARK  7 active torsions:
REMARK  status: ('A' for Active; 'I' for Inactive)
REMARK    1  A    between atoms: C_1  and  O_2
REMARK    2  A    between atoms: O_2  and  C_3
REMARK    3  A    between atoms: C_6  and  C_7
REMARK    4  A    between atoms: C_12  and  C_14
REMARK    5  A    between atoms: N_19  and  S_20
REMARK    6  A    between atoms: S_20  and  C_23
REMARK    7  A    between atoms: N_25  and  C_26
REMARK                            x       y       z     vdW  Elec       q    Type
REMARK                         _______ _______ _______ _____ _____    ______ ____
ROOT
ATOM      1  C   UNL     1       1.154   9.491  19.700  0.00  0.00    +0.000 A 
ATOM      2  C   UNL     1       1.394   9.678  18.352  0.00  0.00    +0.000 A 
ATOM      3  S   UNL     1       2.194   8.292  17.703  0.00  0.00    +0.000 S 
ATOM      4  C   UNL     1       2.078   7.545  19.228  0.00  0.00    +0.000 A 
ATOM      5  N   UNL     1       2.526   6.253  19.316  0.00  0.00    +0.000 N 
ATOM      6  C   UNL     1       2.170   5.489  20.410  0.00  0.00    +0.000 C 
ATOM      7  O   UNL     1       1.447   5.873  21.330  0.00  0.00    +0.000 OA
ATOM      8  N   UNL     1       1.559   8.267  20.184  0.00  0.00    +0.000 NA
ATOM      9  H   UNL     1       2.970   5.844  18.501  0.00  0.00    +0.000 HD
ENDROOT
BRANCH   1  13
ATOM     10  C   UNL     1      -0.679  12.244  22.403  0.00  0.00    +0.000 A 
ATOM     11  C   UNL     1      -0.774  10.869  22.613  0.00  0.00    +0.000 A 
ATOM     12  C   UNL     1      -0.170   9.976  21.725  0.00  0.00    +0.000 A 
ATOM     13  C   UNL     1       0.512  10.446  20.591  0.00  0.00    +0.000 A 
ATOM     14  C   UNL     1       0.590  11.828  20.378  0.00  0.00    +0.000 A 
ATOM     15  C   UNL     1      -0.003  12.722  21.278  0.00  0.00    +0.000 A 
BRANCH  10  17
ATOM     16  C   UNL     1      -2.720  13.067  23.256  0.00  0.00    +0.000 C 
ATOM     17  O   UNL     1      -1.300  13.024  23.338  0.00  0.00    +0.000 OA
ENDBRANCH  10  17
ENDBRANCH   1  13
BRANCH   6  18
ATOM     18  C   UNL     1       2.703   4.048  20.394  0.00  0.00    +0.000 C 
ATOM     19  C   UNL     1       1.556   3.028  20.551  0.00  0.00    +0.000 C 
ATOM     20  C   UNL     1       0.683   2.888  19.304  0.00  0.00    +0.000 C 
ATOM     21  C   UNL     1       1.540   2.619  18.076  0.00  0.00    +0.000 C 
ATOM     22  C   UNL     1       2.672   3.632  17.929  0.00  0.00    +0.000 C 
ATOM     23  N   UNL     1       3.495   3.702  19.171  0.00  0.00    +0.000 NA
BRANCH  23  24
ATOM     24  S   UNL     1       4.957   4.559  18.991  0.00  0.00    +0.000 S 
ATOM     25  O   UNL     1       4.847   5.820  19.703  0.00  0.00    +0.000 OA
ATOM     26  O   UNL     1       6.047   3.651  19.292  0.00  0.00    +0.000 OA
BRANCH  24  27
ATOM     27  C   UNL     1       5.231   5.032  17.337  0.00  0.00    +0.000 A 
ATOM     28  C   UNL     1       5.954   4.299  16.411  0.00  0.00    +0.000 A 
ATOM     29  N   UNL     1       6.032   5.096  15.308  0.00  0.00    +0.000 N 
ATOM     30  C   UNL     1       6.788   4.825  14.111  0.00  0.00    +0.000 C 
ATOM     31  C   UNL     1       5.335   6.242  15.568  0.00  0.00    +0.000 A 
ATOM     32  N   UNL     1       4.821   6.235  16.780  0.00  0.00    +0.000 NA
ENDBRANCH  24  27
ENDBRANCH  23  24
ENDBRANCH   6  18
TORSDOF 5
ENDMDL
MODEL 8
REMARK VINA RESULT:      -7.6      2.320      2.976
REMARK  Name = 
REMARK  7 active torsions:
REMARK  status: ('A' for Active; 'I' for Inactive)
REMARK    1  A    between atoms: C_1  and  O_2
REMARK    2  A    between atoms: O_2  and  C_3
REMARK    3  A    between atoms: C_6  and  C_7
REMARK    4  A    between atoms: C_12  and  C_14
REMARK    5  A    between atoms: N_19  and  S_20
REMARK    6  A    between atoms: S_20  and  C_23
REMARK    7  A    between atoms: N_25  and  C_26
REMARK                            x       y       z     vdW  Elec       q    Type
REMARK                         _______ _______ _______ _____ _____    ______ ____
ROOT
ATOM      1  C   UNL     1      -0.027   9.745  20.031  0.00  0.00    +0.000 A 
ATOM      2  C   UNL     1       0.413  10.360  21.188  0.00  0.00    +0.000 A 
ATOM      3  S   UNL     1       1.522   9.324  22.014  0.00  0.00    +0.000 S 
ATOM      4  C   UNL     1       1.384   8.206  20.738  0.00  0.00    +0.000 A 
ATOM      5  N   UNL     1       2.181   7.094  20.807  0.00  0.00    +0.000 N 
ATOM      6  C   UNL     1       2.362   6.323  19.676  0.00  0.00    +0.000 C 
ATOM      7  O   UNL     1       1.872   6.567  18.573  0.00  0.00    +0.000 OA
ATOM      8  N   UNL     1       0.535   8.511  19.795  0.00  0.00    +0.000 NA
ATOM      9  H   UNL     1       2.744   6.959  21.641  0.00  0.00    +0.000 HD
ENDROOT
BRANCH   1  13
ATOM     10  C   UNL     1      -2.864  11.273  17.228  0.00  0.00    +0.000 A 
ATOM     11  C   UNL     1      -2.045  10.195  16.895  0.00  0.00    +0.000 A 
ATOM     12  C   UNL     1      -1.121   9.701  17.820  0.00  0.00    +0.000 A 
ATOM     13  C   UNL     1      -0.980  10.301  19.081  0.00  0.00    +0.000 A 
ATOM     14  C   UNL     1      -1.795  11.394  19.401  0.00  0.00    +0.000 A 
ATOM     15  C   UNL     1      -2.731  11.878  18.479  0.00  0.00    +0.000 A 
BRANCH  10  17
ATOM     16  C   UNL     1      -3.753  10.861  15.080  0.00  0.00    +0.000 C 
ATOM     17  O   UNL     1      -3.737  11.668  16.251  0.00  0.00    +0.000 OA
ENDBRANCH  10  17
ENDBRANCH   1  13
BRANCH   6  18
ATOM     18  C   UNL     1       3.296   5.117  19.858  0.00  0.00    +0.000 C 
ATOM     19  C   UNL     1       2.535   3.903  20.429  0.00  0.00    +0.000 C 
ATOM     20  C   UNL     1       1.603   3.231  19.421  0.00  0.00    +0.000 C 
ATOM     21  C   UNL     1       2.350   2.899  18.138  0.00  0.00    +0.000 C 
ATOM     22  C   UNL     1       3.102   4.105  17.580  0.00  0.00    +0.000 C 
ATOM     23  N   UNL     1       4.006   4.697  18.607  0.00  0.00    +0.000 NA
BRANCH  23  24
ATOM     24  S   UNL     1       5.113   5.836  17.989  0.00  0.00    +0.000 S 
ATOM     25  O   UNL     1       4.375   6.997  17.525  0.00  0.00    +0.000 OA
ATOM     26  O   UNL     1       6.179   5.996  18.959  0.00  0.00    +0.000 OA
BRANCH  24  27
ATOM     27  C   UNL     1       5.915   5.249  16.558  0.00  0.00    +0.000 A 
ATOM     28  C   UNL     1       5.287   4.967  15.356  0.00  0.00    +0.000 A 
ATOM     29  N   UNL     1       6.253   4.409  14.572  0.00  0.00    +0.000 N 
ATOM     30  C   UNL     1       6.065   3.838  13.262  0.00  0.00    +0.000 C 
ATOM     31  C   UNL     1       7.421   4.409  15.281  0.00  0.00    +0.000 A 
ATOM     32  N   UNL     1       7.262   4.924  16.483  0.00  0.00    +0.000 NA
ENDBRANCH  24  27
ENDBRANCH  23  24
ENDBRANCH   6  18
TORSDOF 5
ENDMDL
MODEL 9
REMARK VINA RESULT:      -7.6      2.292      2.813
REMARK  Name = 
REMARK  7 active torsions:
REMARK  status: ('A' for Active; 'I' for Inactive)
REMARK    1  A    between atoms: C_1  and  O_2
REMARK    2  A    between atoms: O_2  and  C_3
REMARK    3  A    between atoms: C_6  and  C_7
REMARK    4  A    between atoms: C_12  and  C_14
REMARK    5  A    between atoms: N_19  and  S_20
REMARK    6  A    between atoms: S_20  and  C_23
REMARK    7  A    between atoms: N_25  and  C_26
REMARK                            x       y       z     vdW  Elec       q    Type
REMARK                         _______ _______ _______ _____ _____    ______ ____
ROOT
ATOM      1  C   UNL     1      -0.089   9.719  19.943  0.00  0.00    +0.000 A 
ATOM      2  C   UNL     1       0.335  10.330  21.109  0.00  0.00    +0.000 A 
ATOM      3  S   UNL     1       1.547   9.361  21.867  0.00  0.00    +0.000 S 
ATOM      4  C   UNL     1       1.461   8.276  20.558  0.00  0.00    +0.000 A 
ATOM      5  N   UNL     1       2.346   7.231  20.566  0.00  0.00    +0.000 N 
ATOM      6  C   UNL     1       2.554   6.514  19.404  0.00  0.00    +0.000 C 
ATOM      7  O   UNL     1       2.013   6.753  18.325  0.00  0.00    +0.000 OA
ATOM      8  N   UNL     1       0.562   8.542  19.650  0.00  0.00    +0.000 NA
ATOM      9  H   UNL     1       2.943   7.115  21.379  0.00  0.00    +0.000 HD
ENDROOT
BRANCH   1  13
ATOM     10  C   UNL     1      -3.053  11.312  17.313  0.00  0.00    +0.000 A 
ATOM     11  C   UNL     1      -2.916  11.803  18.611  0.00  0.00    +0.000 A 
ATOM     12  C   UNL     1      -1.942  11.276  19.464  0.00  0.00    +0.000 A 
ATOM     13  C   UNL     1      -1.112  10.226  19.040  0.00  0.00    +0.000 A 
ATOM     14  C   UNL     1      -1.267   9.728  17.740  0.00  0.00    +0.000 A 
ATOM     15  C   UNL     1      -2.233  10.267  16.882  0.00  0.00    +0.000 A 
BRANCH  10  17
ATOM     16  C   UNL     1      -5.334  11.895  17.138  0.00  0.00    +0.000 C 
ATOM     17  O   UNL     1      -4.032  11.905  16.564  0.00  0.00    +0.000 OA
ENDBRANCH  10  17
ENDBRANCH   1  13
BRANCH   6  18
ATOM     18  C   UNL     1       3.587   5.383  19.518  0.00  0.00    +0.000 C 
ATOM     19  C   UNL     1       2.984   4.147  20.218  0.00  0.00    +0.000 C 
ATOM     20  C   UNL     1       1.994   3.370  19.350  0.00  0.00    +0.000 C 
ATOM     21  C   UNL     1       2.611   3.034  18.001  0.00  0.00    +0.000 C 
ATOM     22  C   UNL     1       3.206   4.261  17.316  0.00  0.00    +0.000 C 
ATOM     23  N   UNL     1       4.177   4.957  18.208  0.00  0.00    +0.000 NA
BRANCH  23  24
ATOM     24  S   UNL     1       5.121   6.139  17.425  0.00  0.00    +0.000 S 
ATOM     25  O   UNL     1       4.241   7.174  16.914  0.00  0.00    +0.000 OA
ATOM     26  O   UNL     1       6.218   6.491  18.305  0.00  0.00    +0.000 OA
BRANCH  24  27
ATOM     27  C   UNL     1       5.897   5.507  15.998  0.00  0.00    +0.000 A 
ATOM     28  C   UNL     1       5.251   4.830  14.977  0.00  0.00    +0.000 A 
ATOM     29  N   UNL     1       6.245   4.401  14.149  0.00  0.00    +0.000 N 
ATOM     30  C   UNL     1       6.088   3.546  12.999  0.00  0.00    +0.000 C 
ATOM     31  C   UNL     1       7.433   4.855  14.649  0.00  0.00    +0.000 A 
ATOM     32  N   UNL     1       7.264   5.542  15.759  0.00  0.00    +0.000 NA
ENDBRANCH  24  27
ENDBRANCH  23  24
ENDBRANCH   6  18
TORSDOF 5
ENDMDL
