MODEL 1
REMARK VINA RESULT:      -8.2      0.000      0.000
REMARK  Name = 
REMARK  2 active torsions:
REMARK  status: ('A' for Active; 'I' for Inactive)
REMARK    1  A    between atoms: C_1  and  C_2
REMARK    2  A    between atoms: C_2  and  O_3
REMARK                            x       y       z     vdW  Elec       q    Type
REMARK                         _______ _______ _______ _____ _____    ______ ____
ROOT
ATOM      1  C   UNL     1       7.490   6.359  17.307  0.00  0.00    +0.000 C 
ATOM      2  C   UNL     1       7.273   4.868  17.053  0.00  0.00    +0.000 C 
ATOM      3  C   UNL     1       7.240   4.527  15.544  0.00  0.00    +0.000 C 
ATOM      4  C   UNL     1       5.947   5.017  14.863  0.00  0.00    +0.000 C 
ATOM      5  C   UNL     1       4.659   4.456  15.504  0.00  0.00    +0.000 C 
ATOM      6  C   UNL     1       4.800   4.231  16.974  0.00  0.00    +0.000 A 
ATOM      7  C   UNL     1       5.992   4.401  17.648  0.00  0.00    +0.000 A 
ATOM      8  N   UNL     1       5.811   4.029  18.952  0.00  0.00    +0.000 N 
ATOM      9  C   UNL     1       4.504   3.638  19.145  0.00  0.00    +0.000 A 
ATOM     10  C   UNL     1       3.864   3.172  20.301  0.00  0.00    +0.000 A 
ATOM     11  C   UNL     1       2.510   2.822  20.202  0.00  0.00    +0.000 A 
ATOM     12 CL   UNL     1       1.738   2.247  21.640  0.00  0.00    +0.000 Cl
ATOM     13  C   UNL     1       1.828   2.935  18.986  0.00  0.00    +0.000 A 
ATOM     14 CL   UNL     1       0.158   2.511  18.821  0.00  0.00    +0.000 Cl
ATOM     15  C   UNL     1       2.485   3.400  17.839  0.00  0.00    +0.000 A 
ATOM     16  C   UNL     1       3.845   3.759  17.918  0.00  0.00    +0.000 A 
ATOM     17  H   UNL     1       6.546   4.007  19.644  0.00  0.00    +0.000 HD
ENDROOT
BRANCH   2  18
ATOM     18  O   UNL     1       8.310   4.138  17.698  0.00  0.00    +0.000 OA
ATOM     19  H   UNL     1       7.882   3.451  18.236  0.00  0.00    +0.000 HD
ENDBRANCH   2  18
TORSDOF 1
ENDMDL
MODEL 2
REMARK VINA RESULT:      -7.6      3.744      5.685
REMARK  Name = 
REMARK  2 active torsions:
REMARK  status: ('A' for Active; 'I' for Inactive)
REMARK    1  A    between atoms: C_1  and  C_2
REMARK    2  A    between atoms: C_2  and  O_3
REMARK                            x       y       z     vdW  Elec       q    Type
REMARK                         _______ _______ _______ _____ _____    ______ ____
ROOT
ATOM      1  C   UNL     1       2.191   2.896  21.557  0.00  0.00    +0.000 C 
ATOM      2  C   UNL     1       1.712   3.742  20.378  0.00  0.00    +0.000 C 
ATOM      3  C   UNL     1       0.676   2.997  19.502  0.00  0.00    +0.000 C 
ATOM      4  C   UNL     1       1.318   1.870  18.668  0.00  0.00    +0.000 C 
ATOM      5  C   UNL     1       2.458   2.355  17.746  0.00  0.00    +0.000 C 
ATOM      6  C   UNL     1       3.214   3.507  18.324  0.00  0.00    +0.000 A 
ATOM      7  C   UNL     1       2.848   4.131  19.499  0.00  0.00    +0.000 A 
ATOM      8  N   UNL     1       3.680   5.197  19.703  0.00  0.00    +0.000 N 
ATOM      9  C   UNL     1       4.605   5.264  18.683  0.00  0.00    +0.000 A 
ATOM     10  C   UNL     1       5.640   6.183  18.464  0.00  0.00    +0.000 A 
ATOM     11  C   UNL     1       6.427   6.019  17.316  0.00  0.00    +0.000 A 
ATOM     12 CL   UNL     1       7.699   7.164  17.062  0.00  0.00    +0.000 Cl
ATOM     13  C   UNL     1       6.180   4.972  16.421  0.00  0.00    +0.000 A 
ATOM     14 CL   UNL     1       7.125   4.736  14.990  0.00  0.00    +0.000 Cl
ATOM     15  C   UNL     1       5.137   4.065  16.655  0.00  0.00    +0.000 A 
ATOM     16  C   UNL     1       4.336   4.211  17.805  0.00  0.00    +0.000 A 
ATOM     17  H   UNL     1       3.590   5.852  20.466  0.00  0.00    +0.000 HD
ENDROOT
BRANCH   2  18
ATOM     18  O   UNL     1       1.153   4.950  20.878  0.00  0.00    +0.000 OA
ATOM     19  H   UNL     1       1.688   5.680  20.521  0.00  0.00    +0.000 HD
ENDBRANCH   2  18
TORSDOF 1
ENDMDL
MODEL 3
REMARK VINA RESULT:      -7.6      1.521      2.758
REMARK  Name = 
REMARK  2 active torsions:
REMARK  status: ('A' for Active; 'I' for Inactive)
REMARK    1  A    between atoms: C_1  and  C_2
REMARK    2  A    between atoms: C_2  and  O_3
REMARK                            x       y       z     vdW  Elec       q    Type
REMARK                         _______ _______ _______ _____ _____    ______ ____
ROOT
ATOM      1  C   UNL     1       7.351   4.887  15.605  0.00  0.00    +0.000 C 
ATOM      2  C   UNL     1       6.423   5.871  16.317  0.00  0.00    +0.000 C 
ATOM      3  C   UNL     1       7.192   6.828  17.259  0.00  0.00    +0.000 C 
ATOM      4  C   UNL     1       7.705   6.113  18.526  0.00  0.00    +0.000 C 
ATOM      5  C   UNL     1       6.588   5.433  19.348  0.00  0.00    +0.000 C 
ATOM      6  C   UNL     1       5.471   4.929  18.493  0.00  0.00    +0.000 A 
ATOM      7  C   UNL     1       5.406   5.156  17.134  0.00  0.00    +0.000 A 
ATOM      8  N   UNL     1       4.225   4.650  16.664  0.00  0.00    +0.000 N 
ATOM      9  C   UNL     1       3.525   4.071  17.701  0.00  0.00    +0.000 A 
ATOM     10  C   UNL     1       2.274   3.440  17.702  0.00  0.00    +0.000 A 
ATOM     11  C   UNL     1       1.790   2.952  18.924  0.00  0.00    +0.000 A 
ATOM     12 CL   UNL     1       0.242   2.177  18.905  0.00  0.00    +0.000 Cl
ATOM     13  C   UNL     1       2.535   3.097  20.099  0.00  0.00    +0.000 A 
ATOM     14 CL   UNL     1       1.971   2.512  21.628  0.00  0.00    +0.000 Cl
ATOM     15  C   UNL     1       3.783   3.735  20.079  0.00  0.00    +0.000 A 
ATOM     16  C   UNL     1       4.288   4.229  18.861  0.00  0.00    +0.000 A 
ATOM     17  H   UNL     1       3.908   4.735  15.709  0.00  0.00    +0.000 HD
ENDROOT
BRANCH   2  18
ATOM     18  O   UNL     1       5.709   6.617  15.339  0.00  0.00    +0.000 OA
ATOM     19  H   UNL     1       5.663   6.066  14.539  0.00  0.00    +0.000 HD
ENDBRANCH   2  18
TORSDOF 1
ENDMDL
MODEL 4
REMARK VINA RESULT:      -7.3      3.712      5.946
REMARK  Name = 
REMARK  2 active torsions:
REMARK  status: ('A' for Active; 'I' for Inactive)
REMARK    1  A    between atoms: C_1  and  C_2
REMARK    2  A    between atoms: C_2  and  O_3
REMARK                            x       y       z     vdW  Elec       q    Type
REMARK                         _______ _______ _______ _____ _____    ______ ____
ROOT
ATOM      1  C   UNL     1       0.373   2.860  18.650  0.00  0.00    +0.000 C 
ATOM      2  C   UNL     1       1.721   2.496  19.270  0.00  0.00    +0.000 C 
ATOM      3  C   UNL     1       1.766   2.782  20.790  0.00  0.00    +0.000 C 
ATOM      4  C   UNL     1       1.826   4.291  21.099  0.00  0.00    +0.000 C 
ATOM      5  C   UNL     1       3.027   5.010  20.445  0.00  0.00    +0.000 C 
ATOM      6  C   UNL     1       3.415   4.405  19.135  0.00  0.00    +0.000 A 
ATOM      7  C   UNL     1       2.829   3.260  18.635  0.00  0.00    +0.000 A 
ATOM      8  N   UNL     1       3.465   2.917  17.474  0.00  0.00    +0.000 N 
ATOM      9  C   UNL     1       4.449   3.842  17.194  0.00  0.00    +0.000 A 
ATOM     10  C   UNL     1       5.355   3.899  16.127  0.00  0.00    +0.000 A 
ATOM     11  C   UNL     1       6.273   4.958  16.107  0.00  0.00    +0.000 A 
ATOM     12 CL   UNL     1       7.385   5.011  14.781  0.00  0.00    +0.000 Cl
ATOM     13  C   UNL     1       6.280   5.921  17.122  0.00  0.00    +0.000 A 
ATOM     14 CL   UNL     1       7.398   7.242  17.135  0.00  0.00    +0.000 Cl
ATOM     15  C   UNL     1       5.368   5.845  18.184  0.00  0.00    +0.000 A 
ATOM     16  C   UNL     1       4.435   4.790  18.222  0.00  0.00    +0.000 A 
ATOM     17  H   UNL     1       3.263   2.086  16.937  0.00  0.00    +0.000 HD
ENDROOT
BRANCH   2  18
ATOM     18  O   UNL     1       1.983   1.120  19.022  0.00  0.00    +0.000 OA
ATOM     19  H   UNL     1       2.884   1.062  18.662  0.00  0.00    +0.000 HD
ENDBRANCH   2  18
TORSDOF 1
ENDMDL
MODEL 5
REMARK VINA RESULT:      -7.2      4.107      5.556
REMARK  Name = 
REMARK  2 active torsions:
REMARK  status: ('A' for Active; 'I' for Inactive)
REMARK    1  A    between atoms: C_1  and  C_2
REMARK    2  A    between atoms: C_2  and  O_3
REMARK                            x       y       z     vdW  Elec       q    Type
REMARK                         _______ _______ _______ _____ _____    ______ ____
ROOT
ATOM      1  C   UNL     1       2.647   2.261  17.871  0.00  0.00    +0.000 C 
ATOM      2  C   UNL     1       3.638   3.109  18.667  0.00  0.00    +0.000 C 
ATOM      3  C   UNL     1       3.969   2.487  20.045  0.00  0.00    +0.000 C 
ATOM      4  C   UNL     1       2.794   2.604  21.036  0.00  0.00    +0.000 C 
ATOM      5  C   UNL     1       2.324   4.056  21.271  0.00  0.00    +0.000 C 
ATOM      6  C   UNL     1       2.491   4.917  20.061  0.00  0.00    +0.000 A 
ATOM      7  C   UNL     1       3.105   4.477  18.907  0.00  0.00    +0.000 A 
ATOM      8  N   UNL     1       3.181   5.523  18.029  0.00  0.00    +0.000 N 
ATOM      9  C   UNL     1       2.600   6.641  18.589  0.00  0.00    +0.000 A 
ATOM     10  C   UNL     1       2.453   7.935  18.072  0.00  0.00    +0.000 A 
ATOM     11  C   UNL     1       1.829   8.894  18.882  0.00  0.00    +0.000 A 
ATOM     12 CL   UNL     1       1.659  10.487  18.227  0.00  0.00    +0.000 Cl
ATOM     13  C   UNL     1       1.374   8.564  20.162  0.00  0.00    +0.000 A 
ATOM     14 CL   UNL     1       0.602   9.719  21.195  0.00  0.00    +0.000 Cl
ATOM     15  C   UNL     1       1.533   7.265  20.664  0.00  0.00    +0.000 A 
ATOM     16  C   UNL     1       2.155   6.285  19.865  0.00  0.00    +0.000 A 
ATOM     17  H   UNL     1       3.637   5.479  17.129  0.00  0.00    +0.000 HD
ENDROOT
BRANCH   2  18
ATOM     18  O   UNL     1       4.827   3.264  17.901  0.00  0.00    +0.000 OA
ATOM     19  H   UNL     1       5.320   2.429  17.970  0.00  0.00    +0.000 HD
ENDBRANCH   2  18
TORSDOF 1
ENDMDL
MODEL 6
REMARK VINA RESULT:      -6.9      3.920      4.018
REMARK  Name = 
REMARK  2 active torsions:
REMARK  status: ('A' for Active; 'I' for Inactive)
REMARK    1  A    between atoms: C_1  and  C_2
REMARK    2  A    between atoms: C_2  and  O_3
REMARK                            x       y       z     vdW  Elec       q    Type
REMARK                         _______ _______ _______ _____ _____    ______ ____
ROOT
ATOM      1  C   UNL     1       7.189   4.952  18.650  0.00  0.00    +0.000 C 
ATOM      2  C   UNL     1       5.842   4.514  18.078  0.00  0.00    +0.000 C 
ATOM      3  C   UNL     1       5.894   4.301  16.546  0.00  0.00    +0.000 C 
ATOM      4  C   UNL     1       5.994   5.632  15.774  0.00  0.00    +0.000 C 
ATOM      5  C   UNL     1       4.840   6.612  16.078  0.00  0.00    +0.000 C 
ATOM      6  C   UNL     1       4.336   6.490  17.480  0.00  0.00    +0.000 A 
ATOM      7  C   UNL     1       4.785   5.524  18.356  0.00  0.00    +0.000 A 
ATOM      8  N   UNL     1       4.066   5.621  19.516  0.00  0.00    +0.000 N 
ATOM      9  C   UNL     1       3.165   6.659  19.417  0.00  0.00    +0.000 A 
ATOM     10  C   UNL     1       2.221   7.124  20.342  0.00  0.00    +0.000 A 
ATOM     11  C   UNL     1       1.410   8.202  19.960  0.00  0.00    +0.000 A 
ATOM     12 CL   UNL     1       0.248   8.761  21.115  0.00  0.00    +0.000 Cl
ATOM     13  C   UNL     1       1.542   8.786  18.696  0.00  0.00    +0.000 A 
ATOM     14 CL   UNL     1       0.558  10.116  18.185  0.00  0.00    +0.000 Cl
ATOM     15  C   UNL     1       2.490   8.305  17.782  0.00  0.00    +0.000 A 
ATOM     16  C   UNL     1       3.317   7.224  18.147  0.00  0.00    +0.000 A 
ATOM     17  H   UNL     1       4.163   4.991  20.300  0.00  0.00    +0.000 HD
ENDROOT
BRANCH   2  18
ATOM     18  O   UNL     1       5.437   3.313  18.726  0.00  0.00    +0.000 OA
ATOM     19  H   UNL     1       6.247   2.818  18.938  0.00  0.00    +0.000 HD
ENDBRANCH   2  18
TORSDOF 1
ENDMDL
MODEL 7
REMARK VINA RESULT:      -6.7      4.368      5.246
REMARK  Name = 
REMARK  2 active torsions:
REMARK  status: ('A' for Active; 'I' for Inactive)
REMARK    1  A    between atoms: C_1  and  C_2
REMARK    2  A    between atoms: C_2  and  O_3
REMARK                            x       y       z     vdW  Elec       q    Type
REMARK                         _______ _______ _______ _____ _____    ______ ____
ROOT
ATOM      1  C   UNL     1       4.216   2.420  20.468  0.00  0.00    +0.000 C 
ATOM      2  C   UNL     1       2.890   2.697  19.761  0.00  0.00    +0.000 C 
ATOM      3  C   UNL     1       2.852   2.106  18.331  0.00  0.00    +0.000 C 
ATOM      4  C   UNL     1       3.748   2.890  17.351  0.00  0.00    +0.000 C 
ATOM      5  C   UNL     1       3.395   4.390  17.254  0.00  0.00    +0.000 C 
ATOM      6  C   UNL     1       2.875   4.943  18.542  0.00  0.00    +0.000 A 
ATOM      7  C   UNL     1       2.634   4.158  19.651  0.00  0.00    +0.000 A 
ATOM      8  N   UNL     1       2.079   4.942  20.626  0.00  0.00    +0.000 N 
ATOM      9  C   UNL     1       1.976   6.240  20.173  0.00  0.00    +0.000 A 
ATOM     10  C   UNL     1       1.466   7.378  20.811  0.00  0.00    +0.000 A 
ATOM     11  C   UNL     1       1.467   8.583  20.094  0.00  0.00    +0.000 A 
ATOM     12 CL   UNL     1       0.832   9.979  20.898  0.00  0.00    +0.000 Cl
ATOM     13  C   UNL     1       1.959   8.639  18.786  0.00  0.00    +0.000 A 
ATOM     14 CL   UNL     1       1.975  10.105  17.866  0.00  0.00    +0.000 Cl
ATOM     15  C   UNL     1       2.462   7.488  18.163  0.00  0.00    +0.000 A 
ATOM     16  C   UNL     1       2.472   6.268  18.867  0.00  0.00    +0.000 A 
ATOM     17  H   UNL     1       1.759   4.598  21.519  0.00  0.00    +0.000 HD
ENDROOT
BRANCH   2  18
ATOM     18  O   UNL     1       1.832   2.156  20.543  0.00  0.00    +0.000 OA
ATOM     19  H   UNL     1       1.425   1.446  20.018  0.00  0.00    +0.000 HD
ENDBRANCH   2  18
TORSDOF 1
ENDMDL
MODEL 8
REMARK VINA RESULT:      -6.6      4.720      4.941
REMARK  Name = 
REMARK  2 active torsions:
REMARK  status: ('A' for Active; 'I' for Inactive)
REMARK    1  A    between atoms: C_1  and  C_2
REMARK    2  A    between atoms: C_2  and  O_3
REMARK                            x       y       z     vdW  Elec       q    Type
REMARK                         _______ _______ _______ _____ _____    ______ ____
ROOT
ATOM      1  C   UNL     1       5.913   4.837  19.286  0.00  0.00    +0.000 C 
ATOM      2  C   UNL     1       4.536   4.650  18.652  0.00  0.00    +0.000 C 
ATOM      3  C   UNL     1       4.616   4.433  17.122  0.00  0.00    +0.000 C 
ATOM      4  C   UNL     1       4.988   5.725  16.368  0.00  0.00    +0.000 C 
ATOM      5  C   UNL     1       4.017   6.897  16.630  0.00  0.00    +0.000 C 
ATOM      6  C   UNL     1       3.438   6.866  18.008  0.00  0.00    +0.000 A 
ATOM      7  C   UNL     1       3.667   5.833  18.894  0.00  0.00    +0.000 A 
ATOM      8  N   UNL     1       2.927   6.057  20.022  0.00  0.00    +0.000 N 
ATOM      9  C   UNL     1       2.232   7.241  19.894  0.00  0.00    +0.000 A 
ATOM     10  C   UNL     1       1.347   7.867  20.781  0.00  0.00    +0.000 A 
ATOM     11  C   UNL     1       0.761   9.074  20.374  0.00  0.00    +0.000 A 
ATOM     12 CL   UNL     1      -0.331   9.833  21.483  0.00  0.00    +0.000 Cl
ATOM     13  C   UNL     1       1.052   9.627  19.123  0.00  0.00    +0.000 A 
ATOM     14 CL   UNL     1       0.348  11.112  18.581  0.00  0.00    +0.000 Cl
ATOM     15  C   UNL     1       1.937   8.983  18.246  0.00  0.00    +0.000 A 
ATOM     16  C   UNL     1       2.539   7.771  18.637  0.00  0.00    +0.000 A 
ATOM     17  H   UNL     1       2.873   5.420  20.804  0.00  0.00    +0.000 HD
ENDROOT
BRANCH   2  18
ATOM     18  O   UNL     1       3.894   3.541  19.271  0.00  0.00    +0.000 OA
ATOM     19  H   UNL     1       4.138   2.751  18.761  0.00  0.00    +0.000 HD
ENDBRANCH   2  18
TORSDOF 1
ENDMDL
MODEL 9
REMARK VINA RESULT:      -6.5      5.453      6.195
REMARK  Name = 
REMARK  2 active torsions:
REMARK  status: ('A' for Active; 'I' for Inactive)
REMARK    1  A    between atoms: C_1  and  C_2
REMARK    2  A    between atoms: C_2  and  O_3
REMARK                            x       y       z     vdW  Elec       q    Type
REMARK                         _______ _______ _______ _____ _____    ______ ____
ROOT
ATOM      1  C   UNL     1      -0.625   9.288  20.979  0.00  0.00    +0.000 C 
ATOM      2  C   UNL     1       0.889   9.481  20.912  0.00  0.00    +0.000 C 
ATOM      3  C   UNL     1       1.286  10.740  20.105  0.00  0.00    +0.000 C 
ATOM      4  C   UNL     1       1.059  10.558  18.590  0.00  0.00    +0.000 C 
ATOM      5  C   UNL     1       1.816   9.352  17.992  0.00  0.00    +0.000 C 
ATOM      6  C   UNL     1       1.957   8.224  18.961  0.00  0.00    +0.000 A 
ATOM      7  C   UNL     1       1.553   8.311  20.277  0.00  0.00    +0.000 A 
ATOM      8  N   UNL     1       1.903   7.154  20.917  0.00  0.00    +0.000 N 
ATOM      9  C   UNL     1       2.512   6.297  20.026  0.00  0.00    +0.000 A 
ATOM     10  C   UNL     1       3.041   5.015  20.225  0.00  0.00    +0.000 A 
ATOM     11  C   UNL     1       3.628   4.373  19.126  0.00  0.00    +0.000 A 
ATOM     12 CL   UNL     1       4.278   2.791  19.393  0.00  0.00    +0.000 Cl
ATOM     13  C   UNL     1       3.684   4.999  17.876  0.00  0.00    +0.000 A 
ATOM     14 CL   UNL     1       4.403   4.242  16.495  0.00  0.00    +0.000 Cl
ATOM     15  C   UNL     1       3.153   6.284  17.696  0.00  0.00    +0.000 A 
ATOM     16  C   UNL     1       2.555   6.945  18.787  0.00  0.00    +0.000 A 
ATOM     17  H   UNL     1       1.768   6.986  21.904  0.00  0.00    +0.000 HD
ENDROOT
BRANCH   2  18
ATOM     18  O   UNL     1       1.398   9.568  22.237  0.00  0.00    +0.000 OA
ATOM     19  H   UNL     1       1.615   8.663  22.519  0.00  0.00    +0.000 HD
ENDBRANCH   2  18
TORSDOF 1
ENDMDL
