MODEL 1
REMARK VINA RESULT:      -7.4      0.000      0.000
REMARK  Name = 
REMARK  15 active torsions:
REMARK  status: ('A' for Active; 'I' for Inactive)
REMARK    1  A    between atoms: C_1  and  C_2
REMARK    2  A    between atoms: C_2  and  O_4
REMARK    3  A    between atoms: O_4  and  C_5
REMARK    4  A    between atoms: C_6  and  C_7
REMARK    5  A    between atoms: C_12  and  O_13
REMARK    6  A    between atoms: O_13  and  C_14
REMARK    7  A    between atoms: C_14  and  C_16
REMARK    8  A    between atoms: C_16  and  C_17
REMARK    9  A    between atoms: C_17  and  C_18
REMARK   10  A    between atoms: C_24  and  C_25
REMARK   11  A    between atoms: C_25  and  O_26
REMARK   12  A    between atoms: C_28  and  O_29
REMARK   13  A    between atoms: C_30  and  C_31
REMARK   14  A    between atoms: C_30  and  C_32
REMARK   15  A    between atoms: C_32  and  O_33
REMARK                            x       y       z     vdW  Elec       q    Type
REMARK                         _______ _______ _______ _____ _____    ______ ____
ROOT
ATOM      1  C   UNL     1       5.452   4.998  15.405  0.00  0.00    +0.000 C 
ATOM      2  C   UNL     1       4.893   4.018  16.457  0.00  0.00    +0.000 C 
ATOM      3  C   UNL     1       5.789   3.659  17.590  0.00  0.00    +0.000 C 
ATOM      4  C   UNL     1       3.584   3.703  16.347  0.00  0.00    +0.000 C 
ATOM      5  C   UNL     1       2.535   3.071  17.145  0.00  0.00    +0.000 C 
ATOM      6  C   UNL     1       1.773   4.246  17.869  0.00  0.00    +0.000 C 
ATOM      7  C   UNL     1       1.928   5.335  18.905  0.00  0.00    +0.000 C 
ATOM      8  C   UNL     1       2.364   6.753  18.508  0.00  0.00    +0.000 C 
ATOM      9  C   UNL     1       3.833   6.766  18.035  0.00  0.00    +0.000 C 
ATOM     10  C   UNL     1       4.063   6.768  16.700  0.00  0.00    +0.000 C 
ATOM     11  C   UNL     1       5.306   6.513  15.851  0.00  0.00    +0.000 C 
ATOM     12  C   UNL     1       2.007   2.898  18.522  0.00  0.00    +0.000 C 
ATOM     13  C   UNL     1       0.651   2.274  18.810  0.00  0.00    +0.000 C 
ENDROOT
BRANCH  11  14
ATOM     14  O   UNL     1       6.479   7.012  16.473  0.00  0.00    +0.000 OA
ATOM     15  H   UNL     1       6.878   6.233  16.909  0.00  0.00    +0.000 HD
ENDBRANCH  11  14
BRANCH   1  16
ATOM     16  O   UNL     1       6.817   4.662  15.112  0.00  0.00    +0.000 OA
BRANCH  16  18
ATOM     17  C   UNL     1       6.461   3.855  12.941  0.00  0.00    +0.000 C 
ATOM     18  C   UNL     1       7.214   4.811  13.820  0.00  0.00    +0.000 C 
ATOM     19  O   UNL     1       8.055   5.599  13.409  0.00  0.00    +0.000 OA
ENDBRANCH  16  18
ENDBRANCH   1  16
BRANCH   8  20
ATOM     20  O   UNL     1       2.336   7.615  19.687  0.00  0.00    +0.000 OA
BRANCH  20  21
ATOM     21  C   UNL     1       1.402   8.588  19.832  0.00  0.00    +0.000 C 
ATOM     22  O   UNL     1       0.826   8.860  20.876  0.00  0.00    +0.000 OA
BRANCH  21  23
ATOM     23  C   UNL     1       1.243   9.383  18.550  0.00  0.00    +0.000 C 
BRANCH  23  24
ATOM     24  C   UNL     1       0.549  10.723  18.784  0.00  0.00    +0.000 C 
BRANCH  24  25
ATOM     25  C   UNL     1      -0.903  10.715  18.384  0.00  0.00    +0.000 A 
ATOM     26  C   UNL     1      -1.809  11.615  18.963  0.00  0.00    +0.000 A 
ATOM     27  C   UNL     1      -3.148  11.625  18.568  0.00  0.00    +0.000 A 
ATOM     28  C   UNL     1      -3.597  10.733  17.596  0.00  0.00    +0.000 A 
ATOM     29  C   UNL     1      -2.707   9.826  17.023  0.00  0.00    +0.000 A 
ATOM     30  C   UNL     1      -1.368   9.814  17.417  0.00  0.00    +0.000 A 
ENDBRANCH  24  25
ENDBRANCH  23  24
ENDBRANCH  21  23
ENDBRANCH  20  21
ENDBRANCH   8  20
BRANCH   9  31
ATOM     31  C   UNL     1       4.803   6.645  19.201  0.00  0.00    +0.000 C 
BRANCH  31  32
ATOM     32  O   UNL     1       4.620   5.508  20.015  0.00  0.00    +0.000 OA
ATOM     33  H   UNL     1       5.432   5.430  20.544  0.00  0.00    +0.000 HD
ENDBRANCH  31  32
ENDBRANCH   9  31
BRANCH  12  34
ATOM     34  C   UNL     1       3.036   2.585  19.600  0.00  0.00    +0.000 C 
BRANCH  34  35
ATOM     35  O   UNL     1       2.431   2.615  20.890  0.00  0.00    +0.000 OA
ATOM     36  H   UNL     1       2.066   3.513  21.001  0.00  0.00    +0.000 HD
ENDBRANCH  34  35
ENDBRANCH  12  34
TORSDOF 12
ENDMDL
MODEL 2
REMARK VINA RESULT:      -7.1      2.004      2.411
REMARK  Name = 
REMARK  15 active torsions:
REMARK  status: ('A' for Active; 'I' for Inactive)
REMARK    1  A    between atoms: C_1  and  C_2
REMARK    2  A    between atoms: C_2  and  O_4
REMARK    3  A    between atoms: O_4  and  C_5
REMARK    4  A    between atoms: C_6  and  C_7
REMARK    5  A    between atoms: C_12  and  O_13
REMARK    6  A    between atoms: O_13  and  C_14
REMARK    7  A    between atoms: C_14  and  C_16
REMARK    8  A    between atoms: C_16  and  C_17
REMARK    9  A    between atoms: C_17  and  C_18
REMARK   10  A    between atoms: C_24  and  C_25
REMARK   11  A    between atoms: C_25  and  O_26
REMARK   12  A    between atoms: C_28  and  O_29
REMARK   13  A    between atoms: C_30  and  C_31
REMARK   14  A    between atoms: C_30  and  C_32
REMARK   15  A    between atoms: C_32  and  O_33
REMARK                            x       y       z     vdW  Elec       q    Type
REMARK                         _______ _______ _______ _____ _____    ______ ____
ROOT
ATOM      1  C   UNL     1       5.437   5.049  15.329  0.00  0.00    +0.000 C 
ATOM      2  C   UNL     1       4.926   4.016  16.354  0.00  0.00    +0.000 C 
ATOM      3  C   UNL     1       5.863   3.623  17.441  0.00  0.00    +0.000 C 
ATOM      4  C   UNL     1       3.619   3.686  16.273  0.00  0.00    +0.000 C 
ATOM      5  C   UNL     1       2.605   3.005  17.076  0.00  0.00    +0.000 C 
ATOM      6  C   UNL     1       1.851   4.136  17.873  0.00  0.00    +0.000 C 
ATOM      7  C   UNL     1       2.024   5.182  18.949  0.00  0.00    +0.000 C 
ATOM      8  C   UNL     1       2.427   6.623  18.601  0.00  0.00    +0.000 C 
ATOM      9  C   UNL     1       3.880   6.678  18.083  0.00  0.00    +0.000 C 
ATOM     10  C   UNL     1       4.066   6.740  16.742  0.00  0.00    +0.000 C 
ATOM     11  C   UNL     1       5.284   6.541  15.844  0.00  0.00    +0.000 C 
ATOM     12  C   UNL     1       2.124   2.765  18.459  0.00  0.00    +0.000 C 
ATOM     13  C   UNL     1       0.787   2.109  18.764  0.00  0.00    +0.000 C 
ENDROOT
BRANCH  11  14
ATOM     14  O   UNL     1       6.470   7.031  16.449  0.00  0.00    +0.000 OA
ATOM     15  H   UNL     1       6.400   6.758  17.386  0.00  0.00    +0.000 HD
ENDBRANCH  11  14
BRANCH   1  16
ATOM     16  O   UNL     1       6.797   4.746  14.978  0.00  0.00    +0.000 OA
BRANCH  16  18
ATOM     17  C   UNL     1       6.317   3.812  12.883  0.00  0.00    +0.000 C 
ATOM     18  C   UNL     1       7.113   4.822  13.657  0.00  0.00    +0.000 C 
ATOM     19  O   UNL     1       7.921   5.589  13.151  0.00  0.00    +0.000 OA
ENDBRANCH  16  18
ENDBRANCH   1  16
BRANCH   8  20
ATOM     20  O   UNL     1       2.425   7.433  19.816  0.00  0.00    +0.000 OA
BRANCH  20  21
ATOM     21  C   UNL     1       1.586   8.487  19.964  0.00  0.00    +0.000 C 
ATOM     22  O   UNL     1       1.097   9.131  19.046  0.00  0.00    +0.000 OA
BRANCH  21  23
ATOM     23  C   UNL     1       1.233   8.700  21.424  0.00  0.00    +0.000 C 
BRANCH  23  24
ATOM     24  C   UNL     1      -0.230   9.096  21.612  0.00  0.00    +0.000 C 
BRANCH  24  25
ATOM     25  C   UNL     1      -0.410  10.557  21.938  0.00  0.00    +0.000 A 
ATOM     26  C   UNL     1       0.266  11.541  21.206  0.00  0.00    +0.000 A 
ATOM     27  C   UNL     1       0.074  12.894  21.491  0.00  0.00    +0.000 A 
ATOM     28  C   UNL     1      -0.791  13.277  22.515  0.00  0.00    +0.000 A 
ATOM     29  C   UNL     1      -1.459  12.305  23.258  0.00  0.00    +0.000 A 
ATOM     30  C   UNL     1      -1.268  10.952  22.974  0.00  0.00    +0.000 A 
ENDBRANCH  24  25
ENDBRANCH  23  24
ENDBRANCH  21  23
ENDBRANCH  20  21
ENDBRANCH   8  20
BRANCH   9  31
ATOM     31  C   UNL     1       4.888   6.522  19.211  0.00  0.00    +0.000 C 
BRANCH  31  32
ATOM     32  O   UNL     1       4.702   5.387  20.026  0.00  0.00    +0.000 OA
ATOM     33  H   UNL     1       5.301   5.506  20.783  0.00  0.00    +0.000 HD
ENDBRANCH  31  32
ENDBRANCH   9  31
BRANCH  12  34
ATOM     34  C   UNL     1       3.192   2.422  19.490  0.00  0.00    +0.000 C 
BRANCH  34  35
ATOM     35  O   UNL     1       4.025   1.368  19.014  0.00  0.00    +0.000 OA
ATOM     36  H   UNL     1       4.943   1.691  19.085  0.00  0.00    +0.000 HD
ENDBRANCH  34  35
ENDBRANCH  12  34
TORSDOF 12
ENDMDL
MODEL 3
REMARK VINA RESULT:      -7.0      1.241      1.931
REMARK  Name = 
REMARK  15 active torsions:
REMARK  status: ('A' for Active; 'I' for Inactive)
REMARK    1  A    between atoms: C_1  and  C_2
REMARK    2  A    between atoms: C_2  and  O_4
REMARK    3  A    between atoms: O_4  and  C_5
REMARK    4  A    between atoms: C_6  and  C_7
REMARK    5  A    between atoms: C_12  and  O_13
REMARK    6  A    between atoms: O_13  and  C_14
REMARK    7  A    between atoms: C_14  and  C_16
REMARK    8  A    between atoms: C_16  and  C_17
REMARK    9  A    between atoms: C_17  and  C_18
REMARK   10  A    between atoms: C_24  and  C_25
REMARK   11  A    between atoms: C_25  and  O_26
REMARK   12  A    between atoms: C_28  and  O_29
REMARK   13  A    between atoms: C_30  and  C_31
REMARK   14  A    between atoms: C_30  and  C_32
REMARK   15  A    between atoms: C_32  and  O_33
REMARK                            x       y       z     vdW  Elec       q    Type
REMARK                         _______ _______ _______ _____ _____    ______ ____
ROOT
ATOM      1  C   UNL     1       5.469   5.049  15.298  0.00  0.00    +0.000 C 
ATOM      2  C   UNL     1       4.948   4.026  16.328  0.00  0.00    +0.000 C 
ATOM      3  C   UNL     1       5.878   3.639  17.424  0.00  0.00    +0.000 C 
ATOM      4  C   UNL     1       3.641   3.699  16.242  0.00  0.00    +0.000 C 
ATOM      5  C   UNL     1       2.620   3.028  17.044  0.00  0.00    +0.000 C 
ATOM      6  C   UNL     1       1.864   4.167  17.829  0.00  0.00    +0.000 C 
ATOM      7  C   UNL     1       2.035   5.222  18.897  0.00  0.00    +0.000 C 
ATOM      8  C   UNL     1       2.444   6.658  18.540  0.00  0.00    +0.000 C 
ATOM      9  C   UNL     1       3.900   6.705  18.030  0.00  0.00    +0.000 C 
ATOM     10  C   UNL     1       4.095   6.756  16.690  0.00  0.00    +0.000 C 
ATOM     11  C   UNL     1       5.317   6.545  15.800  0.00  0.00    +0.000 C 
ATOM     12  C   UNL     1       2.130   2.800  18.427  0.00  0.00    +0.000 C 
ATOM     13  C   UNL     1       0.789   2.151  18.729  0.00  0.00    +0.000 C 
ENDROOT
BRANCH  11  14
ATOM     14  O   UNL     1       6.501   7.037  16.409  0.00  0.00    +0.000 OA
ATOM     15  H   UNL     1       6.367   8.004  16.463  0.00  0.00    +0.000 HD
ENDBRANCH  11  14
BRANCH   1  16
ATOM     16  O   UNL     1       6.829   4.739  14.958  0.00  0.00    +0.000 OA
BRANCH  16  18
ATOM     17  C   UNL     1       6.381   3.765  12.873  0.00  0.00    +0.000 C 
ATOM     18  C   UNL     1       7.153   4.802  13.638  0.00  0.00    +0.000 C 
ATOM     19  O   UNL     1       7.949   5.576  13.126  0.00  0.00    +0.000 OA
ENDBRANCH  16  18
ENDBRANCH   1  16
BRANCH   8  20
ATOM     20  O   UNL     1       2.438   7.478  19.749  0.00  0.00    +0.000 OA
BRANCH  20  21
ATOM     21  C   UNL     1       1.496   8.430  19.954  0.00  0.00    +0.000 C 
ATOM     22  O   UNL     1       0.909   8.623  21.010  0.00  0.00    +0.000 OA
BRANCH  21  23
ATOM     23  C   UNL     1       1.341   9.313  18.730  0.00  0.00    +0.000 C 
BRANCH  23  24
ATOM     24  C   UNL     1       0.116  10.222  18.825  0.00  0.00    +0.000 C 
BRANCH  24  25
ATOM     25  C   UNL     1       0.462  11.687  18.778  0.00  0.00    +0.000 A 
ATOM     26  C   UNL     1      -0.544  12.656  18.669  0.00  0.00    +0.000 A 
ATOM     27  C   UNL     1      -0.222  14.014  18.656  0.00  0.00    +0.000 A 
ATOM     28  C   UNL     1       1.109  14.418  18.745  0.00  0.00    +0.000 A 
ATOM     29  C   UNL     1       2.119  13.463  18.841  0.00  0.00    +0.000 A 
ATOM     30  C   UNL     1       1.798  12.104  18.854  0.00  0.00    +0.000 A 
ENDBRANCH  24  25
ENDBRANCH  23  24
ENDBRANCH  21  23
ENDBRANCH  20  21
ENDBRANCH   8  20
BRANCH   9  31
ATOM     31  C   UNL     1       4.902   6.555  19.165  0.00  0.00    +0.000 C 
BRANCH  31  32
ATOM     32  O   UNL     1       4.690   5.442  20.006  0.00  0.00    +0.000 OA
ATOM     33  H   UNL     1       4.556   5.808  20.897  0.00  0.00    +0.000 HD
ENDBRANCH  31  32
ENDBRANCH   9  31
BRANCH  12  34
ATOM     34  C   UNL     1       3.191   2.462  19.467  0.00  0.00    +0.000 C 
BRANCH  34  35
ATOM     35  O   UNL     1       4.044   1.425  18.990  0.00  0.00    +0.000 OA
ATOM     36  H   UNL     1       4.407   1.739  18.140  0.00  0.00    +0.000 HD
ENDBRANCH  34  35
ENDBRANCH  12  34
TORSDOF 12
ENDMDL
MODEL 4
REMARK VINA RESULT:      -7.0      1.550      2.020
REMARK  Name = 
REMARK  15 active torsions:
REMARK  status: ('A' for Active; 'I' for Inactive)
REMARK    1  A    between atoms: C_1  and  C_2
REMARK    2  A    between atoms: C_2  and  O_4
REMARK    3  A    between atoms: O_4  and  C_5
REMARK    4  A    between atoms: C_6  and  C_7
REMARK    5  A    between atoms: C_12  and  O_13
REMARK    6  A    between atoms: O_13  and  C_14
REMARK    7  A    between atoms: C_14  and  C_16
REMARK    8  A    between atoms: C_16  and  C_17
REMARK    9  A    between atoms: C_17  and  C_18
REMARK   10  A    between atoms: C_24  and  C_25
REMARK   11  A    between atoms: C_25  and  O_26
REMARK   12  A    between atoms: C_28  and  O_29
REMARK   13  A    between atoms: C_30  and  C_31
REMARK   14  A    between atoms: C_30  and  C_32
REMARK   15  A    between atoms: C_32  and  O_33
REMARK                            x       y       z     vdW  Elec       q    Type
REMARK                         _______ _______ _______ _____ _____    ______ ____
ROOT
ATOM      1  C   UNL     1       5.407   4.981  15.474  0.00  0.00    +0.000 C 
ATOM      2  C   UNL     1       4.856   3.984  16.514  0.00  0.00    +0.000 C 
ATOM      3  C   UNL     1       5.754   3.621  17.644  0.00  0.00    +0.000 C 
ATOM      4  C   UNL     1       3.550   3.659  16.401  0.00  0.00    +0.000 C 
ATOM      5  C   UNL     1       2.506   3.010  17.191  0.00  0.00    +0.000 C 
ATOM      6  C   UNL     1       1.733   4.170  17.927  0.00  0.00    +0.000 C 
ATOM      7  C   UNL     1       1.879   5.249  18.975  0.00  0.00    +0.000 C 
ATOM      8  C   UNL     1       2.303   6.676  18.594  0.00  0.00    +0.000 C 
ATOM      9  C   UNL     1       3.772   6.706  18.123  0.00  0.00    +0.000 C 
ATOM     10  C   UNL     1       4.002   6.725  16.787  0.00  0.00    +0.000 C 
ATOM     11  C   UNL     1       5.248   6.489  15.936  0.00  0.00    +0.000 C 
ATOM     12  C   UNL     1       1.978   2.817  18.565  0.00  0.00    +0.000 C 
ATOM     13  C   UNL     1       0.628   2.179  18.846  0.00  0.00    +0.000 C 
ENDROOT
BRANCH  11  14
ATOM     14  O   UNL     1       6.416   6.992  16.565  0.00  0.00    +0.000 OA
ATOM     15  H   UNL     1       6.821   7.581  15.897  0.00  0.00    +0.000 HD
ENDBRANCH  11  14
BRANCH   1  16
ATOM     16  O   UNL     1       6.775   4.659  15.178  0.00  0.00    +0.000 OA
BRANCH  16  18
ATOM     17  C   UNL     1       6.364   3.852  13.016  0.00  0.00    +0.000 C 
ATOM     18  C   UNL     1       7.161   4.787  13.880  0.00  0.00    +0.000 C 
ATOM     19  O   UNL     1       8.023   5.543  13.454  0.00  0.00    +0.000 OA
ENDBRANCH  16  18
ENDBRANCH   1  16
BRANCH   8  20
ATOM     20  O   UNL     1       2.267   7.524  19.783  0.00  0.00    +0.000 OA
BRANCH  20  21
ATOM     21  C   UNL     1       1.483   8.629  19.841  0.00  0.00    +0.000 C 
ATOM     22  O   UNL     1       1.505   9.551  19.038  0.00  0.00    +0.000 OA
BRANCH  21  23
ATOM     23  C   UNL     1       0.481   8.524  20.976  0.00  0.00    +0.000 C 
BRANCH  23  24
ATOM     24  C   UNL     1       0.649   9.645  21.999  0.00  0.00    +0.000 C 
BRANCH  24  25
ATOM     25  C   UNL     1      -0.487  10.635  21.984  0.00  0.00    +0.000 A 
ATOM     26  C   UNL     1      -1.201  10.923  23.155  0.00  0.00    +0.000 A 
ATOM     27  C   UNL     1      -2.233  11.863  23.144  0.00  0.00    +0.000 A 
ATOM     28  C   UNL     1      -2.566  12.520  21.961  0.00  0.00    +0.000 A 
ATOM     29  C   UNL     1      -1.871  12.233  20.788  0.00  0.00    +0.000 A 
ATOM     30  C   UNL     1      -0.839  11.293  20.797  0.00  0.00    +0.000 A 
ENDBRANCH  24  25
ENDBRANCH  23  24
ENDBRANCH  21  23
ENDBRANCH  20  21
ENDBRANCH   8  20
BRANCH   9  31
ATOM     31  C   UNL     1       4.742   6.581  19.287  0.00  0.00    +0.000 C 
BRANCH  31  32
ATOM     32  O   UNL     1       4.560   5.439  20.096  0.00  0.00    +0.000 OA
ATOM     33  H   UNL     1       5.454   5.103  20.280  0.00  0.00    +0.000 HD
ENDBRANCH  31  32
ENDBRANCH   9  31
BRANCH  12  34
ATOM     34  C   UNL     1       3.010   2.501  19.641  0.00  0.00    +0.000 C 
BRANCH  34  35
ATOM     35  O   UNL     1       2.573   2.985  20.908  0.00  0.00    +0.000 OA
ATOM     36  H   UNL     1       2.591   3.959  20.851  0.00  0.00    +0.000 HD
ENDBRANCH  34  35
ENDBRANCH  12  34
TORSDOF 12
ENDMDL
MODEL 5
REMARK VINA RESULT:      -6.8      3.270      9.354
REMARK  Name = 
REMARK  15 active torsions:
REMARK  status: ('A' for Active; 'I' for Inactive)
REMARK    1  A    between atoms: C_1  and  C_2
REMARK    2  A    between atoms: C_2  and  O_4
REMARK    3  A    between atoms: O_4  and  C_5
REMARK    4  A    between atoms: C_6  and  C_7
REMARK    5  A    between atoms: C_12  and  O_13
REMARK    6  A    between atoms: O_13  and  C_14
REMARK    7  A    between atoms: C_14  and  C_16
REMARK    8  A    between atoms: C_16  and  C_17
REMARK    9  A    between atoms: C_17  and  C_18
REMARK   10  A    between atoms: C_24  and  C_25
REMARK   11  A    between atoms: C_25  and  O_26
REMARK   12  A    between atoms: C_28  and  O_29
REMARK   13  A    between atoms: C_30  and  C_31
REMARK   14  A    between atoms: C_30  and  C_32
REMARK   15  A    between atoms: C_32  and  O_33
REMARK                            x       y       z     vdW  Elec       q    Type
REMARK                         _______ _______ _______ _____ _____    ______ ____
ROOT
ATOM      1  C   UNL     1       0.326  13.584  21.020  0.00  0.00    +0.000 C 
ATOM      2  C   UNL     1      -0.628  13.279  19.846  0.00  0.00    +0.000 C 
ATOM      3  C   UNL     1      -0.451  14.084  18.606  0.00  0.00    +0.000 C 
ATOM      4  C   UNL     1      -1.425  12.198  19.985  0.00  0.00    +0.000 C 
ATOM      5  C   UNL     1      -2.281  11.349  19.158  0.00  0.00    +0.000 C 
ATOM      6  C   UNL     1      -1.388  10.127  18.720  0.00  0.00    +0.000 C 
ATOM      7  C   UNL     1      -0.181   9.741  17.897  0.00  0.00    +0.000 C 
ATOM      8  C   UNL     1       1.222   9.687  18.519  0.00  0.00    +0.000 C 
ATOM      9  C   UNL     1       1.718  11.102  18.883  0.00  0.00    +0.000 C 
ATOM     10  C   UNL     1       1.610  11.492  20.177  0.00  0.00    +0.000 C 
ATOM     11  C   UNL     1       1.721  12.845  20.875  0.00  0.00    +0.000 C 
ATOM     12  C   UNL     1      -2.436  10.740  17.813  0.00  0.00    +0.000 C 
ATOM     13  C   UNL     1      -3.475   9.673  17.508  0.00  0.00    +0.000 C 
ENDROOT
BRANCH  11  14
ATOM     14  O   UNL     1       2.711  13.666  20.277  0.00  0.00    +0.000 OA
ATOM     15  H   UNL     1       2.857  13.272  19.394  0.00  0.00    +0.000 HD
ENDBRANCH  11  14
BRANCH   1  16
ATOM     16  O   UNL     1       0.489  15.004  21.150  0.00  0.00    +0.000 OA
BRANCH  16  18
ATOM     17  C   UNL     1      -1.022  15.588  22.845  0.00  0.00    +0.000 C 
ATOM     18  C   UNL     1       0.414  15.510  22.411  0.00  0.00    +0.000 C 
ATOM     19  O   UNL     1       1.357  15.856  23.107  0.00  0.00    +0.000 OA
ENDBRANCH  16  18
ENDBRANCH   1  16
BRANCH   8  20
ATOM     20  O   UNL     1       2.173   9.194  17.526  0.00  0.00    +0.000 OA
BRANCH  20  21
ATOM     21  C   UNL     1       2.953   8.111  17.767  0.00  0.00    +0.000 C 
ATOM     22  O   UNL     1       4.089   7.954  17.343  0.00  0.00    +0.000 OA
BRANCH  21  23
ATOM     23  C   UNL     1       2.275   7.159  18.734  0.00  0.00    +0.000 C 
BRANCH  23  24
ATOM     24  C   UNL     1       2.075   5.769  18.132  0.00  0.00    +0.000 C 
BRANCH  24  25
ATOM     25  C   UNL     1       1.857   4.700  19.172  0.00  0.00    +0.000 A 
ATOM     26  C   UNL     1       1.274   3.474  18.825  0.00  0.00    +0.000 A 
ATOM     27  C   UNL     1       1.101   2.475  19.784  0.00  0.00    +0.000 A 
ATOM     28  C   UNL     1       1.503   2.693  21.100  0.00  0.00    +0.000 A 
ATOM     29  C   UNL     1       2.072   3.913  21.459  0.00  0.00    +0.000 A 
ATOM     30  C   UNL     1       2.246   4.914  20.501  0.00  0.00    +0.000 A 
ENDBRANCH  24  25
ENDBRANCH  23  24
ENDBRANCH  21  23
ENDBRANCH  20  21
ENDBRANCH   8  20
BRANCH   9  31
ATOM     31  C   UNL     1       2.145  11.886  17.651  0.00  0.00    +0.000 C 
BRANCH  31  32
ATOM     32  O   UNL     1       3.297  12.682  17.818  0.00  0.00    +0.000 OA
ATOM     33  H   UNL     1       2.971  13.576  18.018  0.00  0.00    +0.000 HD
ENDBRANCH  31  32
ENDBRANCH   9  31
BRANCH  12  34
ATOM     34  C   UNL     1      -2.176  11.659  16.627  0.00  0.00    +0.000 C 
BRANCH  34  35
ATOM     35  O   UNL     1      -2.978  11.275  15.513  0.00  0.00    +0.000 OA
ATOM     36  H   UNL     1      -3.716  11.912  15.475  0.00  0.00    +0.000 HD
ENDBRANCH  34  35
ENDBRANCH  12  34
TORSDOF 12
ENDMDL
MODEL 6
REMARK VINA RESULT:      -6.8      3.233      9.373
REMARK  Name = 
REMARK  15 active torsions:
REMARK  status: ('A' for Active; 'I' for Inactive)
REMARK    1  A    between atoms: C_1  and  C_2
REMARK    2  A    between atoms: C_2  and  O_4
REMARK    3  A    between atoms: O_4  and  C_5
REMARK    4  A    between atoms: C_6  and  C_7
REMARK    5  A    between atoms: C_12  and  O_13
REMARK    6  A    between atoms: O_13  and  C_14
REMARK    7  A    between atoms: C_14  and  C_16
REMARK    8  A    between atoms: C_16  and  C_17
REMARK    9  A    between atoms: C_17  and  C_18
REMARK   10  A    between atoms: C_24  and  C_25
REMARK   11  A    between atoms: C_25  and  O_26
REMARK   12  A    between atoms: C_28  and  O_29
REMARK   13  A    between atoms: C_30  and  C_31
REMARK   14  A    between atoms: C_30  and  C_32
REMARK   15  A    between atoms: C_32  and  O_33
REMARK                            x       y       z     vdW  Elec       q    Type
REMARK                         _______ _______ _______ _____ _____    ______ ____
ROOT
ATOM      1  C   UNL     1       0.244  13.769  20.964  0.00  0.00    +0.000 C 
ATOM      2  C   UNL     1      -0.694  13.445  19.783  0.00  0.00    +0.000 C 
ATOM      3  C   UNL     1      -0.477  14.203  18.520  0.00  0.00    +0.000 C 
ATOM      4  C   UNL     1      -1.519  12.388  19.944  0.00  0.00    +0.000 C 
ATOM      5  C   UNL     1      -2.379  11.530  19.130  0.00  0.00    +0.000 C 
ATOM      6  C   UNL     1      -1.506  10.274  18.752  0.00  0.00    +0.000 C 
ATOM      7  C   UNL     1      -0.293   9.832  17.966  0.00  0.00    +0.000 C 
ATOM      8  C   UNL     1       1.096   9.768  18.616  0.00  0.00    +0.000 C 
ATOM      9  C   UNL     1       1.618  11.184  18.941  0.00  0.00    +0.000 C 
ATOM     10  C   UNL     1       1.496  11.621  20.218  0.00  0.00    +0.000 C 
ATOM     11  C   UNL     1       1.624  12.995  20.871  0.00  0.00    +0.000 C 
ATOM     12  C   UNL     1      -2.523  10.878  17.805  0.00  0.00    +0.000 C 
ATOM     13  C   UNL     1      -3.581   9.825  17.517  0.00  0.00    +0.000 C 
ENDROOT
BRANCH  11  14
ATOM     14  O   UNL     1       2.644  13.772  20.264  0.00  0.00    +0.000 OA
ATOM     15  H   UNL     1       2.569  14.650  20.688  0.00  0.00    +0.000 HD
ENDBRANCH  11  14
BRANCH   1  16
ATOM     16  O   UNL     1       0.438  15.190  21.048  0.00  0.00    +0.000 OA
BRANCH  16  18
ATOM     17  C   UNL     1      -0.955  17.073  21.133  0.00  0.00    +0.000 C 
ATOM     18  C   UNL     1      -0.418  15.871  21.856  0.00  0.00    +0.000 C 
ATOM     19  O   UNL     1      -0.723  15.571  23.002  0.00  0.00    +0.000 OA
ENDBRANCH  16  18
ENDBRANCH   1  16
BRANCH   8  20
ATOM     20  O   UNL     1       2.054   9.220  17.659  0.00  0.00    +0.000 OA
BRANCH  20  21
ATOM     21  C   UNL     1       2.775   8.106  17.937  0.00  0.00    +0.000 C 
ATOM     22  O   UNL     1       3.716   7.694  17.272  0.00  0.00    +0.000 OA
BRANCH  21  23
ATOM     23  C   UNL     1       2.340   7.492  19.254  0.00  0.00    +0.000 C 
BRANCH  23  24
ATOM     24  C   UNL     1       3.125   6.225  19.588  0.00  0.00    +0.000 C 
BRANCH  24  25
ATOM     25  C   UNL     1       2.326   4.964  19.386  0.00  0.00    +0.000 A 
ATOM     26  C   UNL     1       1.520   4.457  20.414  0.00  0.00    +0.000 A 
ATOM     27  C   UNL     1       0.757   3.305  20.214  0.00  0.00    +0.000 A 
ATOM     28  C   UNL     1       0.798   2.644  18.987  0.00  0.00    +0.000 A 
ATOM     29  C   UNL     1       1.606   3.133  17.962  0.00  0.00    +0.000 A 
ATOM     30  C   UNL     1       2.369   4.284  18.161  0.00  0.00    +0.000 A 
ENDBRANCH  24  25
ENDBRANCH  23  24
ENDBRANCH  21  23
ENDBRANCH  20  21
ENDBRANCH   8  20
BRANCH   9  31
ATOM     31  C   UNL     1       2.085  11.914  17.691  0.00  0.00    +0.000 C 
BRANCH  31  32
ATOM     32  O   UNL     1       3.285  12.642  17.836  0.00  0.00    +0.000 OA
ATOM     33  H   UNL     1       3.518  12.945  16.942  0.00  0.00    +0.000 HD
ENDBRANCH  31  32
ENDBRANCH   9  31
BRANCH  12  34
ATOM     34  C   UNL     1      -2.220  11.749  16.592  0.00  0.00    +0.000 C 
BRANCH  34  35
ATOM     35  O   UNL     1      -2.509  11.045  15.388  0.00  0.00    +0.000 OA
ATOM     36  H   UNL     1      -3.065  11.639  14.850  0.00  0.00    +0.000 HD
ENDBRANCH  34  35
ENDBRANCH  12  34
TORSDOF 12
ENDMDL
MODEL 7
REMARK VINA RESULT:      -6.6      3.747     10.561
REMARK  Name = 
REMARK  15 active torsions:
REMARK  status: ('A' for Active; 'I' for Inactive)
REMARK    1  A    between atoms: C_1  and  C_2
REMARK    2  A    between atoms: C_2  and  O_4
REMARK    3  A    between atoms: O_4  and  C_5
REMARK    4  A    between atoms: C_6  and  C_7
REMARK    5  A    between atoms: C_12  and  O_13
REMARK    6  A    between atoms: O_13  and  C_14
REMARK    7  A    between atoms: C_14  and  C_16
REMARK    8  A    between atoms: C_16  and  C_17
REMARK    9  A    between atoms: C_17  and  C_18
REMARK   10  A    between atoms: C_24  and  C_25
REMARK   11  A    between atoms: C_25  and  O_26
REMARK   12  A    between atoms: C_28  and  O_29
REMARK   13  A    between atoms: C_30  and  C_31
REMARK   14  A    between atoms: C_30  and  C_32
REMARK   15  A    between atoms: C_32  and  O_33
REMARK                            x       y       z     vdW  Elec       q    Type
REMARK                         _______ _______ _______ _____ _____    ______ ____
ROOT
ATOM      1  C   UNL     1      -2.381  14.218  20.518  0.00  0.00    +0.000 C 
ATOM      2  C   UNL     1      -0.882  14.579  20.567  0.00  0.00    +0.000 C 
ATOM      3  C   UNL     1      -0.217  14.527  21.898  0.00  0.00    +0.000 C 
ATOM      4  C   UNL     1      -0.266  14.748  19.377  0.00  0.00    +0.000 C 
ATOM      5  C   UNL     1       1.093  14.845  18.846  0.00  0.00    +0.000 C 
ATOM      6  C   UNL     1       1.482  13.390  18.380  0.00  0.00    +0.000 C 
ATOM      7  C   UNL     1       1.759  11.991  18.880  0.00  0.00    +0.000 C 
ATOM      8  C   UNL     1       0.640  10.943  18.970  0.00  0.00    +0.000 C 
ATOM      9  C   UNL     1      -0.373  11.313  20.074  0.00  0.00    +0.000 C 
ATOM     10  C   UNL     1      -1.529  11.910  19.691  0.00  0.00    +0.000 C 
ATOM     11  C   UNL     1      -2.624  12.653  20.451  0.00  0.00    +0.000 C 
ATOM     12  C   UNL     1       2.483  14.348  18.995  0.00  0.00    +0.000 C 
ATOM     13  C   UNL     1       3.568  14.618  17.965  0.00  0.00    +0.000 C 
ENDROOT
BRANCH  11  14
ATOM     14  O   UNL     1      -2.857  12.083  21.729  0.00  0.00    +0.000 OA
ATOM     15  H   UNL     1      -1.986  12.110  22.173  0.00  0.00    +0.000 HD
ENDBRANCH  11  14
BRANCH   1  16
ATOM     16  O   UNL     1      -3.055  14.812  21.639  0.00  0.00    +0.000 OA
BRANCH  16  18
ATOM     17  C   UNL     1      -3.190  17.105  22.102  0.00  0.00    +0.000 C 
ATOM     18  C   UNL     1      -3.786  15.930  21.383  0.00  0.00    +0.000 C 
ATOM     19  O   UNL     1      -4.782  15.995  20.676  0.00  0.00    +0.000 OA
ENDBRANCH  16  18
ENDBRANCH   1  16
BRANCH   8  20
ATOM     20  O   UNL     1       1.208   9.664  19.388  0.00  0.00    +0.000 OA
BRANCH  20  21
ATOM     21  C   UNL     1       1.805   8.830  18.502  0.00  0.00    +0.000 C 
ATOM     22  O   UNL     1       1.953   9.060  17.310  0.00  0.00    +0.000 OA
BRANCH  21  23
ATOM     23  C   UNL     1       2.375   7.611  19.202  0.00  0.00    +0.000 C 
BRANCH  23  24
ATOM     24  C   UNL     1       2.524   6.420  18.258  0.00  0.00    +0.000 C 
BRANCH  24  25
ATOM     25  C   UNL     1       1.970   5.140  18.828  0.00  0.00    +0.000 A 
ATOM     26  C   UNL     1       1.575   4.093  17.984  0.00  0.00    +0.000 A 
ATOM     27  C   UNL     1       1.091   2.897  18.516  0.00  0.00    +0.000 A 
ATOM     28  C   UNL     1       0.988   2.737  19.897  0.00  0.00    +0.000 A 
ATOM     29  C   UNL     1       1.366   3.777  20.746  0.00  0.00    +0.000 A 
ATOM     30  C   UNL     1       1.851   4.973  20.215  0.00  0.00    +0.000 A 
ENDBRANCH  24  25
ENDBRANCH  23  24
ENDBRANCH  21  23
ENDBRANCH  20  21
ENDBRANCH   8  20
BRANCH   9  31
ATOM     31  C   UNL     1       0.181  11.043  21.464  0.00  0.00    +0.000 C 
BRANCH  31  32
ATOM     32  O   UNL     1      -0.090   9.757  21.976  0.00  0.00    +0.000 OA
ATOM     33  H   UNL     1      -0.025   9.840  22.943  0.00  0.00    +0.000 HD
ENDBRANCH  31  32
ENDBRANCH   9  31
BRANCH  12  34
ATOM     34  C   UNL     1       3.027  14.294  20.417  0.00  0.00    +0.000 C 
BRANCH  34  35
ATOM     35  O   UNL     1       3.044  15.596  20.994  0.00  0.00    +0.000 OA
ATOM     36  H   UNL     1       3.809  16.060  20.603  0.00  0.00    +0.000 HD
ENDBRANCH  34  35
ENDBRANCH  12  34
TORSDOF 12
ENDMDL
MODEL 8
REMARK VINA RESULT:      -6.6      6.300      9.326
REMARK  Name = 
REMARK  15 active torsions:
REMARK  status: ('A' for Active; 'I' for Inactive)
REMARK    1  A    between atoms: C_1  and  C_2
REMARK    2  A    between atoms: C_2  and  O_4
REMARK    3  A    between atoms: O_4  and  C_5
REMARK    4  A    between atoms: C_6  and  C_7
REMARK    5  A    between atoms: C_12  and  O_13
REMARK    6  A    between atoms: O_13  and  C_14
REMARK    7  A    between atoms: C_14  and  C_16
REMARK    8  A    between atoms: C_16  and  C_17
REMARK    9  A    between atoms: C_17  and  C_18
REMARK   10  A    between atoms: C_24  and  C_25
REMARK   11  A    between atoms: C_25  and  O_26
REMARK   12  A    between atoms: C_28  and  O_29
REMARK   13  A    between atoms: C_30  and  C_31
REMARK   14  A    between atoms: C_30  and  C_32
REMARK   15  A    between atoms: C_32  and  O_33
REMARK                            x       y       z     vdW  Elec       q    Type
REMARK                         _______ _______ _______ _____ _____    ______ ____
ROOT
ATOM      1  C   UNL     1       0.717  14.623  20.445  0.00  0.00    +0.000 C 
ATOM      2  C   UNL     1       0.603  13.309  21.246  0.00  0.00    +0.000 C 
ATOM      3  C   UNL     1      -0.411  13.268  22.336  0.00  0.00    +0.000 C 
ATOM      4  C   UNL     1       1.313  12.259  20.781  0.00  0.00    +0.000 C 
ATOM      5  C   UNL     1       1.389  10.812  20.972  0.00  0.00    +0.000 C 
ATOM      6  C   UNL     1       0.486  10.177  19.847  0.00  0.00    +0.000 C 
ATOM      7  C   UNL     1      -0.940  10.056  19.362  0.00  0.00    +0.000 C 
ATOM      8  C   UNL     1      -1.520  11.044  18.339  0.00  0.00    +0.000 C 
ATOM      9  C   UNL     1      -1.677  12.449  18.959  0.00  0.00    +0.000 C 
ATOM     10  C   UNL     1      -0.718  13.367  18.684  0.00  0.00    +0.000 C 
ATOM     11  C   UNL     1      -0.363  14.723  19.289  0.00  0.00    +0.000 C 
ATOM     12  C   UNL     1       0.593   9.588  21.239  0.00  0.00    +0.000 C 
ATOM     13  C   UNL     1       1.170   8.187  21.113  0.00  0.00    +0.000 C 
ENDROOT
BRANCH  11  14
ATOM     14  O   UNL     1      -1.521  15.440  19.687  0.00  0.00    +0.000 OA
ATOM     15  H   UNL     1      -2.036  14.801  20.219  0.00  0.00    +0.000 HD
ENDBRANCH  11  14
BRANCH   1  16
ATOM     16  O   UNL     1       0.637  15.741  21.343  0.00  0.00    +0.000 OA
BRANCH  16  18
ATOM     17  C   UNL     1       1.600  16.871  23.157  0.00  0.00    +0.000 C 
ATOM     18  C   UNL     1       1.818  16.218  21.823  0.00  0.00    +0.000 C 
ATOM     19  O   UNL     1       2.906  16.139  21.271  0.00  0.00    +0.000 OA
ENDBRANCH  16  18
ENDBRANCH   1  16
BRANCH   8  20
ATOM     20  O   UNL     1      -2.875  10.632  17.982  0.00  0.00    +0.000 OA
BRANCH  20  21
ATOM     21  C   UNL     1      -3.413  10.934  16.775  0.00  0.00    +0.000 C 
ATOM     22  O   UNL     1      -2.774  11.162  15.757  0.00  0.00    +0.000 OA
BRANCH  21  23
ATOM     23  C   UNL     1      -4.927  10.841  16.817  0.00  0.00    +0.000 C 
BRANCH  23  24
ATOM     24  C   UNL     1      -5.552  11.971  17.633  0.00  0.00    +0.000 C 
BRANCH  24  25
ATOM     25  C   UNL     1      -6.359  11.476  18.806  0.00  0.00    +0.000 A 
ATOM     26  C   UNL     1      -6.660  10.115  18.943  0.00  0.00    +0.000 A 
ATOM     27  C   UNL     1      -7.381   9.656  20.047  0.00  0.00    +0.000 A 
ATOM     28  C   UNL     1      -7.814  10.554  21.021  0.00  0.00    +0.000 A 
ATOM     29  C   UNL     1      -7.530  11.912  20.888  0.00  0.00    +0.000 A 
ATOM     30  C   UNL     1      -6.809  12.372  19.785  0.00  0.00    +0.000 A 
ENDBRANCH  24  25
ENDBRANCH  23  24
ENDBRANCH  21  23
ENDBRANCH  20  21
ENDBRANCH   8  20
BRANCH   9  31
ATOM     31  C   UNL     1      -2.864  12.519  19.906  0.00  0.00    +0.000 C 
BRANCH  31  32
ATOM     32  O   UNL     1      -3.609  13.715  19.844  0.00  0.00    +0.000 OA
ATOM     33  H   UNL     1      -2.963  14.418  19.657  0.00  0.00    +0.000 HD
ENDBRANCH  31  32
ENDBRANCH   9  31
BRANCH  12  34
ATOM     34  C   UNL     1      -0.449   9.694  22.345  0.00  0.00    +0.000 C 
BRANCH  34  35
ATOM     35  O   UNL     1       0.178   9.958  23.597  0.00  0.00    +0.000 OA
ATOM     36  H   UNL     1      -0.442  10.517  24.102  0.00  0.00    +0.000 HD
ENDBRANCH  34  35
ENDBRANCH  12  34
TORSDOF 12
ENDMDL
MODEL 9
REMARK VINA RESULT:      -6.5      1.544      1.907
REMARK  Name = 
REMARK  15 active torsions:
REMARK  status: ('A' for Active; 'I' for Inactive)
REMARK    1  A    between atoms: C_1  and  C_2
REMARK    2  A    between atoms: C_2  and  O_4
REMARK    3  A    between atoms: O_4  and  C_5
REMARK    4  A    between atoms: C_6  and  C_7
REMARK    5  A    between atoms: C_12  and  O_13
REMARK    6  A    between atoms: O_13  and  C_14
REMARK    7  A    between atoms: C_14  and  C_16
REMARK    8  A    between atoms: C_16  and  C_17
REMARK    9  A    between atoms: C_17  and  C_18
REMARK   10  A    between atoms: C_24  and  C_25
REMARK   11  A    between atoms: C_25  and  O_26
REMARK   12  A    between atoms: C_28  and  O_29
REMARK   13  A    between atoms: C_30  and  C_31
REMARK   14  A    between atoms: C_30  and  C_32
REMARK   15  A    between atoms: C_32  and  O_33
REMARK                            x       y       z     vdW  Elec       q    Type
REMARK                         _______ _______ _______ _____ _____    ______ ____
ROOT
ATOM      1  C   UNL     1       5.449   4.964  15.471  0.00  0.00    +0.000 C 
ATOM      2  C   UNL     1       4.900   3.995  16.538  0.00  0.00    +0.000 C 
ATOM      3  C   UNL     1       5.784   3.698  17.698  0.00  0.00    +0.000 C 
ATOM      4  C   UNL     1       3.605   3.634  16.412  0.00  0.00    +0.000 C 
ATOM      5  C   UNL     1       2.561   2.991  17.207  0.00  0.00    +0.000 C 
ATOM      6  C   UNL     1       1.746   4.159  17.882  0.00  0.00    +0.000 C 
ATOM      7  C   UNL     1       1.845   5.281  18.889  0.00  0.00    +0.000 C 
ATOM      8  C   UNL     1       2.242   6.701  18.462  0.00  0.00    +0.000 C 
ATOM      9  C   UNL     1       3.720   6.750  18.018  0.00  0.00    +0.000 C 
ATOM     10  C   UNL     1       3.977   6.722  16.687  0.00  0.00    +0.000 C 
ATOM     11  C   UNL     1       5.244   6.485  15.871  0.00  0.00    +0.000 C 
ATOM     12  C   UNL     1       2.010   2.838  18.577  0.00  0.00    +0.000 C 
ATOM     13  C   UNL     1       0.670   2.178  18.857  0.00  0.00    +0.000 C 
ENDROOT
BRANCH  11  14
ATOM     14  O   UNL     1       6.388   7.040  16.501  0.00  0.00    +0.000 OA
ATOM     15  H   UNL     1       6.826   6.278  16.932  0.00  0.00    +0.000 HD
ENDBRANCH  11  14
BRANCH   1  16
ATOM     16  O   UNL     1       6.830   4.665  15.214  0.00  0.00    +0.000 OA
BRANCH  16  18
ATOM     17  C   UNL     1       6.509   3.877  13.030  0.00  0.00    +0.000 C 
ATOM     18  C   UNL     1       7.255   4.819  13.931  0.00  0.00    +0.000 C 
ATOM     19  O   UNL     1       8.113   5.599  13.544  0.00  0.00    +0.000 OA
ENDBRANCH  16  18
ENDBRANCH   1  16
BRANCH   8  20
ATOM     20  O   UNL     1       2.162   7.594  19.615  0.00  0.00    +0.000 OA
BRANCH  20  21
ATOM     21  C   UNL     1       1.515   8.783  19.547  0.00  0.00    +0.000 C 
ATOM     22  O   UNL     1       1.604   9.581  18.624  0.00  0.00    +0.000 OA
BRANCH  21  23
ATOM     23  C   UNL     1       0.565   8.952  20.718  0.00  0.00    +0.000 C 
BRANCH  23  24
ATOM     24  C   UNL     1       0.882  10.197  21.544  0.00  0.00    +0.000 C 
BRANCH  24  25
ATOM     25  C   UNL     1       0.271  11.453  20.978  0.00  0.00    +0.000 A 
ATOM     26  C   UNL     1      -1.119  11.583  20.861  0.00  0.00    +0.000 A 
ATOM     27  C   UNL     1      -1.683  12.759  20.365  0.00  0.00    +0.000 A 
ATOM     28  C   UNL     1      -0.863  13.816  19.973  0.00  0.00    +0.000 A 
ATOM     29  C   UNL     1       0.522  13.693  20.073  0.00  0.00    +0.000 A 
ATOM     30  C   UNL     1       1.087  12.517  20.569  0.00  0.00    +0.000 A 
ENDBRANCH  24  25
ENDBRANCH  23  24
ENDBRANCH  21  23
ENDBRANCH  20  21
ENDBRANCH   8  20
BRANCH   9  31
ATOM     31  C   UNL     1       4.669   6.693  19.205  0.00  0.00    +0.000 C 
BRANCH  31  32
ATOM     32  O   UNL     1       4.502   5.576  20.051  0.00  0.00    +0.000 OA
ATOM     33  H   UNL     1       4.757   5.879  20.939  0.00  0.00    +0.000 HD
ENDBRANCH  31  32
ENDBRANCH   9  31
BRANCH  12  34
ATOM     34  C   UNL     1       3.027   2.589  19.684  0.00  0.00    +0.000 C 
BRANCH  34  35
ATOM     35  O   UNL     1       2.382   2.558  20.955  0.00  0.00    +0.000 OA
ATOM     36  H   UNL     1       1.911   1.705  21.002  0.00  0.00    +0.000 HD
ENDBRANCH  34  35
ENDBRANCH  12  34
TORSDOF 12
ENDMDL
