MODEL 1
REMARK VINA RESULT:      -7.0      0.000      0.000
REMARK  Name = 
REMARK  12 active torsions:
REMARK  status: ('A' for Active; 'I' for Inactive)
REMARK    1  A    between atoms: C_1  and  O_2
REMARK    2  A    between atoms: O_2  and  C_3
REMARK    3  A    between atoms: C_5  and  C_6
REMARK    4  A    between atoms: C_6  and  C_7
REMARK    5  A    between atoms: C_7  and  O_9
REMARK    6  A    between atoms: O_9  and  C_10
REMARK    7  A    between atoms: C_10  and  C_11
REMARK    8  A    between atoms: N_13  and  C_14
REMARK    9  A    between atoms: C_20  and  O_21
REMARK   10  A    between atoms: O_21  and  C_22
REMARK   11  A    between atoms: C_23  and  O_24
REMARK   12  A    between atoms: O_24  and  C_25
REMARK                            x       y       z     vdW  Elec       q    Type
REMARK                         _______ _______ _______ _____ _____    ______ ____
ROOT
ATOM      1  C   UNL     1       5.891   5.317  16.083  0.00  0.00    +0.000 C 
ENDROOT
BRANCH   1   4
ATOM      2  C   UNL     1       3.108   3.792  18.255  0.00  0.00    +0.000 A 
ATOM      3  C   UNL     1       4.118   3.917  17.281  0.00  0.00    +0.000 A 
ATOM      4  C   UNL     1       4.642   5.157  16.923  0.00  0.00    +0.000 A 
ATOM      5  C   UNL     1       4.010   6.294  17.439  0.00  0.00    +0.000 A 
ATOM      6  C   UNL     1       2.944   6.206  18.356  0.00  0.00    +0.000 A 
ATOM      7  C   UNL     1       2.488   4.942  18.790  0.00  0.00    +0.000 A 
BRANCH   2   9
ATOM      8  C   UNL     1       3.554   1.459  18.256  0.00  0.00    +0.000 C 
ATOM      9  O   UNL     1       2.718   2.543  18.676  0.00  0.00    +0.000 OA
ENDBRANCH   2   9
BRANCH   6  10
ATOM     10  O   UNL     1       2.512   7.456  18.732  0.00  0.00    +0.000 OA
ATOM     11  C   UNL     1       2.177   8.413  17.737  0.00  0.00    +0.000 C 
ENDBRANCH   6  10
BRANCH   7  12
ATOM     12  O   UNL     1       1.451   4.952  19.683  0.00  0.00    +0.000 OA
ATOM     13  C   UNL     1       1.689   5.127  21.070  0.00  0.00    +0.000 C 
ENDBRANCH   7  12
ENDBRANCH   1   4
BRANCH   1  14
ATOM     14  C   UNL     1       7.201   5.517  16.822  0.00  0.00    +0.000 C 
ATOM     15  O   UNL     1       7.873   4.611  17.304  0.00  0.00    +0.000 OA
BRANCH  14  16
ATOM     16  O   UNL     1       7.560   6.832  16.846  0.00  0.00    +0.000 OA
BRANCH  16  17
ATOM     17  C   UNL     1       8.067   7.291  18.105  0.00  0.00    +0.000 C 
BRANCH  17  18
ATOM     18  C   UNL     1       8.202   8.814  18.204  0.00  0.00    +0.000 C 
ATOM     19  O   UNL     1       7.593   9.595  17.472  0.00  0.00    +0.000 OA
ATOM     20  N   UNL     1       9.076   9.249  19.192  0.00  0.00    +0.000 N 
ATOM     21  H   UNL     1       9.669   8.570  19.651  0.00  0.00    +0.000 HD
BRANCH  20  22
ATOM     22  C   UNL     1       9.319  10.657  19.425  0.00  0.00    +0.000 C 
ATOM     23  C   UNL     1       9.421  10.997  20.909  0.00  0.00    +0.000 C 
ATOM     24  C   UNL     1      10.060  12.379  20.908  0.00  0.00    +0.000 C 
ATOM     25  C   UNL     1      10.960  12.416  19.673  0.00  0.00    +0.000 C 
ATOM     26  C   UNL     1      10.657  11.141  18.882  0.00  0.00    +0.000 C 
ENDBRANCH  20  22
ENDBRANCH  17  18
ENDBRANCH  16  17
ENDBRANCH  14  16
ENDBRANCH   1  14
TORSDOF 9
ENDMDL
MODEL 2
REMARK VINA RESULT:      -6.7      1.607      3.199
REMARK  Name = 
REMARK  12 active torsions:
REMARK  status: ('A' for Active; 'I' for Inactive)
REMARK    1  A    between atoms: C_1  and  O_2
REMARK    2  A    between atoms: O_2  and  C_3
REMARK    3  A    between atoms: C_5  and  C_6
REMARK    4  A    between atoms: C_6  and  C_7
REMARK    5  A    between atoms: C_7  and  O_9
REMARK    6  A    between atoms: O_9  and  C_10
REMARK    7  A    between atoms: C_10  and  C_11
REMARK    8  A    between atoms: N_13  and  C_14
REMARK    9  A    between atoms: C_20  and  O_21
REMARK   10  A    between atoms: O_21  and  C_22
REMARK   11  A    between atoms: C_23  and  O_24
REMARK   12  A    between atoms: O_24  and  C_25
REMARK                            x       y       z     vdW  Elec       q    Type
REMARK                         _______ _______ _______ _____ _____    ______ ____
ROOT
ATOM      1  C   UNL     1       7.136   5.142  18.377  0.00  0.00    +0.000 C 
ENDROOT
BRANCH   1   4
ATOM      2  C   UNL     1       3.431   6.002  18.947  0.00  0.00    +0.000 A 
ATOM      3  C   UNL     1       4.827   6.144  18.833  0.00  0.00    +0.000 A 
ATOM      4  C   UNL     1       5.673   5.040  18.756  0.00  0.00    +0.000 A 
ATOM      5  C   UNL     1       5.104   3.780  18.968  0.00  0.00    +0.000 A 
ATOM      6  C   UNL     1       3.719   3.607  19.163  0.00  0.00    +0.000 A 
ATOM      7  C   UNL     1       2.858   4.725  19.139  0.00  0.00    +0.000 A 
BRANCH   2   9
ATOM      8  C   UNL     1       2.838   7.968  17.753  0.00  0.00    +0.000 C 
ATOM      9  O   UNL     1       2.624   7.113  18.881  0.00  0.00    +0.000 OA
ENDBRANCH   2   9
BRANCH   6  10
ATOM     10  O   UNL     1       3.405   2.278  19.324  0.00  0.00    +0.000 OA
ATOM     11  C   UNL     1       3.655   1.365  18.264  0.00  0.00    +0.000 C 
ENDBRANCH   6  10
BRANCH   7  12
ATOM     12  O   UNL     1       1.528   4.465  19.333  0.00  0.00    +0.000 OA
ATOM     13  C   UNL     1       1.040   4.093  20.611  0.00  0.00    +0.000 C 
ENDBRANCH   7  12
ENDBRANCH   1   4
BRANCH   1  14
ATOM     14  C   UNL     1       7.553   6.340  17.546  0.00  0.00    +0.000 C 
ATOM     15  O   UNL     1       7.429   6.420  16.329  0.00  0.00    +0.000 OA
BRANCH  14  16
ATOM     16  O   UNL     1       8.046   7.340  18.332  0.00  0.00    +0.000 OA
BRANCH  16  17
ATOM     17  C   UNL     1       7.904   8.657  17.785  0.00  0.00    +0.000 C 
BRANCH  17  18
ATOM     18  C   UNL     1       8.760   9.717  18.484  0.00  0.00    +0.000 C 
ATOM     19  O   UNL     1       9.245   9.562  19.606  0.00  0.00    +0.000 OA
ATOM     20  N   UNL     1       8.947  10.880  17.748  0.00  0.00    +0.000 N 
ATOM     21  H   UNL     1       8.397  11.020  16.910  0.00  0.00    +0.000 HD
BRANCH  20  22
ATOM     22  C   UNL     1       9.733  11.983  18.258  0.00  0.00    +0.000 C 
ATOM     23  C   UNL     1      11.191  11.920  17.810  0.00  0.00    +0.000 C 
ATOM     24  C   UNL     1      11.706  13.325  18.099  0.00  0.00    +0.000 C 
ATOM     25  C   UNL     1      10.503  14.250  17.917  0.00  0.00    +0.000 C 
ATOM     26  C   UNL     1       9.285  13.343  17.736  0.00  0.00    +0.000 C 
ENDBRANCH  20  22
ENDBRANCH  17  18
ENDBRANCH  16  17
ENDBRANCH  14  16
ENDBRANCH   1  14
TORSDOF 9
ENDMDL
MODEL 3
REMARK VINA RESULT:      -6.6      1.144      1.188
REMARK  Name = 
REMARK  12 active torsions:
REMARK  status: ('A' for Active; 'I' for Inactive)
REMARK    1  A    between atoms: C_1  and  O_2
REMARK    2  A    between atoms: O_2  and  C_3
REMARK    3  A    between atoms: C_5  and  C_6
REMARK    4  A    between atoms: C_6  and  C_7
REMARK    5  A    between atoms: C_7  and  O_9
REMARK    6  A    between atoms: O_9  and  C_10
REMARK    7  A    between atoms: C_10  and  C_11
REMARK    8  A    between atoms: N_13  and  C_14
REMARK    9  A    between atoms: C_20  and  O_21
REMARK   10  A    between atoms: O_21  and  C_22
REMARK   11  A    between atoms: C_23  and  O_24
REMARK   12  A    between atoms: O_24  and  C_25
REMARK                            x       y       z     vdW  Elec       q    Type
REMARK                         _______ _______ _______ _____ _____    ______ ____
ROOT
ATOM      1  C   UNL     1       6.859   5.990  18.032  0.00  0.00    +0.000 C 
ENDROOT
BRANCH   1   4
ATOM      2  C   UNL     1       3.961   3.647  18.981  0.00  0.00    +0.000 A 
ATOM      3  C   UNL     1       5.240   4.092  18.596  0.00  0.00    +0.000 A 
ATOM      4  C   UNL     1       5.471   5.408  18.203  0.00  0.00    +0.000 A 
ATOM      5  C   UNL     1       4.355   6.234  18.037  0.00  0.00    +0.000 A 
ATOM      6  C   UNL     1       3.049   5.797  18.338  0.00  0.00    +0.000 A 
ATOM      7  C   UNL     1       2.838   4.492  18.833  0.00  0.00    +0.000 A 
BRANCH   2   9
ATOM      8  C   UNL     1       3.601   1.344  18.526  0.00  0.00    +0.000 C 
ATOM      9  O   UNL     1       3.804   2.381  19.492  0.00  0.00    +0.000 OA
ENDBRANCH   2   9
BRANCH   6  10
ATOM     10  O   UNL     1       2.131   6.797  18.117  0.00  0.00    +0.000 OA
ATOM     11  C   UNL     1       2.107   7.930  18.974  0.00  0.00    +0.000 C 
ENDBRANCH   6  10
BRANCH   7  12
ATOM     12  O   UNL     1       1.540   4.154  19.102  0.00  0.00    +0.000 OA
ATOM     13  C   UNL     1       1.019   4.258  20.417  0.00  0.00    +0.000 C 
ENDBRANCH   7  12
ENDBRANCH   1   4
BRANCH   1  14
ATOM     14  C   UNL     1       7.213   6.544  16.664  0.00  0.00    +0.000 C 
ATOM     15  O   UNL     1       6.859   6.048  15.600  0.00  0.00    +0.000 OA
BRANCH  14  16
ATOM     16  O   UNL     1       7.942   7.691  16.769  0.00  0.00    +0.000 OA
BRANCH  16  17
ATOM     17  C   UNL     1       8.108   8.176  18.107  0.00  0.00    +0.000 C 
BRANCH  17  18
ATOM     18  C   UNL     1       8.424   9.672  18.193  0.00  0.00    +0.000 C 
ATOM     19  O   UNL     1       7.810  10.530  17.556  0.00  0.00    +0.000 OA
ATOM     20  N   UNL     1       9.469   9.990  19.051  0.00  0.00    +0.000 N 
ATOM     21  H   UNL     1      10.041   9.240  19.419  0.00  0.00    +0.000 HD
BRANCH  20  22
ATOM     22  C   UNL     1       9.897  11.357  19.253  0.00  0.00    +0.000 C 
ATOM     23  C   UNL     1       9.635  11.849  20.674  0.00  0.00    +0.000 C 
ATOM     24  C   UNL     1      10.497  13.101  20.775  0.00  0.00    +0.000 C 
ATOM     25  C   UNL     1      11.700  12.846  19.868  0.00  0.00    +0.000 C 
ATOM     26  C   UNL     1      11.401  11.553  19.107  0.00  0.00    +0.000 C 
ENDBRANCH  20  22
ENDBRANCH  17  18
ENDBRANCH  16  17
ENDBRANCH  14  16
ENDBRANCH   1  14
TORSDOF 9
ENDMDL
MODEL 4
REMARK VINA RESULT:      -6.6      1.131      1.240
REMARK  Name = 
REMARK  12 active torsions:
REMARK  status: ('A' for Active; 'I' for Inactive)
REMARK    1  A    between atoms: C_1  and  O_2
REMARK    2  A    between atoms: O_2  and  C_3
REMARK    3  A    between atoms: C_5  and  C_6
REMARK    4  A    between atoms: C_6  and  C_7
REMARK    5  A    between atoms: C_7  and  O_9
REMARK    6  A    between atoms: O_9  and  C_10
REMARK    7  A    between atoms: C_10  and  C_11
REMARK    8  A    between atoms: N_13  and  C_14
REMARK    9  A    between atoms: C_20  and  O_21
REMARK   10  A    between atoms: O_21  and  C_22
REMARK   11  A    between atoms: C_23  and  O_24
REMARK   12  A    between atoms: O_24  and  C_25
REMARK                            x       y       z     vdW  Elec       q    Type
REMARK                         _______ _______ _______ _____ _____    ______ ____
ROOT
ATOM      1  C   UNL     1       6.450   6.030  16.485  0.00  0.00    +0.000 C 
ENDROOT
BRANCH   1   4
ATOM      2  C   UNL     1       3.412   3.885  17.465  0.00  0.00    +0.000 A 
ATOM      3  C   UNL     1       4.592   4.305  16.822  0.00  0.00    +0.000 A 
ATOM      4  C   UNL     1       5.068   5.609  16.940  0.00  0.00    +0.000 A 
ATOM      5  C   UNL     1       4.243   6.538  17.583  0.00  0.00    +0.000 A 
ATOM      6  C   UNL     1       3.017   6.169  18.170  0.00  0.00    +0.000 A 
ATOM      7  C   UNL     1       2.592   4.823  18.132  0.00  0.00    +0.000 A 
BRANCH   2   9
ATOM      8  C   UNL     1       3.581   1.750  18.492  0.00  0.00    +0.000 C 
ATOM      9  O   UNL     1       3.053   2.559  17.435  0.00  0.00    +0.000 OA
ENDBRANCH   2   9
BRANCH   6  10
ATOM     10  O   UNL     1       2.406   7.251  18.759  0.00  0.00    +0.000 OA
ATOM     11  C   UNL     1       2.104   8.398  17.976  0.00  0.00    +0.000 C 
ENDBRANCH   6  10
BRANCH   7  12
ATOM     12  O   UNL     1       1.391   4.554  18.731  0.00  0.00    +0.000 OA
ATOM     13  C   UNL     1       1.323   4.240  20.112  0.00  0.00    +0.000 C 
ENDBRANCH   7  12
ENDBRANCH   1   4
BRANCH   1  14
ATOM     14  C   UNL     1       7.357   6.663  17.524  0.00  0.00    +0.000 C 
ATOM     15  O   UNL     1       7.541   6.217  18.651  0.00  0.00    +0.000 OA
BRANCH  14  16
ATOM     16  O   UNL     1       7.977   7.772  17.030  0.00  0.00    +0.000 OA
BRANCH  16  17
ATOM     17  C   UNL     1       7.525   9.011  17.590  0.00  0.00    +0.000 C 
BRANCH  17  18
ATOM     18  C   UNL     1       8.601   9.768  18.375  0.00  0.00    +0.000 C 
ATOM     19  O   UNL     1       9.211   9.281  19.328  0.00  0.00    +0.000 OA
ATOM     20  N   UNL     1       8.835  11.062  17.926  0.00  0.00    +0.000 N 
ATOM     21  H   UNL     1       8.197  11.466  17.252  0.00  0.00    +0.000 HD
BRANCH  20  22
ATOM     22  C   UNL     1       9.821  11.916  18.552  0.00  0.00    +0.000 C 
ATOM     23  C   UNL     1       9.592  12.075  20.053  0.00  0.00    +0.000 C 
ATOM     24  C   UNL     1      10.916  12.642  20.550  0.00  0.00    +0.000 C 
ATOM     25  C   UNL     1      11.985  12.066  19.622  0.00  0.00    +0.000 C 
ATOM     26  C   UNL     1      11.237  11.357  18.491  0.00  0.00    +0.000 C 
ENDBRANCH  20  22
ENDBRANCH  17  18
ENDBRANCH  16  17
ENDBRANCH  14  16
ENDBRANCH   1  14
TORSDOF 9
ENDMDL
MODEL 5
REMARK VINA RESULT:      -6.6      1.433      3.145
REMARK  Name = 
REMARK  12 active torsions:
REMARK  status: ('A' for Active; 'I' for Inactive)
REMARK    1  A    between atoms: C_1  and  O_2
REMARK    2  A    between atoms: O_2  and  C_3
REMARK    3  A    between atoms: C_5  and  C_6
REMARK    4  A    between atoms: C_6  and  C_7
REMARK    5  A    between atoms: C_7  and  O_9
REMARK    6  A    between atoms: O_9  and  C_10
REMARK    7  A    between atoms: C_10  and  C_11
REMARK    8  A    between atoms: N_13  and  C_14
REMARK    9  A    between atoms: C_20  and  O_21
REMARK   10  A    between atoms: O_21  and  C_22
REMARK   11  A    between atoms: C_23  and  O_24
REMARK   12  A    between atoms: O_24  and  C_25
REMARK                            x       y       z     vdW  Elec       q    Type
REMARK                         _______ _______ _______ _____ _____    ______ ____
ROOT
ATOM      1  C   UNL     1       6.678   5.840  16.883  0.00  0.00    +0.000 C 
ENDROOT
BRANCH   1   4
ATOM      2  C   UNL     1       3.119   6.109  18.315  0.00  0.00    +0.000 A 
ATOM      3  C   UNL     1       4.464   6.413  18.026  0.00  0.00    +0.000 A 
ATOM      4  C   UNL     1       5.318   5.481  17.442  0.00  0.00    +0.000 A 
ATOM      5  C   UNL     1       4.843   4.172  17.307  0.00  0.00    +0.000 A 
ATOM      6  C   UNL     1       3.527   3.813  17.660  0.00  0.00    +0.000 A 
ATOM      7  C   UNL     1       2.638   4.790  18.157  0.00  0.00    +0.000 A 
BRANCH   2   9
ATOM      8  C   UNL     1       2.122   8.221  17.890  0.00  0.00    +0.000 C 
ATOM      9  O   UNL     1       2.277   7.098  18.763  0.00  0.00    +0.000 OA
ENDBRANCH   2   9
BRANCH   6  10
ATOM     10  O   UNL     1       3.296   2.480  17.412  0.00  0.00    +0.000 OA
ATOM     11  C   UNL     1       3.580   1.519  18.419  0.00  0.00    +0.000 C 
ENDBRANCH   6  10
BRANCH   7  12
ATOM     12  O   UNL     1       1.379   4.354  18.470  0.00  0.00    +0.000 OA
ATOM     13  C   UNL     1       1.080   3.868  19.768  0.00  0.00    +0.000 C 
ENDBRANCH   7  12
ENDBRANCH   1   4
BRANCH   1  14
ATOM     14  C   UNL     1       7.570   6.716  17.743  0.00  0.00    +0.000 C 
ATOM     15  O   UNL     1       7.936   6.433  18.878  0.00  0.00    +0.000 OA
BRANCH  14  16
ATOM     16  O   UNL     1       7.950   7.842  17.075  0.00  0.00    +0.000 OA
BRANCH  16  17
ATOM     17  C   UNL     1       7.516   9.069  17.673  0.00  0.00    +0.000 C 
BRANCH  17  18
ATOM     18  C   UNL     1       8.639   9.869  18.339  0.00  0.00    +0.000 C 
ATOM     19  O   UNL     1       9.352   9.416  19.236  0.00  0.00    +0.000 OA
ATOM     20  N   UNL     1       8.791  11.161  17.850  0.00  0.00    +0.000 N 
ATOM     21  H   UNL     1       8.080  11.535  17.234  0.00  0.00    +0.000 HD
BRANCH  20  22
ATOM     22  C   UNL     1       9.808  12.053  18.365  0.00  0.00    +0.000 C 
ATOM     23  C   UNL     1      10.430  12.923  17.276  0.00  0.00    +0.000 C 
ATOM     24  C   UNL     1      11.136  14.018  18.066  0.00  0.00    +0.000 C 
ATOM     25  C   UNL     1      10.307  14.211  19.334  0.00  0.00    +0.000 C 
ATOM     26  C   UNL     1       9.270  13.086  19.348  0.00  0.00    +0.000 C 
ENDBRANCH  20  22
ENDBRANCH  17  18
ENDBRANCH  16  17
ENDBRANCH  14  16
ENDBRANCH   1  14
TORSDOF 9
ENDMDL
MODEL 6
REMARK VINA RESULT:      -6.6      4.004      8.403
REMARK  Name = 
REMARK  12 active torsions:
REMARK  status: ('A' for Active; 'I' for Inactive)
REMARK    1  A    between atoms: C_1  and  O_2
REMARK    2  A    between atoms: O_2  and  C_3
REMARK    3  A    between atoms: C_5  and  C_6
REMARK    4  A    between atoms: C_6  and  C_7
REMARK    5  A    between atoms: C_7  and  O_9
REMARK    6  A    between atoms: O_9  and  C_10
REMARK    7  A    between atoms: C_10  and  C_11
REMARK    8  A    between atoms: N_13  and  C_14
REMARK    9  A    between atoms: C_20  and  O_21
REMARK   10  A    between atoms: O_21  and  C_22
REMARK   11  A    between atoms: C_23  and  O_24
REMARK   12  A    between atoms: O_24  and  C_25
REMARK                            x       y       z     vdW  Elec       q    Type
REMARK                         _______ _______ _______ _____ _____    ______ ____
ROOT
ATOM      1  C   UNL     1       2.458   7.417  18.987  0.00  0.00    +0.000 C 
ENDROOT
BRANCH   1   4
ATOM      2  C   UNL     1       5.461   6.293  16.865  0.00  0.00    +0.000 A 
ATOM      3  C   UNL     1       4.525   7.123  17.511  0.00  0.00    +0.000 A 
ATOM      4  C   UNL     1       3.355   6.614  18.069  0.00  0.00    +0.000 A 
ATOM      5  C   UNL     1       3.055   5.271  17.817  0.00  0.00    +0.000 A 
ATOM      6  C   UNL     1       3.932   4.429  17.106  0.00  0.00    +0.000 A 
ATOM      7  C   UNL     1       5.164   4.932  16.631  0.00  0.00    +0.000 A 
BRANCH   2   9
ATOM      8  C   UNL     1       7.462   7.418  17.473  0.00  0.00    +0.000 C 
ATOM      9  O   UNL     1       6.664   6.813  16.450  0.00  0.00    +0.000 OA
ENDBRANCH   2   9
BRANCH   6  10
ATOM     10  O   UNL     1       3.426   3.154  17.012  0.00  0.00    +0.000 OA
ATOM     11  C   UNL     1       3.086   2.445  18.195  0.00  0.00    +0.000 C 
ENDBRANCH   6  10
BRANCH   7  12
ATOM     12  O   UNL     1       5.955   4.043  15.955  0.00  0.00    +0.000 OA
ATOM     13  C   UNL     1       5.980   4.026  14.537  0.00  0.00    +0.000 C 
ENDBRANCH   7  12
ENDBRANCH   1   4
BRANCH   1  14
ATOM     14  C   UNL     1       1.882   8.708  18.436  0.00  0.00    +0.000 C 
ATOM     15  O   UNL     1       2.236   9.235  17.387  0.00  0.00    +0.000 OA
BRANCH  14  16
ATOM     16  O   UNL     1       0.888   9.188  19.236  0.00  0.00    +0.000 OA
BRANCH  16  17
ATOM     17  C   UNL     1       0.930  10.602  19.461  0.00  0.00    +0.000 C 
BRANCH  17  18
ATOM     18  C   UNL     1      -0.086  11.395  18.632  0.00  0.00    +0.000 C 
ATOM     19  O   UNL     1       0.048  12.589  18.359  0.00  0.00    +0.000 OA
ATOM     20  N   UNL     1      -1.184  10.656  18.210  0.00  0.00    +0.000 N 
ATOM     21  H   UNL     1      -1.325   9.731  18.596  0.00  0.00    +0.000 HD
BRANCH  20  22
ATOM     22  C   UNL     1      -2.238  11.247  17.414  0.00  0.00    +0.000 C 
ATOM     23  C   UNL     1      -2.511  10.468  16.131  0.00  0.00    +0.000 C 
ATOM     24  C   UNL     1      -3.865  11.001  15.680  0.00  0.00    +0.000 C 
ATOM     25  C   UNL     1      -4.610  11.370  16.963  0.00  0.00    +0.000 C 
ATOM     26  C   UNL     1      -3.597  11.240  18.102  0.00  0.00    +0.000 C 
ENDBRANCH  20  22
ENDBRANCH  17  18
ENDBRANCH  16  17
ENDBRANCH  14  16
ENDBRANCH   1  14
TORSDOF 9
ENDMDL
MODEL 7
REMARK VINA RESULT:      -6.6      4.622      7.121
REMARK  Name = 
REMARK  12 active torsions:
REMARK  status: ('A' for Active; 'I' for Inactive)
REMARK    1  A    between atoms: C_1  and  O_2
REMARK    2  A    between atoms: O_2  and  C_3
REMARK    3  A    between atoms: C_5  and  C_6
REMARK    4  A    between atoms: C_6  and  C_7
REMARK    5  A    between atoms: C_7  and  O_9
REMARK    6  A    between atoms: O_9  and  C_10
REMARK    7  A    between atoms: C_10  and  C_11
REMARK    8  A    between atoms: N_13  and  C_14
REMARK    9  A    between atoms: C_20  and  O_21
REMARK   10  A    between atoms: O_21  and  C_22
REMARK   11  A    between atoms: C_23  and  O_24
REMARK   12  A    between atoms: O_24  and  C_25
REMARK                            x       y       z     vdW  Elec       q    Type
REMARK                         _______ _______ _______ _____ _____    ______ ____
ROOT
ATOM      1  C   UNL     1       2.695   5.662  19.983  0.00  0.00    +0.000 C 
ENDROOT
BRANCH   1   4
ATOM      2  C   UNL     1       1.581   9.128  18.742  0.00  0.00    +0.000 A 
ATOM      3  C   UNL     1       2.327   7.941  18.883  0.00  0.00    +0.000 A 
ATOM      4  C   UNL     1       2.106   7.056  19.935  0.00  0.00    +0.000 A 
ATOM      5  C   UNL     1       1.233   7.468  20.948  0.00  0.00    +0.000 A 
ATOM      6  C   UNL     1       0.528   8.687  20.879  0.00  0.00    +0.000 A 
ATOM      7  C   UNL     1       0.684   9.530  19.757  0.00  0.00    +0.000 A 
BRANCH   2   9
ATOM      8  C   UNL     1       2.440  11.134  17.806  0.00  0.00    +0.000 C 
ATOM      9  O   UNL     1       1.735   9.902  17.617  0.00  0.00    +0.000 OA
ENDBRANCH   2   9
BRANCH   6  10
ATOM     10  O   UNL     1      -0.281   8.852  21.978  0.00  0.00    +0.000 OA
ATOM     11  C   UNL     1       0.235   9.483  23.141  0.00  0.00    +0.000 C 
ENDBRANCH   6  10
BRANCH   7  12
ATOM     12  O   UNL     1      -0.042  10.690  19.771  0.00  0.00    +0.000 OA
ATOM     13  C   UNL     1      -1.283  10.780  19.091  0.00  0.00    +0.000 C 
ENDBRANCH   7  12
ENDBRANCH   1   4
BRANCH   1  14
ATOM     14  C   UNL     1       1.724   4.498  19.926  0.00  0.00    +0.000 C 
ATOM     15  O   UNL     1       1.367   3.842  20.897  0.00  0.00    +0.000 OA
BRANCH  14  16
ATOM     16  O   UNL     1       1.263   4.301  18.657  0.00  0.00    +0.000 OA
BRANCH  16  17
ATOM     17  C   UNL     1       1.588   3.024  18.094  0.00  0.00    +0.000 C 
BRANCH  17  18
ATOM     18  C   UNL     1       3.085   2.818  17.841  0.00  0.00    +0.000 C 
ATOM     19  O   UNL     1       3.728   1.881  18.314  0.00  0.00    +0.000 OA
ATOM     20  N   UNL     1       3.667   3.784  17.030  0.00  0.00    +0.000 N 
ATOM     21  H   UNL     1       3.136   4.615  16.804  0.00  0.00    +0.000 HD
BRANCH  20  22
ATOM     22  C   UNL     1       5.072   3.740  16.685  0.00  0.00    +0.000 C 
ATOM     23  C   UNL     1       5.370   4.415  15.349  0.00  0.00    +0.000 C 
ATOM     24  C   UNL     1       6.881   4.610  15.385  0.00  0.00    +0.000 C 
ATOM     25  C   UNL     1       7.235   4.808  16.859  0.00  0.00    +0.000 C 
ATOM     26  C   UNL     1       5.960   4.513  17.652  0.00  0.00    +0.000 C 
ENDBRANCH  20  22
ENDBRANCH  17  18
ENDBRANCH  16  17
ENDBRANCH  14  16
ENDBRANCH   1  14
TORSDOF 9
ENDMDL
MODEL 8
REMARK VINA RESULT:      -6.5      3.465      6.412
REMARK  Name = 
REMARK  12 active torsions:
REMARK  status: ('A' for Active; 'I' for Inactive)
REMARK    1  A    between atoms: C_1  and  O_2
REMARK    2  A    between atoms: O_2  and  C_3
REMARK    3  A    between atoms: C_5  and  C_6
REMARK    4  A    between atoms: C_6  and  C_7
REMARK    5  A    between atoms: C_7  and  O_9
REMARK    6  A    between atoms: O_9  and  C_10
REMARK    7  A    between atoms: C_10  and  C_11
REMARK    8  A    between atoms: N_13  and  C_14
REMARK    9  A    between atoms: C_20  and  O_21
REMARK   10  A    between atoms: O_21  and  C_22
REMARK   11  A    between atoms: C_23  and  O_24
REMARK   12  A    between atoms: O_24  and  C_25
REMARK                            x       y       z     vdW  Elec       q    Type
REMARK                         _______ _______ _______ _____ _____    ______ ____
ROOT
ATOM      1  C   UNL     1       6.899   5.738  19.101  0.00  0.00    +0.000 C 
ENDROOT
BRANCH   1   4
ATOM      2  C   UNL     1       3.834   3.419  19.236  0.00  0.00    +0.000 A 
ATOM      3  C   UNL     1       5.168   3.856  19.117  0.00  0.00    +0.000 A 
ATOM      4  C   UNL     1       5.488   5.203  18.973  0.00  0.00    +0.000 A 
ATOM      5  C   UNL     1       4.430   6.097  18.778  0.00  0.00    +0.000 A 
ATOM      6  C   UNL     1       3.084   5.683  18.812  0.00  0.00    +0.000 A 
ATOM      7  C   UNL     1       2.768   4.329  19.060  0.00  0.00    +0.000 A 
BRANCH   2   9
ATOM      8  C   UNL     1       3.640   1.206  18.398  0.00  0.00    +0.000 C 
ATOM      9  O   UNL     1       3.570   2.099  19.514  0.00  0.00    +0.000 OA
ENDBRANCH   2   9
BRANCH   6  10
ATOM     10  O   UNL     1       2.234   6.746  18.619  0.00  0.00    +0.000 OA
ATOM     11  C   UNL     1       2.114   7.741  19.627  0.00  0.00    +0.000 C 
ENDBRANCH   6  10
BRANCH   7  12
ATOM     12  O   UNL     1       1.436   4.016  19.080  0.00  0.00    +0.000 OA
ATOM     13  C   UNL     1       0.744   3.863  20.308  0.00  0.00    +0.000 C 
ENDBRANCH   7  12
ENDBRANCH   1   4
BRANCH   1  14
ATOM     14  C   UNL     1       7.530   6.328  17.854  0.00  0.00    +0.000 C 
ATOM     15  O   UNL     1       7.810   7.513  17.710  0.00  0.00    +0.000 OA
BRANCH  14  16
ATOM     16  O   UNL     1       7.788   5.363  16.925  0.00  0.00    +0.000 OA
BRANCH  16  17
ATOM     17  C   UNL     1       7.228   5.613  15.630  0.00  0.00    +0.000 C 
BRANCH  17  18
ATOM     18  C   UNL     1       6.434   4.435  15.057  0.00  0.00    +0.000 C 
ATOM     19  O   UNL     1       5.813   3.634  15.758  0.00  0.00    +0.000 OA
ATOM     20  N   UNL     1       6.471   4.338  13.672  0.00  0.00    +0.000 N 
ATOM     21  H   UNL     1       7.123   4.919  13.161  0.00  0.00    +0.000 HD
BRANCH  20  22
ATOM     22  C   UNL     1       5.772   3.286  12.966  0.00  0.00    +0.000 C 
ATOM     23  C   UNL     1       4.657   3.822  12.071  0.00  0.00    +0.000 C 
ATOM     24  C   UNL     1       4.349   2.644  11.154  0.00  0.00    +0.000 C 
ATOM     25  C   UNL     1       5.669   1.892  10.992  0.00  0.00    +0.000 C 
ATOM     26  C   UNL     1       6.651   2.526  11.980  0.00  0.00    +0.000 C 
ENDBRANCH  20  22
ENDBRANCH  17  18
ENDBRANCH  16  17
ENDBRANCH  14  16
ENDBRANCH   1  14
TORSDOF 9
ENDMDL
MODEL 9
REMARK VINA RESULT:      -6.5      1.243      2.796
REMARK  Name = 
REMARK  12 active torsions:
REMARK  status: ('A' for Active; 'I' for Inactive)
REMARK    1  A    between atoms: C_1  and  O_2
REMARK    2  A    between atoms: O_2  and  C_3
REMARK    3  A    between atoms: C_5  and  C_6
REMARK    4  A    between atoms: C_6  and  C_7
REMARK    5  A    between atoms: C_7  and  O_9
REMARK    6  A    between atoms: O_9  and  C_10
REMARK    7  A    between atoms: C_10  and  C_11
REMARK    8  A    between atoms: N_13  and  C_14
REMARK    9  A    between atoms: C_20  and  O_21
REMARK   10  A    between atoms: O_21  and  C_22
REMARK   11  A    between atoms: C_23  and  O_24
REMARK   12  A    between atoms: O_24  and  C_25
REMARK                            x       y       z     vdW  Elec       q    Type
REMARK                         _______ _______ _______ _____ _____    ______ ____
ROOT
ATOM      1  C   UNL     1       6.780   5.842  18.101  0.00  0.00    +0.000 C 
ENDROOT
BRANCH   1   4
ATOM      2  C   UNL     1       2.972   5.829  18.641  0.00  0.00    +0.000 A 
ATOM      3  C   UNL     1       4.323   6.223  18.700  0.00  0.00    +0.000 A 
ATOM      4  C   UNL     1       5.352   5.376  18.296  0.00  0.00    +0.000 A 
ATOM      5  C   UNL     1       5.013   4.054  17.989  0.00  0.00    +0.000 A 
ATOM      6  C   UNL     1       3.678   3.604  17.996  0.00  0.00    +0.000 A 
ATOM      7  C   UNL     1       2.632   4.499  18.309  0.00  0.00    +0.000 A 
BRANCH   2   9
ATOM      8  C   UNL     1       2.025   7.324  20.225  0.00  0.00    +0.000 C 
ATOM      9  O   UNL     1       1.982   6.742  18.918  0.00  0.00    +0.000 OA
ENDBRANCH   2   9
BRANCH   6  10
ATOM     10  O   UNL     1       3.602   2.278  17.637  0.00  0.00    +0.000 OA
ATOM     11  C   UNL     1       3.688   1.274  18.638  0.00  0.00    +0.000 C 
ENDBRANCH   6  10
BRANCH   7  12
ATOM     12  O   UNL     1       1.367   3.977  18.287  0.00  0.00    +0.000 OA
ATOM     13  C   UNL     1       0.797   3.403  19.452  0.00  0.00    +0.000 C 
ENDBRANCH   7  12
ENDBRANCH   1   4
BRANCH   1  14
ATOM     14  C   UNL     1       7.160   6.343  16.720  0.00  0.00    +0.000 C 
ATOM     15  O   UNL     1       6.889   5.768  15.672  0.00  0.00    +0.000 OA
BRANCH  14  16
ATOM     16  O   UNL     1       7.808   7.541  16.790  0.00  0.00    +0.000 OA
BRANCH  16  17
ATOM     17  C   UNL     1       8.209   7.930  18.109  0.00  0.00    +0.000 C 
BRANCH  17  18
ATOM     18  C   UNL     1       8.437   9.436  18.273  0.00  0.00    +0.000 C 
ATOM     19  O   UNL     1       7.999  10.275  17.485  0.00  0.00    +0.000 OA
ATOM     20  N   UNL     1       9.188   9.784  19.389  0.00  0.00    +0.000 N 
ATOM     21  H   UNL     1       9.657   9.053  19.907  0.00  0.00    +0.000 HD
BRANCH  20  22
ATOM     22  C   UNL     1       9.495  11.164  19.697  0.00  0.00    +0.000 C 
ATOM     23  C   UNL     1       9.220  11.515  21.156  0.00  0.00    +0.000 C 
ATOM     24  C   UNL     1       9.968  12.828  21.348  0.00  0.00    +0.000 C 
ATOM     25  C   UNL     1      11.170  12.758  20.406  0.00  0.00    +0.000 C 
ATOM     26  C   UNL     1      10.972  11.508  19.546  0.00  0.00    +0.000 C 
ENDBRANCH  20  22
ENDBRANCH  17  18
ENDBRANCH  16  17
ENDBRANCH  14  16
ENDBRANCH   1  14
TORSDOF 9
ENDMDL
