MODEL 1
REMARK VINA RESULT:      -7.9      0.000      0.000
REMARK  Name = 
REMARK  5 active torsions:
REMARK  status: ('A' for Active; 'I' for Inactive)
REMARK    1  A    between atoms: C_1  and  C_2
REMARK    2  A    between atoms: C_6  and  C_7
REMARK    3  A    between atoms: N_17  and  C_18
REMARK    4  A    between atoms: C_18  and  C_19
REMARK    5  A    between atoms: C_19  and  N_20
REMARK                            x       y       z     vdW  Elec       q    Type
REMARK                         _______ _______ _______ _____ _____    ______ ____
ROOT
ATOM      1  C   UNL     1       6.673   4.525  13.849  0.00  0.00    +0.000 A 
ATOM      2  N   UNL     1       7.750   5.258  13.603  0.00  0.00    +0.000 NA
ATOM      3  N   UNL     1       8.121   5.903  14.760  0.00  0.00    +0.000 NA
ATOM      4  C   UNL     1       7.282   5.532  15.702  0.00  0.00    +0.000 A 
ATOM      5  C   UNL     1       7.179   5.868  17.061  0.00  0.00    +0.000 A 
ATOM      6  C   UNL     1       6.215   5.305  17.794  0.00  0.00    +0.000 A 
ATOM      7  C   UNL     1       5.271   4.326  17.149  0.00  0.00    +0.000 A 
ATOM      8  N   UNL     1       4.266   3.746  17.903  0.00  0.00    +0.000 N 
ATOM      9  C   UNL     1       3.610   4.423  19.027  0.00  0.00    +0.000 C 
ATOM     10  C   UNL     1       2.075   4.382  18.861  0.00  0.00    +0.000 C 
ATOM     11  N   UNL     1       1.510   3.024  18.694  0.00  0.00    +0.000 NA
ATOM     12  C   UNL     1       2.189   2.408  17.523  0.00  0.00    +0.000 C 
ATOM     13  C   UNL     1       3.735   2.407  17.587  0.00  0.00    +0.000 C 
ATOM     14  N   UNL     1       5.372   3.998  15.887  0.00  0.00    +0.000 NA
ATOM     15  N   UNL     1       6.367   4.635  15.196  0.00  0.00    +0.000 N 
ENDROOT
BRANCH   1  21
ATOM     16  C   UNL     1       6.271   0.427  10.975  0.00  0.00    +0.000 C 
ATOM     17  C   UNL     1       5.714   1.735  11.454  0.00  0.00    +0.000 A 
ATOM     18  C   UNL     1       4.484   2.211  10.993  0.00  0.00    +0.000 A 
ATOM     19  C   UNL     1       3.978   3.421  11.465  0.00  0.00    +0.000 A 
ATOM     20  C   UNL     1       4.701   4.168  12.398  0.00  0.00    +0.000 A 
ATOM     21  C   UNL     1       5.946   3.723  12.862  0.00  0.00    +0.000 A 
ATOM     22  C   UNL     1       6.436   2.496  12.388  0.00  0.00    +0.000 A 
ENDBRANCH   1  21
BRANCH  11  23
ATOM     23  C   UNL     1       1.674   2.181  19.897  0.00  0.00    +0.000 C 
BRANCH  23  24
ATOM     24  C   UNL     1       1.249   2.872  21.214  0.00  0.00    +0.000 C 
BRANCH  24  25
ATOM     25  N   UNL     1       2.328   2.855  22.203  0.00  0.00    +0.000 NA
ATOM     26  H   UNL     1       2.595   1.891  22.396  0.00  0.00    +0.000 HD
ATOM     27  H   UNL     1       1.975   3.230  23.082  0.00  0.00    +0.000 HD
ENDBRANCH  24  25
ENDBRANCH  23  24
ENDBRANCH  11  23
TORSDOF 4
ENDMDL
MODEL 2
REMARK VINA RESULT:      -7.7      0.342      1.352
REMARK  Name = 
REMARK  5 active torsions:
REMARK  status: ('A' for Active; 'I' for Inactive)
REMARK    1  A    between atoms: C_1  and  C_2
REMARK    2  A    between atoms: C_6  and  C_7
REMARK    3  A    between atoms: N_17  and  C_18
REMARK    4  A    between atoms: C_18  and  C_19
REMARK    5  A    between atoms: C_19  and  N_20
REMARK                            x       y       z     vdW  Elec       q    Type
REMARK                         _______ _______ _______ _____ _____    ______ ____
ROOT
ATOM      1  C   UNL     1       6.727   4.466  13.744  0.00  0.00    +0.000 A 
ATOM      2  N   UNL     1       7.784   5.222  13.486  0.00  0.00    +0.000 NA
ATOM      3  N   UNL     1       8.124   5.912  14.628  0.00  0.00    +0.000 NA
ATOM      4  C   UNL     1       7.286   5.547  15.572  0.00  0.00    +0.000 A 
ATOM      5  C   UNL     1       7.158   5.921  16.918  0.00  0.00    +0.000 A 
ATOM      6  C   UNL     1       6.202   5.352  17.658  0.00  0.00    +0.000 A 
ATOM      7  C   UNL     1       5.294   4.327  17.033  0.00  0.00    +0.000 A 
ATOM      8  N   UNL     1       4.298   3.741  17.795  0.00  0.00    +0.000 N 
ATOM      9  C   UNL     1       3.610   4.433  18.890  0.00  0.00    +0.000 C 
ATOM     10  C   UNL     1       2.079   4.342  18.710  0.00  0.00    +0.000 C 
ATOM     11  N   UNL     1       1.554   2.964  18.579  0.00  0.00    +0.000 NA
ATOM     12  C   UNL     1       2.264   2.332  17.434  0.00  0.00    +0.000 C 
ATOM     13  C   UNL     1       3.809   2.378  17.515  0.00  0.00    +0.000 C 
ATOM     14  N   UNL     1       5.418   3.964  15.784  0.00  0.00    +0.000 NA
ATOM     15  N   UNL     1       6.403   4.608  15.083  0.00  0.00    +0.000 N 
ENDROOT
BRANCH   1  21
ATOM     16  C   UNL     1       2.965   3.665  10.517  0.00  0.00    +0.000 C 
ATOM     17  C   UNL     1       4.219   3.192  11.189  0.00  0.00    +0.000 A 
ATOM     18  C   UNL     1       4.772   1.943  10.895  0.00  0.00    +0.000 A 
ATOM     19  C   UNL     1       5.949   1.531  11.519  0.00  0.00    +0.000 A 
ATOM     20  C   UNL     1       6.579   2.363  12.448  0.00  0.00    +0.000 A 
ATOM     21  C   UNL     1       6.034   3.613  12.774  0.00  0.00    +0.000 A 
ATOM     22  C   UNL     1       4.858   4.019  12.127  0.00  0.00    +0.000 A 
ENDBRANCH   1  21
BRANCH  11  23
ATOM     23  C   UNL     1       1.729   2.163  19.809  0.00  0.00    +0.000 C 
BRANCH  23  24
ATOM     24  C   UNL     1       1.276   2.884  21.101  0.00  0.00    +0.000 C 
BRANCH  24  25
ATOM     25  N   UNL     1       2.343   2.914  22.102  0.00  0.00    +0.000 NA
ATOM     26  H   UNL     1       2.510   1.972  22.448  0.00  0.00    +0.000 HD
ATOM     27  H   UNL     1       2.025   3.457  22.904  0.00  0.00    +0.000 HD
ENDBRANCH  24  25
ENDBRANCH  23  24
ENDBRANCH  11  23
TORSDOF 4
ENDMDL
MODEL 3
REMARK VINA RESULT:      -7.3      4.140      6.488
REMARK  Name = 
REMARK  5 active torsions:
REMARK  status: ('A' for Active; 'I' for Inactive)
REMARK    1  A    between atoms: C_1  and  C_2
REMARK    2  A    between atoms: C_6  and  C_7
REMARK    3  A    between atoms: N_17  and  C_18
REMARK    4  A    between atoms: C_18  and  C_19
REMARK    5  A    between atoms: C_19  and  N_20
REMARK                            x       y       z     vdW  Elec       q    Type
REMARK                         _______ _______ _______ _____ _____    ______ ____
ROOT
ATOM      1  C   UNL     1       4.660   4.008  18.734  0.00  0.00    +0.000 A 
ATOM      2  N   UNL     1       4.788   2.845  19.355  0.00  0.00    +0.000 NA
ATOM      3  N   UNL     1       3.869   2.784  20.377  0.00  0.00    +0.000 NA
ATOM      4  C   UNL     1       3.175   3.900  20.348  0.00  0.00    +0.000 A 
ATOM      5  C   UNL     1       2.123   4.379  21.142  0.00  0.00    +0.000 A 
ATOM      6  C   UNL     1       1.586   5.569  20.855  0.00  0.00    +0.000 A 
ATOM      7  C   UNL     1       2.119   6.359  19.690  0.00  0.00    +0.000 A 
ATOM      8  N   UNL     1       1.572   7.595  19.394  0.00  0.00    +0.000 N 
ATOM      9  C   UNL     1       1.020   8.496  20.412  0.00  0.00    +0.000 C 
ATOM     10  C   UNL     1       1.639   9.904  20.280  0.00  0.00    +0.000 C 
ATOM     11  N   UNL     1       1.498  10.516  18.940  0.00  0.00    +0.000 NA
ATOM     12  C   UNL     1       2.106   9.574  17.963  0.00  0.00    +0.000 C 
ATOM     13  C   UNL     1       1.559   8.128  18.019  0.00  0.00    +0.000 C 
ATOM     14  N   UNL     1       3.090   5.911  18.937  0.00  0.00    +0.000 NA
ATOM     15  N   UNL     1       3.604   4.697  19.309  0.00  0.00    +0.000 N 
ENDROOT
BRANCH   1  21
ATOM     16  C   UNL     1       5.895   3.924  13.868  0.00  0.00    +0.000 C 
ATOM     17  C   UNL     1       6.109   4.462  15.251  0.00  0.00    +0.000 A 
ATOM     18  C   UNL     1       7.083   5.432  15.508  0.00  0.00    +0.000 A 
ATOM     19  C   UNL     1       7.254   5.930  16.798  0.00  0.00    +0.000 A 
ATOM     20  C   UNL     1       6.457   5.458  17.844  0.00  0.00    +0.000 A 
ATOM     21  C   UNL     1       5.487   4.472  17.617  0.00  0.00    +0.000 A 
ATOM     22  C   UNL     1       5.317   3.991  16.310  0.00  0.00    +0.000 A 
ENDBRANCH   1  21
BRANCH  11  23
ATOM     23  C   UNL     1       0.093  10.805  18.584  0.00  0.00    +0.000 C 
BRANCH  23  24
ATOM     24  C   UNL     1      -0.287  12.301  18.675  0.00  0.00    +0.000 C 
BRANCH  24  25
ATOM     25  N   UNL     1      -1.068  12.729  17.514  0.00  0.00    +0.000 NA
ATOM     26  H   UNL     1      -0.640  13.556  17.103  0.00  0.00    +0.000 HD
ATOM     27  H   UNL     1      -1.993  13.019  17.830  0.00  0.00    +0.000 HD
ENDBRANCH  24  25
ENDBRANCH  23  24
ENDBRANCH  11  23
TORSDOF 4
ENDMDL
MODEL 4
REMARK VINA RESULT:      -7.1      4.292      7.007
REMARK  Name = 
REMARK  5 active torsions:
REMARK  status: ('A' for Active; 'I' for Inactive)
REMARK    1  A    between atoms: C_1  and  C_2
REMARK    2  A    between atoms: C_6  and  C_7
REMARK    3  A    between atoms: N_17  and  C_18
REMARK    4  A    between atoms: C_18  and  C_19
REMARK    5  A    between atoms: C_19  and  N_20
REMARK                            x       y       z     vdW  Elec       q    Type
REMARK                         _______ _______ _______ _____ _____    ______ ____
ROOT
ATOM      1  C   UNL     1       4.742   4.375  18.936  0.00  0.00    +0.000 A 
ATOM      2  N   UNL     1       4.847   3.160  19.454  0.00  0.00    +0.000 NA
ATOM      3  N   UNL     1       3.827   2.974  20.359  0.00  0.00    +0.000 NA
ATOM      4  C   UNL     1       3.098   4.068  20.360  0.00  0.00    +0.000 A 
ATOM      5  C   UNL     1       1.950   4.438  21.075  0.00  0.00    +0.000 A 
ATOM      6  C   UNL     1       1.402   5.635  20.846  0.00  0.00    +0.000 A 
ATOM      7  C   UNL     1       2.026   6.550  19.826  0.00  0.00    +0.000 A 
ATOM      8  N   UNL     1       1.466   7.794  19.591  0.00  0.00    +0.000 N 
ATOM      9  C   UNL     1       0.775   8.574  20.623  0.00  0.00    +0.000 C 
ATOM     10  C   UNL     1       1.351  10.005  20.694  0.00  0.00    +0.000 C 
ATOM     11  N   UNL     1       1.331  10.742  19.410  0.00  0.00    +0.000 NA
ATOM     12  C   UNL     1       2.075   9.918  18.421  0.00  0.00    +0.000 C 
ATOM     13  C   UNL     1       1.580   8.458  18.279  0.00  0.00    +0.000 C 
ATOM     14  N   UNL     1       3.088   6.205  19.145  0.00  0.00    +0.000 NA
ATOM     15  N   UNL     1       3.605   4.975  19.454  0.00  0.00    +0.000 N 
ENDROOT
BRANCH   1  21
ATOM     16  C   UNL     1       7.920   8.018  17.577  0.00  0.00    +0.000 C 
ATOM     17  C   UNL     1       7.225   6.723  17.275  0.00  0.00    +0.000 A 
ATOM     18  C   UNL     1       7.453   6.041  16.076  0.00  0.00    +0.000 A 
ATOM     19  C   UNL     1       6.810   4.830  15.824  0.00  0.00    +0.000 A 
ATOM     20  C   UNL     1       5.926   4.296  16.765  0.00  0.00    +0.000 A 
ATOM     21  C   UNL     1       5.665   4.970  17.966  0.00  0.00    +0.000 A 
ATOM     22  C   UNL     1       6.331   6.180  18.211  0.00  0.00    +0.000 A 
ENDBRANCH   1  21
BRANCH  11  23
ATOM     23  C   UNL     1      -0.038  11.026  18.931  0.00  0.00    +0.000 C 
BRANCH  23  24
ATOM     24  C   UNL     1      -0.287  12.509  18.572  0.00  0.00    +0.000 C 
BRANCH  24  25
ATOM     25  N   UNL     1      -1.221  12.642  17.453  0.00  0.00    +0.000 NA
ATOM     26  H   UNL     1      -1.536  13.608  17.388  0.00  0.00    +0.000 HD
ATOM     27  H   UNL     1      -2.053  12.087  17.651  0.00  0.00    +0.000 HD
ENDBRANCH  24  25
ENDBRANCH  23  24
ENDBRANCH  11  23
TORSDOF 4
ENDMDL
MODEL 5
REMARK VINA RESULT:      -6.7      3.736      6.531
REMARK  Name = 
REMARK  5 active torsions:
REMARK  status: ('A' for Active; 'I' for Inactive)
REMARK    1  A    between atoms: C_1  and  C_2
REMARK    2  A    between atoms: C_6  and  C_7
REMARK    3  A    between atoms: N_17  and  C_18
REMARK    4  A    between atoms: C_18  and  C_19
REMARK    5  A    between atoms: C_19  and  N_20
REMARK                            x       y       z     vdW  Elec       q    Type
REMARK                         _______ _______ _______ _____ _____    ______ ____
ROOT
ATOM      1  C   UNL     1       4.878   3.847  19.117  0.00  0.00    +0.000 A 
ATOM      2  N   UNL     1       5.056   2.596  19.517  0.00  0.00    +0.000 NA
ATOM      3  N   UNL     1       4.061   2.269  20.409  0.00  0.00    +0.000 NA
ATOM      4  C   UNL     1       3.274   3.316  20.520  0.00  0.00    +0.000 A 
ATOM      5  C   UNL     1       2.118   3.553  21.278  0.00  0.00    +0.000 A 
ATOM      6  C   UNL     1       1.503   4.734  21.168  0.00  0.00    +0.000 A 
ATOM      7  C   UNL     1       2.062   5.774  20.234  0.00  0.00    +0.000 A 
ATOM      8  N   UNL     1       1.432   7.002  20.123  0.00  0.00    +0.000 N 
ATOM      9  C   UNL     1       0.715   7.642  21.230  0.00  0.00    +0.000 C 
ATOM     10  C   UNL     1       1.213   9.090  21.432  0.00  0.00    +0.000 C 
ATOM     11  N   UNL     1       1.135   9.942  20.224  0.00  0.00    +0.000 NA
ATOM     12  C   UNL     1       1.909   9.257  19.154  0.00  0.00    +0.000 C 
ATOM     13  C   UNL     1       1.491   7.793  18.879  0.00  0.00    +0.000 C 
ATOM     14  N   UNL     1       3.131   5.554  19.514  0.00  0.00    +0.000 NA
ATOM     15  N   UNL     1       3.718   4.331  19.700  0.00  0.00    +0.000 N 
ENDROOT
BRANCH   1  21
ATOM     16  C   UNL     1       6.559   4.787  14.480  0.00  0.00    +0.000 C 
ATOM     17  C   UNL     1       6.590   5.069  15.953  0.00  0.00    +0.000 A 
ATOM     18  C   UNL     1       7.433   6.049  16.485  0.00  0.00    +0.000 A 
ATOM     19  C   UNL     1       7.433   6.306  17.855  0.00  0.00    +0.000 A 
ATOM     20  C   UNL     1       6.594   5.581  18.705  0.00  0.00    +0.000 A 
ATOM     21  C   UNL     1       5.754   4.580  18.199  0.00  0.00    +0.000 A 
ATOM     22  C   UNL     1       5.755   4.342  16.816  0.00  0.00    +0.000 A 
ENDBRANCH   1  21
BRANCH  11  23
ATOM     23  C   UNL     1      -0.254  10.194  19.787  0.00  0.00    +0.000 C 
BRANCH  23  24
ATOM     24  C   UNL     1      -0.372  11.138  18.568  0.00  0.00    +0.000 C 
BRANCH  24  25
ATOM     25  N   UNL     1      -1.098  10.507  17.466  0.00  0.00    +0.000 NA
ATOM     26  H   UNL     1      -1.668   9.745  17.829  0.00  0.00    +0.000 HD
ATOM     27  H   UNL     1      -0.425  10.077  16.832  0.00  0.00    +0.000 HD
ENDBRANCH  24  25
ENDBRANCH  23  24
ENDBRANCH  11  23
TORSDOF 4
ENDMDL
MODEL 6
REMARK VINA RESULT:      -6.2      9.260     11.988
REMARK  Name = 
REMARK  5 active torsions:
REMARK  status: ('A' for Active; 'I' for Inactive)
REMARK    1  A    between atoms: C_1  and  C_2
REMARK    2  A    between atoms: C_6  and  C_7
REMARK    3  A    between atoms: N_17  and  C_18
REMARK    4  A    between atoms: C_18  and  C_19
REMARK    5  A    between atoms: C_19  and  N_20
REMARK                            x       y       z     vdW  Elec       q    Type
REMARK                         _______ _______ _______ _____ _____    ______ ____
ROOT
ATOM      1  C   UNL     1       0.228   9.690  21.192  0.00  0.00    +0.000 A 
ATOM      2  N   UNL     1      -0.312   8.981  22.173  0.00  0.00    +0.000 NA
ATOM      3  N   UNL     1      -0.937   9.841  23.048  0.00  0.00    +0.000 NA
ATOM      4  C   UNL     1      -0.791  11.058  22.574  0.00  0.00    +0.000 A 
ATOM      5  C   UNL     1      -1.214  12.311  23.042  0.00  0.00    +0.000 A 
ATOM      6  C   UNL     1      -0.933  13.400  22.320  0.00  0.00    +0.000 A 
ATOM      7  C   UNL     1      -0.177  13.254  21.027  0.00  0.00    +0.000 A 
ATOM      8  N   UNL     1       0.123  14.380  20.280  0.00  0.00    +0.000 N 
ATOM      9  C   UNL     1       0.377  15.696  20.875  0.00  0.00    +0.000 C 
ATOM     10  C   UNL     1       1.711  16.277  20.354  0.00  0.00    +0.000 C 
ATOM     11  N   UNL     1       1.812  16.363  18.880  0.00  0.00    +0.000 NA
ATOM     12  C   UNL     1       1.581  14.996  18.344  0.00  0.00    +0.000 C 
ATOM     13  C   UNL     1       0.270  14.320  18.814  0.00  0.00    +0.000 C 
ATOM     14  N   UNL     1       0.207  12.087  20.578  0.00  0.00    +0.000 NA
ATOM     15  N   UNL     1      -0.095  11.023  21.385  0.00  0.00    +0.000 N 
ENDROOT
BRANCH   1  21
ATOM     16  C   UNL     1       3.174   6.114  19.256  0.00  0.00    +0.000 C 
ATOM     17  C   UNL     1       2.448   7.418  19.107  0.00  0.00    +0.000 A 
ATOM     18  C   UNL     1       2.486   8.135  17.907  0.00  0.00    +0.000 A 
ATOM     19  C   UNL     1       1.791   9.337  17.786  0.00  0.00    +0.000 A 
ATOM     20  C   UNL     1       1.056   9.835  18.865  0.00  0.00    +0.000 A 
ATOM     21  C   UNL     1       1.018   9.145  20.084  0.00  0.00    +0.000 A 
ATOM     22  C   UNL     1       1.711   7.930  20.186  0.00  0.00    +0.000 A 
ENDBRANCH   1  21
BRANCH  11  23
ATOM     23  C   UNL     1       0.853  17.324  18.294  0.00  0.00    +0.000 C 
BRANCH  23  24
ATOM     24  C   UNL     1       1.367  18.030  17.018  0.00  0.00    +0.000 C 
BRANCH  24  25
ATOM     25  N   UNL     1       0.264  18.557  16.214  0.00  0.00    +0.000 NA
ATOM     26  H   UNL     1      -0.306  19.177  16.785  0.00  0.00    +0.000 HD
ATOM     27  H   UNL     1      -0.344  17.784  15.943  0.00  0.00    +0.000 HD
ENDBRANCH  24  25
ENDBRANCH  23  24
ENDBRANCH  11  23
TORSDOF 4
ENDMDL
MODEL 7
REMARK VINA RESULT:      -6.2      8.375     11.238
REMARK  Name = 
REMARK  5 active torsions:
REMARK  status: ('A' for Active; 'I' for Inactive)
REMARK    1  A    between atoms: C_1  and  C_2
REMARK    2  A    between atoms: C_6  and  C_7
REMARK    3  A    between atoms: N_17  and  C_18
REMARK    4  A    between atoms: C_18  and  C_19
REMARK    5  A    between atoms: C_19  and  N_20
REMARK                            x       y       z     vdW  Elec       q    Type
REMARK                         _______ _______ _______ _____ _____    ______ ____
ROOT
ATOM      1  C   UNL     1       0.541   8.972  20.937  0.00  0.00    +0.000 A 
ATOM      2  N   UNL     1      -0.233   8.284  21.765  0.00  0.00    +0.000 NA
ATOM      3  N   UNL     1      -0.884   9.165  22.599  0.00  0.00    +0.000 NA
ATOM      4  C   UNL     1      -0.518  10.379  22.251  0.00  0.00    +0.000 A 
ATOM      5  C   UNL     1      -0.858  11.646  22.746  0.00  0.00    +0.000 A 
ATOM      6  C   UNL     1      -0.335  12.729  22.165  0.00  0.00    +0.000 A 
ATOM      7  C   UNL     1       0.598  12.563  20.996  0.00  0.00    +0.000 A 
ATOM      8  N   UNL     1       1.149  13.682  20.395  0.00  0.00    +0.000 N 
ATOM      9  C   UNL     1       1.458  14.916  21.124  0.00  0.00    +0.000 C 
ATOM     10  C   UNL     1       2.918  15.346  20.863  0.00  0.00    +0.000 C 
ATOM     11  N   UNL     1       3.267  15.506  19.434  0.00  0.00    +0.000 NA
ATOM     12  C   UNL     1       2.965  14.215  18.762  0.00  0.00    +0.000 C 
ATOM     13  C   UNL     1       1.524  13.690  18.969  0.00  0.00    +0.000 C 
ATOM     14  N   UNL     1       0.907  11.384  20.520  0.00  0.00    +0.000 NA
ATOM     15  N   UNL     1       0.352  10.323  21.184  0.00  0.00    +0.000 N 
ENDROOT
BRANCH   1  21
ATOM     16  C   UNL     1       3.708   5.384  19.422  0.00  0.00    +0.000 C 
ATOM     17  C   UNL     1       2.970   6.661  19.152  0.00  0.00    +0.000 A 
ATOM     18  C   UNL     1       3.090   7.321  17.925  0.00  0.00    +0.000 A 
ATOM     19  C   UNL     1       2.381   8.497  17.689  0.00  0.00    +0.000 A 
ATOM     20  C   UNL     1       1.551   9.028  18.680  0.00  0.00    +0.000 A 
ATOM     21  C   UNL     1       1.428   8.396  19.925  0.00  0.00    +0.000 A 
ATOM     22  C   UNL     1       2.137   7.205  20.142  0.00  0.00    +0.000 A 
ENDBRANCH   1  21
BRANCH  11  23
ATOM     23  C   UNL     1       2.539  16.617  18.785  0.00  0.00    +0.000 C 
BRANCH  23  24
ATOM     24  C   UNL     1       2.926  16.848  17.306  0.00  0.00    +0.000 C 
BRANCH  24  25
ATOM     25  N   UNL     1       2.142  17.928  16.707  0.00  0.00    +0.000 NA
ATOM     26  H   UNL     1       1.858  18.584  17.433  0.00  0.00    +0.000 HD
ATOM     27  H   UNL     1       1.280  17.538  16.328  0.00  0.00    +0.000 HD
ENDBRANCH  24  25
ENDBRANCH  23  24
ENDBRANCH  11  23
TORSDOF 4
ENDMDL
MODEL 8
REMARK VINA RESULT:      -6.1     10.630     12.951
REMARK  Name = 
REMARK  5 active torsions:
REMARK  status: ('A' for Active; 'I' for Inactive)
REMARK    1  A    between atoms: C_1  and  C_2
REMARK    2  A    between atoms: C_6  and  C_7
REMARK    3  A    between atoms: N_17  and  C_18
REMARK    4  A    between atoms: C_18  and  C_19
REMARK    5  A    between atoms: C_19  and  N_20
REMARK                            x       y       z     vdW  Elec       q    Type
REMARK                         _______ _______ _______ _____ _____    ______ ____
ROOT
ATOM      1  C   UNL     1      -1.194  10.721  18.889  0.00  0.00    +0.000 A 
ATOM      2  N   UNL     1      -0.009  10.131  18.818  0.00  0.00    +0.000 NA
ATOM      3  N   UNL     1       0.686  10.391  19.977  0.00  0.00    +0.000 NA
ATOM      4  C   UNL     1      -0.094  11.114  20.750  0.00  0.00    +0.000 A 
ATOM      5  C   UNL     1       0.088  11.661  22.028  0.00  0.00    +0.000 A 
ATOM      6  C   UNL     1      -0.915  12.348  22.586  0.00  0.00    +0.000 A 
ATOM      7  C   UNL     1      -2.207  12.511  21.833  0.00  0.00    +0.000 A 
ATOM      8  N   UNL     1      -3.245  13.228  22.404  0.00  0.00    +0.000 N 
ATOM      9  C   UNL     1      -3.037  14.360  23.314  0.00  0.00    +0.000 C 
ATOM     10  C   UNL     1      -3.838  15.591  22.837  0.00  0.00    +0.000 C 
ATOM     11  N   UNL     1      -5.287  15.351  22.658  0.00  0.00    +0.000 NA
ATOM     12  C   UNL     1      -5.429  14.221  21.701  0.00  0.00    +0.000 C 
ATOM     13  C   UNL     1      -4.655  12.937  22.085  0.00  0.00    +0.000 C 
ATOM     14  N   UNL     1      -2.388  11.991  20.647  0.00  0.00    +0.000 NA
ATOM     15  N   UNL     1      -1.308  11.324  20.132  0.00  0.00    +0.000 N 
ENDROOT
BRANCH   1  21
ATOM     16  C   UNL     1      -5.580  12.308  17.031  0.00  0.00    +0.000 C 
ATOM     17  C   UNL     1      -4.340  11.475  16.897  0.00  0.00    +0.000 A 
ATOM     18  C   UNL     1      -4.110  10.695  15.760  0.00  0.00    +0.000 A 
ATOM     19  C   UNL     1      -2.942   9.943  15.649  0.00  0.00    +0.000 A 
ATOM     20  C   UNL     1      -1.997   9.959  16.677  0.00  0.00    +0.000 A 
ATOM     21  C   UNL     1      -2.211  10.718  17.836  0.00  0.00    +0.000 A 
ATOM     22  C   UNL     1      -3.385  11.481  17.926  0.00  0.00    +0.000 A 
ENDBRANCH   1  21
BRANCH  11  23
ATOM     23  C   UNL     1      -5.982  15.053  23.928  0.00  0.00    +0.000 C 
BRANCH  23  24
ATOM     24  C   UNL     1      -7.483  14.717  23.763  0.00  0.00    +0.000 C 
BRANCH  24  25
ATOM     25  N   UNL     1      -7.900  13.655  24.679  0.00  0.00    +0.000 NA
ATOM     26  H   UNL     1      -7.769  12.750  24.230  0.00  0.00    +0.000 HD
ATOM     27  H   UNL     1      -8.902  13.742  24.849  0.00  0.00    +0.000 HD
ENDBRANCH  24  25
ENDBRANCH  23  24
ENDBRANCH  11  23
TORSDOF 4
ENDMDL
MODEL 9
REMARK VINA RESULT:      -6.1      3.020      8.244
REMARK  Name = 
REMARK  5 active torsions:
REMARK  status: ('A' for Active; 'I' for Inactive)
REMARK    1  A    between atoms: C_1  and  C_2
REMARK    2  A    between atoms: C_6  and  C_7
REMARK    3  A    between atoms: N_17  and  C_18
REMARK    4  A    between atoms: C_18  and  C_19
REMARK    5  A    between atoms: C_19  and  N_20
REMARK                            x       y       z     vdW  Elec       q    Type
REMARK                         _______ _______ _______ _____ _____    ______ ____
ROOT
ATOM      1  C   UNL     1       2.150   6.050  20.121  0.00  0.00    +0.000 A 
ATOM      2  N   UNL     1       1.635   5.485  21.203  0.00  0.00    +0.000 NA
ATOM      3  N   UNL     1       2.118   4.200  21.305  0.00  0.00    +0.000 NA
ATOM      4  C   UNL     1       2.941   4.009  20.299  0.00  0.00    +0.000 A 
ATOM      5  C   UNL     1       3.710   2.904  19.904  0.00  0.00    +0.000 A 
ATOM      6  C   UNL     1       4.489   3.012  18.823  0.00  0.00    +0.000 A 
ATOM      7  C   UNL     1       4.526   4.311  18.065  0.00  0.00    +0.000 A 
ATOM      8  N   UNL     1       5.326   4.424  16.941  0.00  0.00    +0.000 N 
ATOM      9  C   UNL     1       5.619   3.301  16.045  0.00  0.00    +0.000 C 
ATOM     10  C   UNL     1       5.311   3.683  14.581  0.00  0.00    +0.000 C 
ATOM     11  N   UNL     1       6.003   4.900  14.102  0.00  0.00    +0.000 NA
ATOM     12  C   UNL     1       5.638   6.005  15.029  0.00  0.00    +0.000 C 
ATOM     13  C   UNL     1       5.901   5.718  16.527  0.00  0.00    +0.000 C 
ATOM     14  N   UNL     1       3.823   5.349  18.437  0.00  0.00    +0.000 NA
ATOM     15  N   UNL     1       3.031   5.154  19.536  0.00  0.00    +0.000 N 
ENDROOT
BRANCH   1  21
ATOM     16  C   UNL     1       0.392  10.687  20.906  0.00  0.00    +0.000 C 
ATOM     17  C   UNL     1       1.007   9.671  19.990  0.00  0.00    +0.000 A 
ATOM     18  C   UNL     1       1.328   9.989  18.667  0.00  0.00    +0.000 A 
ATOM     19  C   UNL     1       1.914   9.033  17.839  0.00  0.00    +0.000 A 
ATOM     20  C   UNL     1       2.178   7.750  18.324  0.00  0.00    +0.000 A 
ATOM     21  C   UNL     1       1.849   7.401  19.640  0.00  0.00    +0.000 A 
ATOM     22  C   UNL     1       1.272   8.377  20.466  0.00  0.00    +0.000 A 
ENDBRANCH   1  21
BRANCH  11  23
ATOM     23  C   UNL     1       7.471   4.737  14.035  0.00  0.00    +0.000 C 
BRANCH  23  24
ATOM     24  C   UNL     1       8.130   5.446  12.829  0.00  0.00    +0.000 C 
BRANCH  24  25
ATOM     25  N   UNL     1       9.296   6.231  13.238  0.00  0.00    +0.000 NA
ATOM     26  H   UNL     1       9.983   6.234  12.486  0.00  0.00    +0.000 HD
ATOM     27  H   UNL     1       9.745   5.766  14.026  0.00  0.00    +0.000 HD
ENDBRANCH  24  25
ENDBRANCH  23  24
ENDBRANCH  11  23
TORSDOF 4
ENDMDL
