MODEL 1
REMARK VINA RESULT:      -8.5      0.000      0.000
REMARK  Name = 
REMARK  6 active torsions:
REMARK  status: ('A' for Active; 'I' for Inactive)
REMARK    1  A    between atoms: C_1  and  N_2
REMARK    2  A    between atoms: C_4  and  C_5
REMARK    3  A    between atoms: C_5  and  C_6
REMARK    4  A    between atoms: N_8  and  C_9
REMARK    5  A    between atoms: C_12  and  C_13
REMARK    6  A    between atoms: C_29  and  C_30
REMARK                            x       y       z     vdW  Elec       q    Type
REMARK                         _______ _______ _______ _____ _____    ______ ____
ROOT
ATOM      1  C   UNL     1      -1.067  12.172  18.901  0.00  0.00    +0.000 C 
ATOM      2  C   UNL     1      -1.143  11.521  17.467  0.00  0.00    +0.000 C 
ATOM      3  C   UNL     1      -2.086  10.299  17.440  0.00  0.00    +0.000 C 
ATOM      4  C   UNL     1      -3.519  10.712  17.731  0.00  0.00    +0.000 C 
ATOM      5  C   UNL     1      -3.630  11.470  19.043  0.00  0.00    +0.000 C 
ATOM      6  C   UNL     1      -2.561  12.546  19.219  0.00  0.00    +0.000 C 
ENDROOT
BRANCH   1  10
ATOM      7  C   UNL     1      -0.208   8.900  22.674  0.00  0.00    +0.000 C 
ATOM      8  N   UNL     1       0.009   9.644  21.452  0.00  0.00    +0.000 N 
ATOM      9  C   UNL     1      -0.625  10.818  21.127  0.00  0.00    +0.000 A 
ATOM     10  C   UNL     1      -0.359  11.121  19.801  0.00  0.00    +0.000 A 
ATOM     11  C   UNL     1       0.602  10.107  19.358  0.00  0.00    +0.000 A 
ATOM     12  C   UNL     1       1.271   9.822  18.140  0.00  0.00    +0.000 A 
ATOM     13  C   UNL     1       2.054   8.660  17.995  0.00  0.00    +0.000 A 
ATOM     14  C   UNL     1       2.226   7.777  19.052  0.00  0.00    +0.000 A 
ATOM     15  C   UNL     1       1.594   8.037  20.283  0.00  0.00    +0.000 A 
ATOM     16  C   UNL     1       0.781   9.203  20.409  0.00  0.00    +0.000 A 
BRANCH  14  17
ATOM     17  C   UNL     1       3.069   6.558  18.891  0.00  0.00    +0.000 C 
ATOM     18  N   UNL     1       3.808   6.365  17.824  0.00  0.00    +0.000 NA
ATOM     19  C   UNL     1       4.496   5.064  18.076  0.00  0.00    +0.000 C 
ATOM     20  C   UNL     1       4.332   4.787  19.570  0.00  0.00    +0.000 C 
ATOM     21  N   UNL     1       3.165   5.591  19.871  0.00  0.00    +0.000 N 
ATOM     22  H   UNL     1       3.082   5.916  20.827  0.00  0.00    +0.000 HD
ENDBRANCH  14  17
ENDBRANCH   1  10
BRANCH   1  23
ATOM     23  C   UNL     1      -0.303  13.526  18.960  0.00  0.00    +0.000 A 
ATOM     24  C   UNL     1      -0.808  14.736  19.410  0.00  0.00    +0.000 A 
ATOM     25  N   UNL     1       0.189  15.675  19.388  0.00  0.00    +0.000 N 
ATOM     26  C   UNL     1       0.018  17.071  19.727  0.00  0.00    +0.000 C 
ATOM     27  C   UNL     1       1.385  15.112  19.008  0.00  0.00    +0.000 A 
ATOM     28  C   UNL     1       2.675  15.686  18.920  0.00  0.00    +0.000 A 
ATOM     29  C   UNL     1       3.740  14.881  18.496  0.00  0.00    +0.000 A 
ATOM     30  C   UNL     1       3.515  13.536  18.194  0.00  0.00    +0.000 A 
ATOM     31  C   UNL     1       2.222  12.976  18.301  0.00  0.00    +0.000 A 
ATOM     32  C   UNL     1       1.120  13.770  18.708  0.00  0.00    +0.000 A 
BRANCH  29  33
ATOM     33  C   UNL     1       5.098  15.490  18.379  0.00  0.00    +0.000 C 
ATOM     34  N   UNL     1       6.115  14.814  17.905  0.00  0.00    +0.000 NA
ATOM     35  C   UNL     1       7.283  15.732  18.007  0.00  0.00    +0.000 C 
ATOM     36  C   UNL     1       6.791  17.009  18.686  0.00  0.00    +0.000 C 
ATOM     37  N   UNL     1       5.364  16.777  18.790  0.00  0.00    +0.000 N 
ATOM     38  H   UNL     1       4.938  17.041  19.672  0.00  0.00    +0.000 HD
ENDBRANCH  29  33
ENDBRANCH   1  23
TORSDOF 4
ENDMDL
MODEL 2
REMARK VINA RESULT:      -8.4      0.959      1.029
REMARK  Name = 
REMARK  6 active torsions:
REMARK  status: ('A' for Active; 'I' for Inactive)
REMARK    1  A    between atoms: C_1  and  N_2
REMARK    2  A    between atoms: C_4  and  C_5
REMARK    3  A    between atoms: C_5  and  C_6
REMARK    4  A    between atoms: N_8  and  C_9
REMARK    5  A    between atoms: C_12  and  C_13
REMARK    6  A    between atoms: C_29  and  C_30
REMARK                            x       y       z     vdW  Elec       q    Type
REMARK                         _______ _______ _______ _____ _____    ______ ____
ROOT
ATOM      1  C   UNL     1      -0.767  12.980  19.775  0.00  0.00    +0.000 C 
ATOM      2  C   UNL     1      -0.969  12.465  18.298  0.00  0.00    +0.000 C 
ATOM      3  C   UNL     1      -2.062  11.379  18.214  0.00  0.00    +0.000 C 
ATOM      4  C   UNL     1      -3.422  11.944  18.593  0.00  0.00    +0.000 C 
ATOM      5  C   UNL     1      -3.394  12.599  19.964  0.00  0.00    +0.000 C 
ATOM      6  C   UNL     1      -2.190  13.513  20.181  0.00  0.00    +0.000 C 
ENDROOT
BRANCH   1  10
ATOM      7  C   UNL     1      -0.204   9.354  23.271  0.00  0.00    +0.000 C 
ATOM      8  N   UNL     1       0.057  10.146  22.088  0.00  0.00    +0.000 N 
ATOM      9  C   UNL     1      -0.414  11.419  21.878  0.00  0.00    +0.000 A 
ATOM     10  C   UNL     1      -0.175  11.776  20.560  0.00  0.00    +0.000 A 
ATOM     11  C   UNL     1       0.604  10.670  19.996  0.00  0.00    +0.000 A 
ATOM     12  C   UNL     1       1.161  10.383  18.724  0.00  0.00    +0.000 A 
ATOM     13  C   UNL     1       1.758   9.135  18.457  0.00  0.00    +0.000 A 
ATOM     14  C   UNL     1       1.853   8.162  19.443  0.00  0.00    +0.000 A 
ATOM     15  C   UNL     1       1.329   8.420  20.724  0.00  0.00    +0.000 A 
ATOM     16  C   UNL     1       0.703   9.677  20.973  0.00  0.00    +0.000 A 
BRANCH  14  17
ATOM     17  C   UNL     1       2.499   6.851  19.152  0.00  0.00    +0.000 C 
ATOM     18  N   UNL     1       2.612   6.391  17.928  0.00  0.00    +0.000 NA
ATOM     19  C   UNL     1       3.327   5.090  18.081  0.00  0.00    +0.000 C 
ATOM     20  C   UNL     1       3.925   5.105  19.488  0.00  0.00    +0.000 C 
ATOM     21  N   UNL     1       3.064   6.070  20.140  0.00  0.00    +0.000 N 
ATOM     22  H   UNL     1       3.468   6.569  20.925  0.00  0.00    +0.000 HD
ENDBRANCH  14  17
ENDBRANCH   1  10
BRANCH   1  23
ATOM     23  C   UNL     1       0.168  14.216  19.910  0.00  0.00    +0.000 A 
ATOM     24  C   UNL     1      -0.077  15.353  20.665  0.00  0.00    +0.000 A 
ATOM     25  N   UNL     1       1.014  16.179  20.598  0.00  0.00    +0.000 N 
ATOM     26  C   UNL     1       1.098  17.488  21.208  0.00  0.00    +0.000 C 
ATOM     27  C   UNL     1       2.030  15.595  19.878  0.00  0.00    +0.000 A 
ATOM     28  C   UNL     1       3.343  16.051  19.620  0.00  0.00    +0.000 A 
ATOM     29  C   UNL     1       4.191  15.251  18.843  0.00  0.00    +0.000 A 
ATOM     30  C   UNL     1       3.735  14.022  18.362  0.00  0.00    +0.000 A 
ATOM     31  C   UNL     1       2.424  13.575  18.640  0.00  0.00    +0.000 A 
ATOM     32  C   UNL     1       1.536  14.372  19.408  0.00  0.00    +0.000 A 
BRANCH  29  33
ATOM     33  C   UNL     1       5.570  15.742  18.549  0.00  0.00    +0.000 C 
ATOM     34  N   UNL     1       6.514  14.930  18.141  0.00  0.00    +0.000 NA
ATOM     35  C   UNL     1       7.736  15.773  18.020  0.00  0.00    +0.000 C 
ATOM     36  C   UNL     1       7.362  17.175  18.500  0.00  0.00    +0.000 C 
ATOM     37  N   UNL     1       5.935  17.058  18.721  0.00  0.00    +0.000 N 
ATOM     38  H   UNL     1       5.583  17.492  19.568  0.00  0.00    +0.000 HD
ENDBRANCH  29  33
ENDBRANCH   1  23
TORSDOF 4
ENDMDL
MODEL 3
REMARK VINA RESULT:      -8.4      2.957      6.659
REMARK  Name = 
REMARK  6 active torsions:
REMARK  status: ('A' for Active; 'I' for Inactive)
REMARK    1  A    between atoms: C_1  and  N_2
REMARK    2  A    between atoms: C_4  and  C_5
REMARK    3  A    between atoms: C_5  and  C_6
REMARK    4  A    between atoms: N_8  and  C_9
REMARK    5  A    between atoms: C_12  and  C_13
REMARK    6  A    between atoms: C_29  and  C_30
REMARK                            x       y       z     vdW  Elec       q    Type
REMARK                         _______ _______ _______ _____ _____    ______ ____
ROOT
ATOM      1  C   UNL     1       0.301  12.483  19.525  0.00  0.00    +0.000 C 
ATOM      2  C   UNL     1       0.821  13.616  20.491  0.00  0.00    +0.000 C 
ATOM      3  C   UNL     1       2.358  13.745  20.449  0.00  0.00    +0.000 C 
ATOM      4  C   UNL     1       2.830  14.191  19.075  0.00  0.00    +0.000 C 
ATOM      5  C   UNL     1       2.320  13.270  17.980  0.00  0.00    +0.000 C 
ATOM      6  C   UNL     1       0.839  12.922  18.114  0.00  0.00    +0.000 C 
ENDROOT
BRANCH   1  10
ATOM      7  C   UNL     1       0.727   8.461  22.578  0.00  0.00    +0.000 C 
ATOM      8  N   UNL     1       0.982   9.347  21.462  0.00  0.00    +0.000 N 
ATOM      9  C   UNL     1       0.640  10.675  21.422  0.00  0.00    +0.000 A 
ATOM     10  C   UNL     1       0.815  11.147  20.131  0.00  0.00    +0.000 A 
ATOM     11  C   UNL     1       1.422  10.036  19.393  0.00  0.00    +0.000 A 
ATOM     12  C   UNL     1       1.845   9.833  18.055  0.00  0.00    +0.000 A 
ATOM     13  C   UNL     1       2.278   8.567  17.613  0.00  0.00    +0.000 A 
ATOM     14  C   UNL     1       2.340   7.489  18.485  0.00  0.00    +0.000 A 
ATOM     15  C   UNL     1       1.948   7.658  19.826  0.00  0.00    +0.000 A 
ATOM     16  C   UNL     1       1.485   8.937  20.254  0.00  0.00    +0.000 A 
BRANCH  14  17
ATOM     17  C   UNL     1       2.814   6.157  18.010  0.00  0.00    +0.000 C 
ATOM     18  N   UNL     1       4.015   5.990  17.506  0.00  0.00    +0.000 NA
ATOM     19  C   UNL     1       4.087   4.534  17.189  0.00  0.00    +0.000 C 
ATOM     20  C   UNL     1       2.930   3.882  17.945  0.00  0.00    +0.000 C 
ATOM     21  N   UNL     1       2.046   5.017  18.120  0.00  0.00    +0.000 N 
ATOM     22  H   UNL     1       1.422   4.976  18.918  0.00  0.00    +0.000 HD
ENDBRANCH  14  17
ENDBRANCH   1  10
BRANCH   1  23
ATOM     23  C   UNL     1      -1.245  12.432  19.356  0.00  0.00    +0.000 A 
ATOM     24  C   UNL     1      -1.937  11.927  18.266  0.00  0.00    +0.000 A 
ATOM     25  N   UNL     1      -3.281  11.979  18.523  0.00  0.00    +0.000 N 
ATOM     26  C   UNL     1      -4.317  11.598  17.589  0.00  0.00    +0.000 C 
ATOM     27  C   UNL     1      -3.519  12.436  19.799  0.00  0.00    +0.000 A 
ATOM     28  C   UNL     1      -4.737  12.579  20.502  0.00  0.00    +0.000 A 
ATOM     29  C   UNL     1      -4.702  13.079  21.811  0.00  0.00    +0.000 A 
ATOM     30  C   UNL     1      -3.476  13.401  22.397  0.00  0.00    +0.000 A 
ATOM     31  C   UNL     1      -2.267  13.239  21.684  0.00  0.00    +0.000 A 
ATOM     32  C   UNL     1      -2.272  12.754  20.351  0.00  0.00    +0.000 A 
BRANCH  29  33
ATOM     33  C   UNL     1      -5.989  13.254  22.547  0.00  0.00    +0.000 C 
ATOM     34  N   UNL     1      -6.692  12.225  22.953  0.00  0.00    +0.000 NA
ATOM     35  C   UNL     1      -7.913  12.803  23.579  0.00  0.00    +0.000 C 
ATOM     36  C   UNL     1      -7.836  14.318  23.396  0.00  0.00    +0.000 C 
ATOM     37  N   UNL     1      -6.522  14.495  22.811  0.00  0.00    +0.000 N 
ATOM     38  H   UNL     1      -6.467  15.156  22.044  0.00  0.00    +0.000 HD
ENDBRANCH  29  33
ENDBRANCH   1  23
TORSDOF 4
ENDMDL
MODEL 4
REMARK VINA RESULT:      -8.0      0.784      7.160
REMARK  Name = 
REMARK  6 active torsions:
REMARK  status: ('A' for Active; 'I' for Inactive)
REMARK    1  A    between atoms: C_1  and  N_2
REMARK    2  A    between atoms: C_4  and  C_5
REMARK    3  A    between atoms: C_5  and  C_6
REMARK    4  A    between atoms: N_8  and  C_9
REMARK    5  A    between atoms: C_12  and  C_13
REMARK    6  A    between atoms: C_29  and  C_30
REMARK                            x       y       z     vdW  Elec       q    Type
REMARK                         _______ _______ _______ _____ _____    ______ ____
ROOT
ATOM      1  C   UNL     1      -1.270  11.419  18.916  0.00  0.00    +0.000 C 
ATOM      2  C   UNL     1      -2.739  11.481  19.488  0.00  0.00    +0.000 C 
ATOM      3  C   UNL     1      -3.693  12.236  18.539  0.00  0.00    +0.000 C 
ATOM      4  C   UNL     1      -3.846  11.496  17.220  0.00  0.00    +0.000 C 
ATOM      5  C   UNL     1      -2.500  11.236  16.563  0.00  0.00    +0.000 C 
ATOM      6  C   UNL     1      -1.443  10.702  17.527  0.00  0.00    +0.000 C 
ENDROOT
BRANCH   1  10
ATOM      7  C   UNL     1      -0.785  16.312  20.143  0.00  0.00    +0.000 C 
ATOM      8  N   UNL     1      -0.512  15.044  19.502  0.00  0.00    +0.000 N 
ATOM      9  C   UNL     1      -1.415  14.017  19.380  0.00  0.00    +0.000 A 
ATOM     10  C   UNL     1      -0.752  12.884  18.934  0.00  0.00    +0.000 A 
ATOM     11  C   UNL     1       0.620  13.323  18.660  0.00  0.00    +0.000 A 
ATOM     12  C   UNL     1       1.802  12.690  18.200  0.00  0.00    +0.000 A 
ATOM     13  C   UNL     1       3.031  13.379  18.170  0.00  0.00    +0.000 A 
ATOM     14  C   UNL     1       3.114  14.710  18.553  0.00  0.00    +0.000 A 
ATOM     15  C   UNL     1       1.957  15.378  18.995  0.00  0.00    +0.000 A 
ATOM     16  C   UNL     1       0.724  14.662  19.048  0.00  0.00    +0.000 A 
BRANCH  14  17
ATOM     17  C   UNL     1       4.417  15.433  18.502  0.00  0.00    +0.000 C 
ATOM     18  N   UNL     1       4.629  16.526  19.197  0.00  0.00    +0.000 NA
ATOM     19  C   UNL     1       6.039  16.901  18.883  0.00  0.00    +0.000 C 
ATOM     20  C   UNL     1       6.670  15.662  18.248  0.00  0.00    +0.000 C 
ATOM     21  N   UNL     1       5.491  14.971  17.769  0.00  0.00    +0.000 N 
ATOM     22  H   UNL     1       5.570  13.964  17.681  0.00  0.00    +0.000 HD
ENDBRANCH  14  17
ENDBRANCH   1  10
BRANCH   1  23
ATOM     23  C   UNL     1      -0.300  10.501  19.713  0.00  0.00    +0.000 A 
ATOM     24  C   UNL     1      -0.256  10.350  21.091  0.00  0.00    +0.000 A 
ATOM     25  N   UNL     1       0.670   9.393  21.409  0.00  0.00    +0.000 N 
ATOM     26  C   UNL     1       1.037   9.013  22.755  0.00  0.00    +0.000 C 
ATOM     27  C   UNL     1       1.204   8.830  20.273  0.00  0.00    +0.000 A 
ATOM     28  C   UNL     1       2.128   7.769  20.131  0.00  0.00    +0.000 A 
ATOM     29  C   UNL     1       2.515   7.386  18.840  0.00  0.00    +0.000 A 
ATOM     30  C   UNL     1       1.971   8.036  17.731  0.00  0.00    +0.000 A 
ATOM     31  C   UNL     1       1.038   9.085  17.892  0.00  0.00    +0.000 A 
ATOM     32  C   UNL     1       0.641   9.509  19.186  0.00  0.00    +0.000 A 
BRANCH  29  33
ATOM     33  C   UNL     1       3.509   6.282  18.687  0.00  0.00    +0.000 C 
ATOM     34  N   UNL     1       3.976   5.936  17.513  0.00  0.00    +0.000 NA
ATOM     35  C   UNL     1       4.877   4.779  17.769  0.00  0.00    +0.000 C 
ATOM     36  C   UNL     1       4.790   4.466  19.263  0.00  0.00    +0.000 C 
ATOM     37  N   UNL     1       3.964   5.548  19.759  0.00  0.00    +0.000 N 
ATOM     38  H   UNL     1       3.250   5.284  20.430  0.00  0.00    +0.000 HD
ENDBRANCH  29  33
ENDBRANCH   1  23
TORSDOF 4
ENDMDL
MODEL 5
REMARK VINA RESULT:      -7.7      1.611      2.742
REMARK  Name = 
REMARK  6 active torsions:
REMARK  status: ('A' for Active; 'I' for Inactive)
REMARK    1  A    between atoms: C_1  and  N_2
REMARK    2  A    between atoms: C_4  and  C_5
REMARK    3  A    between atoms: C_5  and  C_6
REMARK    4  A    between atoms: N_8  and  C_9
REMARK    5  A    between atoms: C_12  and  C_13
REMARK    6  A    between atoms: C_29  and  C_30
REMARK                            x       y       z     vdW  Elec       q    Type
REMARK                         _______ _______ _______ _____ _____    ______ ____
ROOT
ATOM      1  C   UNL     1      -1.434  13.422  20.644  0.00  0.00    +0.000 C 
ATOM      2  C   UNL     1      -2.957  13.752  20.884  0.00  0.00    +0.000 C 
ATOM      3  C   UNL     1      -3.666  12.639  21.685  0.00  0.00    +0.000 C 
ATOM      4  C   UNL     1      -3.091  12.529  23.088  0.00  0.00    +0.000 C 
ATOM      5  C   UNL     1      -1.585  12.323  23.064  0.00  0.00    +0.000 C 
ATOM      6  C   UNL     1      -0.857  13.255  22.098  0.00  0.00    +0.000 C 
ENDROOT
BRANCH   1  10
ATOM      7  C   UNL     1      -2.093  10.543  16.527  0.00  0.00    +0.000 C 
ATOM      8  N   UNL     1      -1.675  10.925  17.859  0.00  0.00    +0.000 N 
ATOM      9  C   UNL     1      -2.204  11.968  18.576  0.00  0.00    +0.000 A 
ATOM     10  C   UNL     1      -1.416  12.192  19.694  0.00  0.00    +0.000 A 
ATOM     11  C   UNL     1      -0.421  11.115  19.687  0.00  0.00    +0.000 A 
ATOM     12  C   UNL     1       0.672  10.754  20.515  0.00  0.00    +0.000 A 
ATOM     13  C   UNL     1       1.545   9.709  20.152  0.00  0.00    +0.000 A 
ATOM     14  C   UNL     1       1.338   8.975  18.992  0.00  0.00    +0.000 A 
ATOM     15  C   UNL     1       0.251   9.292  18.156  0.00  0.00    +0.000 A 
ATOM     16  C   UNL     1      -0.609  10.370  18.519  0.00  0.00    +0.000 A 
BRANCH  14  17
ATOM     17  C   UNL     1       2.259   7.862  18.626  0.00  0.00    +0.000 C 
ATOM     18  N   UNL     1       3.124   7.974  17.644  0.00  0.00    +0.000 NA
ATOM     19  C   UNL     1       3.848   6.669  17.634  0.00  0.00    +0.000 C 
ATOM     20  C   UNL     1       3.533   6.005  18.974  0.00  0.00    +0.000 C 
ATOM     21  N   UNL     1       2.297   6.673  19.326  0.00  0.00    +0.000 N 
ATOM     22  H   UNL     1       2.090   6.733  20.316  0.00  0.00    +0.000 HD
ENDBRANCH  14  17
ENDBRANCH   1  10
BRANCH   1  23
ATOM     23  C   UNL     1      -0.606  14.586  20.026  0.00  0.00    +0.000 A 
ATOM     24  C   UNL     1      -1.090  15.830  19.653  0.00  0.00    +0.000 A 
ATOM     25  N   UNL     1      -0.046  16.609  19.230  0.00  0.00    +0.000 N 
ATOM     26  C   UNL     1      -0.175  17.950  18.703  0.00  0.00    +0.000 C 
ATOM     27  C   UNL     1       1.152  15.949  19.380  0.00  0.00    +0.000 A 
ATOM     28  C   UNL     1       2.473  16.394  19.142  0.00  0.00    +0.000 A 
ATOM     29  C   UNL     1       3.532  15.507  19.376  0.00  0.00    +0.000 A 
ATOM     30  C   UNL     1       3.267  14.223  19.856  0.00  0.00    +0.000 A 
ATOM     31  C   UNL     1       1.941  13.799  20.101  0.00  0.00    +0.000 A 
ATOM     32  C   UNL     1       0.847  14.668  19.855  0.00  0.00    +0.000 A 
BRANCH  29  33
ATOM     33  C   UNL     1       4.926  15.966  19.103  0.00  0.00    +0.000 C 
ATOM     34  N   UNL     1       5.258  17.232  19.174  0.00  0.00    +0.000 NA
ATOM     35  C   UNL     1       6.692  17.287  18.780  0.00  0.00    +0.000 C 
ATOM     36  C   UNL     1       7.107  15.867  18.395  0.00  0.00    +0.000 C 
ATOM     37  N   UNL     1       5.927  15.097  18.732  0.00  0.00    +0.000 N 
ATOM     38  H   UNL     1       5.653  14.393  18.055  0.00  0.00    +0.000 HD
ENDBRANCH  29  33
ENDBRANCH   1  23
TORSDOF 4
ENDMDL
MODEL 6
REMARK VINA RESULT:      -7.6      1.620      1.744
REMARK  Name = 
REMARK  6 active torsions:
REMARK  status: ('A' for Active; 'I' for Inactive)
REMARK    1  A    between atoms: C_1  and  N_2
REMARK    2  A    between atoms: C_4  and  C_5
REMARK    3  A    between atoms: C_5  and  C_6
REMARK    4  A    between atoms: N_8  and  C_9
REMARK    5  A    between atoms: C_12  and  C_13
REMARK    6  A    between atoms: C_29  and  C_30
REMARK                            x       y       z     vdW  Elec       q    Type
REMARK                         _______ _______ _______ _____ _____    ______ ____
ROOT
ATOM      1  C   UNL     1      -0.864  12.945  19.558  0.00  0.00    +0.000 C 
ATOM      2  C   UNL     1      -1.410  12.309  18.222  0.00  0.00    +0.000 C 
ATOM      3  C   UNL     1      -2.550  11.304  18.489  0.00  0.00    +0.000 C 
ATOM      4  C   UNL     1      -3.762  12.002  19.083  0.00  0.00    +0.000 C 
ATOM      5  C   UNL     1      -3.403  12.780  20.338  0.00  0.00    +0.000 C 
ATOM      6  C   UNL     1      -2.135  13.618  20.195  0.00  0.00    +0.000 C 
ENDROOT
BRANCH   1  10
ATOM      7  C   UNL     1       0.046   9.403  23.066  0.00  0.00    +0.000 C 
ATOM      8  N   UNL     1       0.207  10.187  21.861  0.00  0.00    +0.000 N 
ATOM      9  C   UNL     1      -0.330  11.434  21.660  0.00  0.00    +0.000 A 
ATOM     10  C   UNL     1      -0.178  11.780  20.326  0.00  0.00    +0.000 A 
ATOM     11  C   UNL     1       0.616  10.700  19.735  0.00  0.00    +0.000 A 
ATOM     12  C   UNL     1       1.116  10.416  18.438  0.00  0.00    +0.000 A 
ATOM     13  C   UNL     1       1.751   9.191  18.156  0.00  0.00    +0.000 A 
ATOM     14  C   UNL     1       1.941   8.239  19.148  0.00  0.00    +0.000 A 
ATOM     15  C   UNL     1       1.477   8.494  20.452  0.00  0.00    +0.000 A 
ATOM     16  C   UNL     1       0.811   9.727  20.719  0.00  0.00    +0.000 A 
BRANCH  14  17
ATOM     17  C   UNL     1       2.627   6.952  18.841  0.00  0.00    +0.000 C 
ATOM     18  N   UNL     1       3.551   6.865  17.912  0.00  0.00    +0.000 NA
ATOM     19  C   UNL     1       3.985   5.438  17.949  0.00  0.00    +0.000 C 
ATOM     20  C   UNL     1       3.461   4.874  19.269  0.00  0.00    +0.000 C 
ATOM     21  N   UNL     1       2.374   5.792  19.545  0.00  0.00    +0.000 N 
ATOM     22  H   UNL     1       2.128   5.910  20.521  0.00  0.00    +0.000 HD
ENDBRANCH  14  17
ENDBRANCH   1  10
BRANCH   1  23
ATOM     23  C   UNL     1       0.141  14.116  19.358  0.00  0.00    +0.000 A 
ATOM     24  C   UNL     1      -0.114  15.316  18.711  0.00  0.00    +0.000 A 
ATOM     25  N   UNL     1       0.988  16.123  18.813  0.00  0.00    +0.000 N 
ATOM     26  C   UNL     1       1.115  17.429  18.204  0.00  0.00    +0.000 C 
ATOM     27  C   UNL     1       1.962  15.531  19.584  0.00  0.00    +0.000 A 
ATOM     28  C   UNL     1       3.216  16.027  20.007  0.00  0.00    +0.000 A 
ATOM     29  C   UNL     1       4.031  15.206  20.796  0.00  0.00    +0.000 A 
ATOM     30  C   UNL     1       3.585  13.936  21.165  0.00  0.00    +0.000 A 
ATOM     31  C   UNL     1       2.322  13.460  20.745  0.00  0.00    +0.000 A 
ATOM     32  C   UNL     1       1.482  14.261  19.929  0.00  0.00    +0.000 A 
BRANCH  29  33
ATOM     33  C   UNL     1       5.367  15.719  21.224  0.00  0.00    +0.000 C 
ATOM     34  N   UNL     1       6.114  15.060  22.076  0.00  0.00    +0.000 NA
ATOM     35  C   UNL     1       7.316  15.913  22.290  0.00  0.00    +0.000 C 
ATOM     36  C   UNL     1       7.102  17.197  21.490  0.00  0.00    +0.000 C 
ATOM     37  N   UNL     1       5.871  16.919  20.778  0.00  0.00    +0.000 N 
ATOM     38  H   UNL     1       5.200  17.679  20.744  0.00  0.00    +0.000 HD
ENDBRANCH  29  33
ENDBRANCH   1  23
TORSDOF 4
ENDMDL
MODEL 7
REMARK VINA RESULT:      -7.6      3.017      8.318
REMARK  Name = 
REMARK  6 active torsions:
REMARK  status: ('A' for Active; 'I' for Inactive)
REMARK    1  A    between atoms: C_1  and  N_2
REMARK    2  A    between atoms: C_4  and  C_5
REMARK    3  A    between atoms: C_5  and  C_6
REMARK    4  A    between atoms: N_8  and  C_9
REMARK    5  A    between atoms: C_12  and  C_13
REMARK    6  A    between atoms: C_29  and  C_30
REMARK                            x       y       z     vdW  Elec       q    Type
REMARK                         _______ _______ _______ _____ _____    ______ ____
ROOT
ATOM      1  C   UNL     1       0.629  12.092  19.610  0.00  0.00    +0.000 C 
ATOM      2  C   UNL     1       1.422  12.604  18.346  0.00  0.00    +0.000 C 
ATOM      3  C   UNL     1       1.237  14.120  18.128  0.00  0.00    +0.000 C 
ATOM      4  C   UNL     1       1.835  14.912  19.279  0.00  0.00    +0.000 C 
ATOM      5  C   UNL     1       1.268  14.471  20.619  0.00  0.00    +0.000 C 
ATOM      6  C   UNL     1       1.214  12.954  20.789  0.00  0.00    +0.000 C 
ENDROOT
BRANCH   1  10
ATOM      7  C   UNL     1      -3.831  11.459  17.290  0.00  0.00    +0.000 C 
ATOM      8  N   UNL     1      -2.860  11.943  18.249  0.00  0.00    +0.000 N 
ATOM      9  C   UNL     1      -1.501  11.943  18.054  0.00  0.00    +0.000 A 
ATOM     10  C   UNL     1      -0.875  12.249  19.252  0.00  0.00    +0.000 A 
ATOM     11  C   UNL     1      -1.960  12.570  20.184  0.00  0.00    +0.000 A 
ATOM     12  C   UNL     1      -2.031  12.948  21.549  0.00  0.00    +0.000 A 
ATOM     13  C   UNL     1      -3.270  13.058  22.210  0.00  0.00    +0.000 A 
ATOM     14  C   UNL     1      -4.462  12.837  21.534  0.00  0.00    +0.000 A 
ATOM     15  C   UNL     1      -4.432  12.480  20.172  0.00  0.00    +0.000 A 
ATOM     16  C   UNL     1      -3.170  12.344  19.522  0.00  0.00    +0.000 A 
BRANCH  14  17
ATOM     17  C   UNL     1      -5.769  12.970  22.239  0.00  0.00    +0.000 C 
ATOM     18  N   UNL     1      -6.845  13.404  21.626  0.00  0.00    +0.000 NA
ATOM     19  C   UNL     1      -7.913  13.359  22.668  0.00  0.00    +0.000 C 
ATOM     20  C   UNL     1      -7.364  12.482  23.793  0.00  0.00    +0.000 C 
ATOM     21  N   UNL     1      -5.939  12.597  23.557  0.00  0.00    +0.000 N 
ATOM     22  H   UNL     1      -5.371  11.821  23.877  0.00  0.00    +0.000 HD
ENDBRANCH  14  17
ENDBRANCH   1  10
BRANCH   1  23
ATOM     23  C   UNL     1       0.931  10.620  20.015  0.00  0.00    +0.000 A 
ATOM     24  C   UNL     1       0.461   9.964  21.142  0.00  0.00    +0.000 A 
ATOM     25  N   UNL     1       0.873   8.659  21.107  0.00  0.00    +0.000 N 
ATOM     26  C   UNL     1       0.627   7.686  22.148  0.00  0.00    +0.000 C 
ATOM     27  C   UNL     1       1.549   8.389  19.939  0.00  0.00    +0.000 A 
ATOM     28  C   UNL     1       2.079   7.171  19.455  0.00  0.00    +0.000 A 
ATOM     29  C   UNL     1       2.734   7.169  18.216  0.00  0.00    +0.000 A 
ATOM     30  C   UNL     1       2.828   8.352  17.481  0.00  0.00    +0.000 A 
ATOM     31  C   UNL     1       2.280   9.558  17.973  0.00  0.00    +0.000 A 
ATOM     32  C   UNL     1       1.628   9.595  19.233  0.00  0.00    +0.000 A 
BRANCH  29  33
ATOM     33  C   UNL     1       3.317   5.889  17.714  0.00  0.00    +0.000 C 
ATOM     34  N   UNL     1       4.421   5.868  17.009  0.00  0.00    +0.000 NA
ATOM     35  C   UNL     1       4.635   4.439  16.651  0.00  0.00    +0.000 C 
ATOM     36  C   UNL     1       3.440   3.658  17.195  0.00  0.00    +0.000 C 
ATOM     37  N   UNL     1       2.715   4.671  17.933  0.00  0.00    +0.000 N 
ATOM     38  H   UNL     1       1.707   4.665  17.817  0.00  0.00    +0.000 HD
ENDBRANCH  29  33
ENDBRANCH   1  23
TORSDOF 4
ENDMDL
MODEL 8
REMARK VINA RESULT:      -7.5      3.558      7.193
REMARK  Name = 
REMARK  6 active torsions:
REMARK  status: ('A' for Active; 'I' for Inactive)
REMARK    1  A    between atoms: C_1  and  N_2
REMARK    2  A    between atoms: C_4  and  C_5
REMARK    3  A    between atoms: C_5  and  C_6
REMARK    4  A    between atoms: N_8  and  C_9
REMARK    5  A    between atoms: C_12  and  C_13
REMARK    6  A    between atoms: C_29  and  C_30
REMARK                            x       y       z     vdW  Elec       q    Type
REMARK                         _______ _______ _______ _____ _____    ______ ____
ROOT
ATOM      1  C   UNL     1      -1.226  12.739  20.629  0.00  0.00    +0.000 C 
ATOM      2  C   UNL     1      -0.339  13.547  19.605  0.00  0.00    +0.000 C 
ATOM      3  C   UNL     1      -1.005  14.876  19.193  0.00  0.00    +0.000 C 
ATOM      4  C   UNL     1      -1.133  15.813  20.383  0.00  0.00    +0.000 C 
ATOM      5  C   UNL     1      -1.872  15.156  21.538  0.00  0.00    +0.000 C 
ATOM      6  C   UNL     1      -1.401  13.733  21.834  0.00  0.00    +0.000 C 
ENDROOT
BRANCH   1  10
ATOM      7  C   UNL     1      -5.987  12.633  18.895  0.00  0.00    +0.000 C 
ATOM      8  N   UNL     1      -4.591  12.280  19.039  0.00  0.00    +0.000 N 
ATOM      9  C   UNL     1      -3.817  12.578  20.134  0.00  0.00    +0.000 A 
ATOM     10  C   UNL     1      -2.491  12.306  19.836  0.00  0.00    +0.000 A 
ATOM     11  C   UNL     1      -2.513  11.689  18.506  0.00  0.00    +0.000 A 
ATOM     12  C   UNL     1      -1.529  11.189  17.616  0.00  0.00    +0.000 A 
ATOM     13  C   UNL     1      -1.871  10.769  16.316  0.00  0.00    +0.000 A 
ATOM     14  C   UNL     1      -3.188  10.796  15.879  0.00  0.00    +0.000 A 
ATOM     15  C   UNL     1      -4.195  11.267  16.742  0.00  0.00    +0.000 A 
ATOM     16  C   UNL     1      -3.833  11.716  18.047  0.00  0.00    +0.000 A 
BRANCH  14  17
ATOM     17  C   UNL     1      -3.540  10.335  14.506  0.00  0.00    +0.000 C 
ATOM     18  N   UNL     1      -2.625   9.926  13.658  0.00  0.00    +0.000 NA
ATOM     19  C   UNL     1      -3.393   9.539  12.438  0.00  0.00    +0.000 C 
ATOM     20  C   UNL     1      -4.851   9.422  12.880  0.00  0.00    +0.000 C 
ATOM     21  N   UNL     1      -4.845  10.259  14.063  0.00  0.00    +0.000 N 
ATOM     22  H   UNL     1      -5.541  10.040  14.766  0.00  0.00    +0.000 HD
ENDBRANCH  14  17
ENDBRANCH   1  10
BRANCH   1  23
ATOM     23  C   UNL     1      -0.532  11.491  21.247  0.00  0.00    +0.000 A 
ATOM     24  C   UNL     1      -0.672  11.033  22.548  0.00  0.00    +0.000 A 
ATOM     25  N   UNL     1       0.027   9.864  22.690  0.00  0.00    +0.000 N 
ATOM     26  C   UNL     1       0.166   9.129  23.928  0.00  0.00    +0.000 C 
ATOM     27  C   UNL     1       0.578   9.473  21.492  0.00  0.00    +0.000 A 
ATOM     28  C   UNL     1       1.309   8.308  21.163  0.00  0.00    +0.000 A 
ATOM     29  C   UNL     1       1.766   8.152  19.848  0.00  0.00    +0.000 A 
ATOM     30  C   UNL     1       1.476   9.127  18.892  0.00  0.00    +0.000 A 
ATOM     31  C   UNL     1       0.732  10.279  19.235  0.00  0.00    +0.000 A 
ATOM     32  C   UNL     1       0.272  10.475  20.563  0.00  0.00    +0.000 A 
BRANCH  29  33
ATOM     33  C   UNL     1       2.559   6.934  19.503  0.00  0.00    +0.000 C 
ATOM     34  N   UNL     1       3.131   6.796  18.333  0.00  0.00    +0.000 NA
ATOM     35  C   UNL     1       3.762   5.448  18.356  0.00  0.00    +0.000 C 
ATOM     36  C   UNL     1       3.393   4.805  19.692  0.00  0.00    +0.000 C 
ATOM     37  N   UNL     1       2.706   5.881  20.377  0.00  0.00    +0.000 N 
ATOM     38  H   UNL     1       1.863   5.618  20.876  0.00  0.00    +0.000 HD
ENDBRANCH  29  33
ENDBRANCH   1  23
TORSDOF 4
ENDMDL
MODEL 9
REMARK VINA RESULT:      -7.5      3.238      7.566
REMARK  Name = 
REMARK  6 active torsions:
REMARK  status: ('A' for Active; 'I' for Inactive)
REMARK    1  A    between atoms: C_1  and  N_2
REMARK    2  A    between atoms: C_4  and  C_5
REMARK    3  A    between atoms: C_5  and  C_6
REMARK    4  A    between atoms: N_8  and  C_9
REMARK    5  A    between atoms: C_12  and  C_13
REMARK    6  A    between atoms: C_29  and  C_30
REMARK                            x       y       z     vdW  Elec       q    Type
REMARK                         _______ _______ _______ _____ _____    ______ ____
ROOT
ATOM      1  C   UNL     1      -3.114  13.153  21.321  0.00  0.00    +0.000 C 
ATOM      2  C   UNL     1      -3.531  12.817  22.804  0.00  0.00    +0.000 C 
ATOM      3  C   UNL     1      -2.744  13.662  23.828  0.00  0.00    +0.000 C 
ATOM      4  C   UNL     1      -3.074  15.138  23.682  0.00  0.00    +0.000 C 
ATOM      5  C   UNL     1      -2.842  15.628  22.262  0.00  0.00    +0.000 C 
ATOM      6  C   UNL     1      -3.406  14.693  21.194  0.00  0.00    +0.000 C 
ENDROOT
BRANCH   1  10
ATOM      7  C   UNL     1       0.865  10.096  20.614  0.00  0.00    +0.000 C 
ATOM      8  N   UNL     1       0.116  11.316  20.829  0.00  0.00    +0.000 N 
ATOM      9  C   UNL     1      -1.161  11.373  21.328  0.00  0.00    +0.000 A 
ATOM     10  C   UNL     1      -1.646  12.663  21.178  0.00  0.00    +0.000 A 
ATOM     11  C   UNL     1      -0.517  13.442  20.661  0.00  0.00    +0.000 A 
ATOM     12  C   UNL     1      -0.323  14.794  20.281  0.00  0.00    +0.000 A 
ATOM     13  C   UNL     1       0.880  15.214  19.679  0.00  0.00    +0.000 A 
ATOM     14  C   UNL     1       1.926  14.324  19.475  0.00  0.00    +0.000 A 
ATOM     15  C   UNL     1       1.776  12.979  19.859  0.00  0.00    +0.000 A 
ATOM     16  C   UNL     1       0.544  12.560  20.441  0.00  0.00    +0.000 A 
BRANCH  14  17
ATOM     17  C   UNL     1       3.199  14.784  18.850  0.00  0.00    +0.000 C 
ATOM     18  N   UNL     1       3.770  15.914  19.195  0.00  0.00    +0.000 NA
ATOM     19  C   UNL     1       5.009  15.975  18.364  0.00  0.00    +0.000 C 
ATOM     20  C   UNL     1       5.224  14.561  17.827  0.00  0.00    +0.000 C 
ATOM     21  N   UNL     1       3.879  14.028  17.917  0.00  0.00    +0.000 N 
ATOM     22  H   UNL     1       3.805  13.022  18.019  0.00  0.00    +0.000 HD
ENDBRANCH  14  17
ENDBRANCH   1  10
BRANCH   1  23
ATOM     23  C   UNL     1      -4.006  12.494  20.230  0.00  0.00    +0.000 A 
ATOM     24  C   UNL     1      -5.390  12.421  20.233  0.00  0.00    +0.000 A 
ATOM     25  N   UNL     1      -5.812  11.844  19.066  0.00  0.00    +0.000 N 
ATOM     26  C   UNL     1      -7.190  11.543  18.742  0.00  0.00    +0.000 C 
ATOM     27  C   UNL     1      -4.749  11.592  18.229  0.00  0.00    +0.000 A 
ATOM     28  C   UNL     1      -4.728  11.079  16.912  0.00  0.00    +0.000 A 
ATOM     29  C   UNL     1      -3.491  10.915  16.276  0.00  0.00    +0.000 A 
ATOM     30  C   UNL     1      -2.317  11.280  16.938  0.00  0.00    +0.000 A 
ATOM     31  C   UNL     1      -2.358  11.806  18.249  0.00  0.00    +0.000 A 
ATOM     32  C   UNL     1      -3.594  11.964  18.927  0.00  0.00    +0.000 A 
BRANCH  29  33
ATOM     33  C   UNL     1      -3.463  10.350  14.894  0.00  0.00    +0.000 C 
ATOM     34  N   UNL     1      -2.348   9.941  14.342  0.00  0.00    +0.000 NA
ATOM     35  C   UNL     1      -2.721   9.513  12.965  0.00  0.00    +0.000 C 
ATOM     36  C   UNL     1      -4.209   9.816  12.790  0.00  0.00    +0.000 C 
ATOM     37  N   UNL     1      -4.594  10.258  14.115  0.00  0.00    +0.000 N 
ATOM     38  H   UNL     1      -5.204  11.068  14.148  0.00  0.00    +0.000 HD
ENDBRANCH  29  33
ENDBRANCH   1  23
TORSDOF 4
ENDMDL
