MODEL 1
REMARK VINA RESULT:      -6.4      0.000      0.000
REMARK  Name = 
REMARK  11 active torsions:
REMARK  status: ('A' for Active; 'I' for Inactive)
REMARK    1  A    between atoms: C_1  and  N_2
REMARK    2  A    between atoms: N_2  and  S_3
REMARK    3  A    between atoms: S_3  and  O_4
REMARK    4  A    between atoms: C_6  and  C_7
REMARK    5  A    between atoms: C_6  and  C_8
REMARK    6  A    between atoms: C_10  and  N_11
REMARK    7  A    between atoms: C_12  and  C_14
REMARK    8  A    between atoms: C_17  and  O_18
REMARK    9  A    between atoms: O_18  and  C_19
REMARK   10  A    between atoms: C_29  and  C_30
REMARK   11  A    between atoms: C_29  and  C_31
REMARK                            x       y       z     vdW  Elec       q    Type
REMARK                         _______ _______ _______ _____ _____    ______ ____
ROOT
ATOM      1  C   UNL     1       0.607  14.582  19.020  0.00  0.00    +0.000 A 
ATOM      2  C   UNL     1       0.569  13.169  19.120  0.00  0.00    +0.000 A 
ATOM      3  C   UNL     1       1.697  12.372  18.892  0.00  0.00    +0.000 A 
ATOM      4  C   UNL     1       2.852  12.967  18.398  0.00  0.00    +0.000 A 
ATOM      5  C   UNL     1       2.866  14.342  18.133  0.00  0.00    +0.000 A 
ATOM      6  C   UNL     1       1.763  15.134  18.459  0.00  0.00    +0.000 A 
ATOM      7  F   UNL     1       1.852  16.456  18.260  0.00  0.00    +0.000 F 
ENDROOT
BRANCH   1  10
ATOM      8  S   UNL     1       0.175  14.949  22.223  0.00  0.00    +0.000 S 
ATOM      9  C   UNL     1      -0.090  16.154  20.968  0.00  0.00    +0.000 C 
ATOM     10  C   UNL     1      -0.492  15.483  19.630  0.00  0.00    +0.000 C 
ATOM     11  C   UNL     1      -0.855  16.625  18.660  0.00  0.00    +0.000 C 
ATOM     12  N   UNL     1      -1.727  14.697  19.851  0.00  0.00    +0.000 N 
ATOM     13  C   UNL     1      -1.842  13.729  20.830  0.00  0.00    +0.000 C 
ATOM     14  N   UNL     1      -2.491  12.637  20.559  0.00  0.00    +0.000 NA
ATOM     15  C   UNL     1      -1.307  13.941  22.267  0.00  0.00    +0.000 C 
ATOM     16  C   UNL     1      -1.018  12.610  22.978  0.00  0.00    +0.000 C 
ATOM     17  C   UNL     1      -2.454  14.667  22.993  0.00  0.00    +0.000 C 
ATOM     18  H   UNL     1      -2.183  14.473  18.975  0.00  0.00    +0.000 HD
ATOM     19  H   UNL     1      -2.823  12.645  19.594  0.00  0.00    +0.000 HD
BRANCH   8  21
ATOM     20  C   UNL     1       2.937  14.934  21.919  0.00  0.00    +0.000 C 
ATOM     21  N   UNL     1       1.680  14.253  22.124  0.00  0.00    +0.000 NA
ATOM     22  H   UNL     1       1.817  13.499  22.796  0.00  0.00    +0.000 HD
ENDBRANCH   8  21
BRANCH   8  23
ATOM     23  O   UNL     1       0.090  15.819  23.578  0.00  0.00    +0.000 OA
ATOM     24  H   UNL     1       0.470  15.384  24.376  0.00  0.00    +0.000 HD
ENDBRANCH   8  23
ENDBRANCH   1  10
BRANCH   3  25
ATOM     25  N   UNL     1       1.615  11.007  19.243  0.00  0.00    +0.000 N 
ATOM     26  C   UNL     1       1.874   9.961  18.364  0.00  0.00    +0.000 C 
ATOM     27  O   UNL     1       2.125  10.080  17.171  0.00  0.00    +0.000 OA
ATOM     28  H   UNL     1       1.713  10.747  20.221  0.00  0.00    +0.000 HD
BRANCH  26  29
ATOM     29  C   UNL     1       1.924   8.601  19.017  0.00  0.00    +0.000 A 
ATOM     30  C   UNL     1       2.524   7.534  18.353  0.00  0.00    +0.000 A 
ATOM     31  C   UNL     1       2.554   6.277  18.971  0.00  0.00    +0.000 A 
ATOM     32  C   UNL     1       1.984   6.122  20.231  0.00  0.00    +0.000 A 
ATOM     33  C   UNL     1       1.411   7.252  20.815  0.00  0.00    +0.000 A 
ATOM     34  N   UNL     1       1.372   8.492  20.255  0.00  0.00    +0.000 NA
BRANCH  32  35
ATOM     35  O   UNL     1       1.926   4.972  20.964  0.00  0.00    +0.000 OA
ATOM     36  C   UNL     1       1.004   3.972  20.546  0.00  0.00    +0.000 C 
ENDBRANCH  32  35
ENDBRANCH  26  29
ENDBRANCH   3  25
TORSDOF 6
ENDMDL
MODEL 2
REMARK VINA RESULT:      -6.3      2.704      5.013
REMARK  Name = 
REMARK  11 active torsions:
REMARK  status: ('A' for Active; 'I' for Inactive)
REMARK    1  A    between atoms: C_1  and  N_2
REMARK    2  A    between atoms: N_2  and  S_3
REMARK    3  A    between atoms: S_3  and  O_4
REMARK    4  A    between atoms: C_6  and  C_7
REMARK    5  A    between atoms: C_6  and  C_8
REMARK    6  A    between atoms: C_10  and  N_11
REMARK    7  A    between atoms: C_12  and  C_14
REMARK    8  A    between atoms: C_17  and  O_18
REMARK    9  A    between atoms: O_18  and  C_19
REMARK   10  A    between atoms: C_29  and  C_30
REMARK   11  A    between atoms: C_29  and  C_31
REMARK                            x       y       z     vdW  Elec       q    Type
REMARK                         _______ _______ _______ _____ _____    ______ ____
ROOT
ATOM      1  C   UNL     1      -1.930  14.685  23.774  0.00  0.00    +0.000 A 
ATOM      2  C   UNL     1      -1.252  13.518  23.341  0.00  0.00    +0.000 A 
ATOM      3  C   UNL     1      -1.902  12.288  23.192  0.00  0.00    +0.000 A 
ATOM      4  C   UNL     1      -3.214  12.163  23.631  0.00  0.00    +0.000 A 
ATOM      5  C   UNL     1      -3.859  13.260  24.216  0.00  0.00    +0.000 A 
ATOM      6  C   UNL     1      -3.226  14.504  24.266  0.00  0.00    +0.000 A 
ATOM      7  F   UNL     1      -3.911  15.543  24.764  0.00  0.00    +0.000 F 
ENDROOT
BRANCH   1  10
ATOM      8  S   UNL     1      -1.705  16.138  20.872  0.00  0.00    +0.000 S 
ATOM      9  C   UNL     1      -2.000  16.907  22.428  0.00  0.00    +0.000 C 
ATOM     10  C   UNL     1      -1.342  16.103  23.577  0.00  0.00    +0.000 C 
ATOM     11  C   UNL     1      -1.521  16.943  24.857  0.00  0.00    +0.000 C 
ATOM     12  N   UNL     1       0.112  16.017  23.319  0.00  0.00    +0.000 N 
ATOM     13  C   UNL     1       0.643  15.528  22.140  0.00  0.00    +0.000 C 
ATOM     14  N   UNL     1       1.708  14.786  22.192  0.00  0.00    +0.000 NA
ATOM     15  C   UNL     1       0.069  15.913  20.755  0.00  0.00    +0.000 C 
ATOM     16  C   UNL     1       0.398  14.864  19.682  0.00  0.00    +0.000 C 
ATOM     17  C   UNL     1       0.777  17.235  20.408  0.00  0.00    +0.000 C 
ATOM     18  H   UNL     1       0.622  15.756  24.155  0.00  0.00    +0.000 HD
ATOM     19  H   UNL     1       2.003  14.645  23.159  0.00  0.00    +0.000 HD
BRANCH   8  21
ATOM     20  C   UNL     1      -4.175  14.864  20.810  0.00  0.00    +0.000 C 
ATOM     21  N   UNL     1      -2.748  14.878  20.582  0.00  0.00    +0.000 NA
ATOM     22  H   UNL     1      -2.546  14.383  19.715  0.00  0.00    +0.000 HD
ENDBRANCH   8  21
BRANCH   8  23
ATOM     23  O   UNL     1      -2.014  17.323  19.824  0.00  0.00    +0.000 OA
ATOM     24  H   UNL     1      -1.218  17.768  19.452  0.00  0.00    +0.000 HD
ENDBRANCH   8  23
ENDBRANCH   1  10
BRANCH   3  25
ATOM     25  N   UNL     1      -1.199  11.253  22.538  0.00  0.00    +0.000 N 
ATOM     26  C   UNL     1      -1.004  11.192  21.162  0.00  0.00    +0.000 C 
ATOM     27  O   UNL     1      -1.476  11.970  20.342  0.00  0.00    +0.000 OA
ATOM     28  H   UNL     1      -0.515  10.717  23.068  0.00  0.00    +0.000 HD
BRANCH  26  29
ATOM     29  C   UNL     1      -0.051  10.109  20.719  0.00  0.00    +0.000 A 
ATOM     30  C   UNL     1       0.285   9.079  21.595  0.00  0.00    +0.000 A 
ATOM     31  C   UNL     1       1.177   8.087  21.169  0.00  0.00    +0.000 A 
ATOM     32  C   UNL     1       1.708   8.151  19.885  0.00  0.00    +0.000 A 
ATOM     33  C   UNL     1       1.307   9.219  19.082  0.00  0.00    +0.000 A 
ATOM     34  N   UNL     1       0.434  10.196  19.451  0.00  0.00    +0.000 NA
BRANCH  32  35
ATOM     35  O   UNL     1       2.587   7.272  19.322  0.00  0.00    +0.000 OA
ATOM     36  C   UNL     1       2.975   7.505  17.972  0.00  0.00    +0.000 C 
ENDBRANCH  32  35
ENDBRANCH  26  29
ENDBRANCH   3  25
TORSDOF 6
ENDMDL
MODEL 3
REMARK VINA RESULT:      -6.3      2.744      3.593
REMARK  Name = 
REMARK  11 active torsions:
REMARK  status: ('A' for Active; 'I' for Inactive)
REMARK    1  A    between atoms: C_1  and  N_2
REMARK    2  A    between atoms: N_2  and  S_3
REMARK    3  A    between atoms: S_3  and  O_4
REMARK    4  A    between atoms: C_6  and  C_7
REMARK    5  A    between atoms: C_6  and  C_8
REMARK    6  A    between atoms: C_10  and  N_11
REMARK    7  A    between atoms: C_12  and  C_14
REMARK    8  A    between atoms: C_17  and  O_18
REMARK    9  A    between atoms: O_18  and  C_19
REMARK   10  A    between atoms: C_29  and  C_30
REMARK   11  A    between atoms: C_29  and  C_31
REMARK                            x       y       z     vdW  Elec       q    Type
REMARK                         _______ _______ _______ _____ _____    ______ ____
ROOT
ATOM      1  C   UNL     1      -1.291  12.011  18.973  0.00  0.00    +0.000 A 
ATOM      2  C   UNL     1      -0.280  11.018  18.988  0.00  0.00    +0.000 A 
ATOM      3  C   UNL     1      -0.324   9.892  18.158  0.00  0.00    +0.000 A 
ATOM      4  C   UNL     1      -1.471   9.654  17.409  0.00  0.00    +0.000 A 
ATOM      5  C   UNL     1      -2.556  10.535  17.501  0.00  0.00    +0.000 A 
ATOM      6  C   UNL     1      -2.453  11.703  18.259  0.00  0.00    +0.000 A 
ATOM      7  F   UNL     1      -3.489  12.554  18.255  0.00  0.00    +0.000 F 
ENDROOT
BRANCH   1  10
ATOM      8  S   UNL     1      -0.983  12.551  22.166  0.00  0.00    +0.000 S 
ATOM      9  C   UNL     1      -0.201  13.430  20.856  0.00  0.00    +0.000 C 
ATOM     10  C   UNL     1      -1.077  13.418  19.579  0.00  0.00    +0.000 C 
ATOM     11  C   UNL     1      -0.381  14.343  18.562  0.00  0.00    +0.000 C 
ATOM     12  N   UNL     1      -2.383  14.036  19.899  0.00  0.00    +0.000 N 
ATOM     13  C   UNL     1      -3.189  13.606  20.936  0.00  0.00    +0.000 C 
ATOM     14  N   UNL     1      -4.476  13.569  20.757  0.00  0.00    +0.000 NA
ATOM     15  C   UNL     1      -2.621  13.260  22.333  0.00  0.00    +0.000 C 
ATOM     16  C   UNL     1      -3.535  12.297  23.106  0.00  0.00    +0.000 C 
ATOM     17  C   UNL     1      -2.571  14.612  23.066  0.00  0.00    +0.000 C 
ATOM     18  H   UNL     1      -2.880  14.306  19.058  0.00  0.00    +0.000 HD
ATOM     19  H   UNL     1      -4.716  13.860  19.809  0.00  0.00    +0.000 HD
BRANCH   8  21
ATOM     20  C   UNL     1      -0.573   9.975  23.125  0.00  0.00    +0.000 C 
ATOM     21  N   UNL     1      -0.770  10.909  22.040  0.00  0.00    +0.000 NA
ATOM     22  H   UNL     1      -1.371  10.480  21.339  0.00  0.00    +0.000 HD
ENDBRANCH   8  21
BRANCH   8  23
ATOM     23  O   UNL     1      -0.198  13.082  23.471  0.00  0.00    +0.000 OA
ATOM     24  H   UNL     1      -0.463  12.654  24.318  0.00  0.00    +0.000 HD
ENDBRANCH   8  23
ENDBRANCH   1  10
BRANCH   3  25
ATOM     25  N   UNL     1       0.835   9.091  18.080  0.00  0.00    +0.000 N 
ATOM     26  C   UNL     1       1.465   8.524  19.183  0.00  0.00    +0.000 C 
ATOM     27  O   UNL     1       1.152   8.707  20.353  0.00  0.00    +0.000 OA
ATOM     28  H   UNL     1       1.040   8.611  17.206  0.00  0.00    +0.000 HD
BRANCH  26  29
ATOM     29  C   UNL     1       2.559   7.544  18.835  0.00  0.00    +0.000 A 
ATOM     30  C   UNL     1       3.351   7.758  17.709  0.00  0.00    +0.000 A 
ATOM     31  C   UNL     1       4.356   6.835  17.398  0.00  0.00    +0.000 A 
ATOM     32  C   UNL     1       4.541   5.725  18.216  0.00  0.00    +0.000 A 
ATOM     33  C   UNL     1       3.700   5.600  19.322  0.00  0.00    +0.000 A 
ATOM     34  N   UNL     1       2.721   6.481  19.668  0.00  0.00    +0.000 NA
BRANCH  32  35
ATOM     35  O   UNL     1       5.467   4.736  18.051  0.00  0.00    +0.000 OA
ATOM     36  C   UNL     1       6.495   4.952  17.090  0.00  0.00    +0.000 C 
ENDBRANCH  32  35
ENDBRANCH  26  29
ENDBRANCH   3  25
TORSDOF 6
ENDMDL
MODEL 4
REMARK VINA RESULT:      -6.2      1.213      1.347
REMARK  Name = 
REMARK  11 active torsions:
REMARK  status: ('A' for Active; 'I' for Inactive)
REMARK    1  A    between atoms: C_1  and  N_2
REMARK    2  A    between atoms: N_2  and  S_3
REMARK    3  A    between atoms: S_3  and  O_4
REMARK    4  A    between atoms: C_6  and  C_7
REMARK    5  A    between atoms: C_6  and  C_8
REMARK    6  A    between atoms: C_10  and  N_11
REMARK    7  A    between atoms: C_12  and  C_14
REMARK    8  A    between atoms: C_17  and  O_18
REMARK    9  A    between atoms: O_18  and  C_19
REMARK   10  A    between atoms: C_29  and  C_30
REMARK   11  A    between atoms: C_29  and  C_31
REMARK                            x       y       z     vdW  Elec       q    Type
REMARK                         _______ _______ _______ _____ _____    ______ ____
ROOT
ATOM      1  C   UNL     1       0.258  15.360  19.233  0.00  0.00    +0.000 A 
ATOM      2  C   UNL     1       0.502  13.966  19.164  0.00  0.00    +0.000 A 
ATOM      3  C   UNL     1       1.742  13.442  18.782  0.00  0.00    +0.000 A 
ATOM      4  C   UNL     1       2.718  14.307  18.301  0.00  0.00    +0.000 A 
ATOM      5  C   UNL     1       2.446  15.677  18.204  0.00  0.00    +0.000 A 
ATOM      6  C   UNL     1       1.238  16.191  18.682  0.00  0.00    +0.000 A 
ATOM      7  F   UNL     1       1.054  17.517  18.638  0.00  0.00    +0.000 F 
ENDROOT
BRANCH   1  10
ATOM      8  S   UNL     1      -0.124  15.050  22.449  0.00  0.00    +0.000 S 
ATOM      9  C   UNL     1      -0.607  16.414  21.445  0.00  0.00    +0.000 C 
ATOM     10  C   UNL     1      -0.945  15.951  20.006  0.00  0.00    +0.000 C 
ATOM     11  C   UNL     1      -1.506  17.184  19.271  0.00  0.00    +0.000 C 
ATOM     12  N   UNL     1      -2.040  14.957  20.076  0.00  0.00    +0.000 N 
ATOM     13  C   UNL     1      -1.976  13.817  20.854  0.00  0.00    +0.000 C 
ATOM     14  N   UNL     1      -2.461  12.708  20.382  0.00  0.00    +0.000 NA
ATOM     15  C   UNL     1      -1.434  13.836  22.304  0.00  0.00    +0.000 C 
ATOM     16  C   UNL     1      -0.926  12.457  22.749  0.00  0.00    +0.000 C 
ATOM     17  C   UNL     1      -2.654  14.228  23.157  0.00  0.00    +0.000 C 
ATOM     18  H   UNL     1      -2.484  14.833  19.175  0.00  0.00    +0.000 HD
ATOM     19  H   UNL     1      -2.821  12.845  19.437  0.00  0.00    +0.000 HD
BRANCH   8  21
ATOM     20  C   UNL     1       2.594  15.521  22.107  0.00  0.00    +0.000 C 
ATOM     21  N   UNL     1       1.465  14.626  22.216  0.00  0.00    +0.000 NA
ATOM     22  H   UNL     1       1.743  13.806  22.753  0.00  0.00    +0.000 HD
ENDBRANCH   8  21
BRANCH   8  23
ATOM     23  O   UNL     1      -0.296  15.628  23.944  0.00  0.00    +0.000 OA
ATOM     24  H   UNL     1       0.196  15.134  24.640  0.00  0.00    +0.000 HD
ENDBRANCH   8  23
ENDBRANCH   1  10
BRANCH   3  25
ATOM     25  N   UNL     1       1.952  12.059  18.969  0.00  0.00    +0.000 N 
ATOM     26  C   UNL     1       0.950  11.099  18.874  0.00  0.00    +0.000 C 
ATOM     27  O   UNL     1      -0.240  11.328  18.700  0.00  0.00    +0.000 OA
ATOM     28  H   UNL     1       2.887  11.683  18.825  0.00  0.00    +0.000 HD
BRANCH  26  29
ATOM     29  C   UNL     1       1.451   9.675  18.908  0.00  0.00    +0.000 A 
ATOM     30  C   UNL     1       2.027   9.115  17.770  0.00  0.00    +0.000 A 
ATOM     31  C   UNL     1       2.480   7.791  17.818  0.00  0.00    +0.000 A 
ATOM     32  C   UNL     1       2.344   7.064  18.996  0.00  0.00    +0.000 A 
ATOM     33  C   UNL     1       1.757   7.715  20.082  0.00  0.00    +0.000 A 
ATOM     34  N   UNL     1       1.317   9.003  20.082  0.00  0.00    +0.000 NA
BRANCH  32  35
ATOM     35  O   UNL     1       2.727   5.771  19.206  0.00  0.00    +0.000 OA
ATOM     36  C   UNL     1       4.100   5.531  19.489  0.00  0.00    +0.000 C 
ENDBRANCH  32  35
ENDBRANCH  26  29
ENDBRANCH   3  25
TORSDOF 6
ENDMDL
MODEL 5
REMARK VINA RESULT:      -6.2      2.946      5.099
REMARK  Name = 
REMARK  11 active torsions:
REMARK  status: ('A' for Active; 'I' for Inactive)
REMARK    1  A    between atoms: C_1  and  N_2
REMARK    2  A    between atoms: N_2  and  S_3
REMARK    3  A    between atoms: S_3  and  O_4
REMARK    4  A    between atoms: C_6  and  C_7
REMARK    5  A    between atoms: C_6  and  C_8
REMARK    6  A    between atoms: C_10  and  N_11
REMARK    7  A    between atoms: C_12  and  C_14
REMARK    8  A    between atoms: C_17  and  O_18
REMARK    9  A    between atoms: O_18  and  C_19
REMARK   10  A    between atoms: C_29  and  C_30
REMARK   11  A    between atoms: C_29  and  C_31
REMARK                            x       y       z     vdW  Elec       q    Type
REMARK                         _______ _______ _______ _____ _____    ______ ____
ROOT
ATOM      1  C   UNL     1      -0.119  11.227  21.810  0.00  0.00    +0.000 A 
ATOM      2  C   UNL     1       0.901  10.525  21.120  0.00  0.00    +0.000 A 
ATOM      3  C   UNL     1       0.974   9.128  21.113  0.00  0.00    +0.000 A 
ATOM      4  C   UNL     1       0.117   8.406  21.936  0.00  0.00    +0.000 A 
ATOM      5  C   UNL     1      -0.795   9.083  22.755  0.00  0.00    +0.000 A 
ATOM      6  C   UNL     1      -0.918  10.472  22.674  0.00  0.00    +0.000 A 
ATOM      7  F   UNL     1      -1.857  11.069  23.421  0.00  0.00    +0.000 F 
ENDROOT
BRANCH   1  10
ATOM      8  S   UNL     1      -0.104  12.505  18.819  0.00  0.00    +0.000 S 
ATOM      9  C   UNL     1      -1.149  12.953  20.163  0.00  0.00    +0.000 C 
ATOM     10  C   UNL     1      -0.441  12.712  21.520  0.00  0.00    +0.000 C 
ATOM     11  C   UNL     1      -1.372  13.285  22.606  0.00  0.00    +0.000 C 
ATOM     12  N   UNL     1       0.802  13.516  21.551  0.00  0.00    +0.000 N 
ATOM     13  C   UNL     1       1.777  13.436  20.575  0.00  0.00    +0.000 C 
ATOM     14  N   UNL     1       3.026  13.483  20.932  0.00  0.00    +0.000 NA
ATOM     15  C   UNL     1       1.434  13.390  19.067  0.00  0.00    +0.000 C 
ATOM     16  C   UNL     1       2.554  12.743  18.239  0.00  0.00    +0.000 C 
ATOM     17  C   UNL     1       1.297  14.870  18.666  0.00  0.00    +0.000 C 
ATOM     18  H   UNL     1       1.152  13.618  22.495  0.00  0.00    +0.000 HD
ATOM     19  H   UNL     1       3.108  13.553  21.947  0.00  0.00    +0.000 HD
BRANCH   8  21
ATOM     20  C   UNL     1      -1.227  10.078  18.060  0.00  0.00    +0.000 C 
ATOM     21  N   UNL     1      -0.113  10.870  18.529  0.00  0.00    +0.000 NA
ATOM     22  H   UNL     1       0.741  10.538  18.081  0.00  0.00    +0.000 HD
ENDBRANCH   8  21
BRANCH   8  23
ATOM     23  O   UNL     1      -0.787  13.260  17.568  0.00  0.00    +0.000 OA
ATOM     24  H   UNL     1      -1.726  13.014  17.396  0.00  0.00    +0.000 HD
ENDBRANCH   8  23
ENDBRANCH   1  10
BRANCH   3  25
ATOM     25  N   UNL     1       1.879   8.525  20.214  0.00  0.00    +0.000 N 
ATOM     26  C   UNL     1       2.059   7.151  20.093  0.00  0.00    +0.000 C 
ATOM     27  O   UNL     1       1.526   6.300  20.795  0.00  0.00    +0.000 OA
ATOM     28  H   UNL     1       2.164   9.044  19.386  0.00  0.00    +0.000 HD
BRANCH  26  29
ATOM     29  C   UNL     1       2.924   6.739  18.927  0.00  0.00    +0.000 A 
ATOM     30  C   UNL     1       3.244   7.667  17.939  0.00  0.00    +0.000 A 
ATOM     31  C   UNL     1       4.042   7.266  16.861  0.00  0.00    +0.000 A 
ATOM     32  C   UNL     1       4.495   5.952  16.798  0.00  0.00    +0.000 A 
ATOM     33  C   UNL     1       4.124   5.099  17.837  0.00  0.00    +0.000 A 
ATOM     34  N   UNL     1       3.362   5.452  18.909  0.00  0.00    +0.000 NA
BRANCH  32  35
ATOM     35  O   UNL     1       5.272   5.403  15.819  0.00  0.00    +0.000 OA
ATOM     36  C   UNL     1       6.658   5.238  16.096  0.00  0.00    +0.000 C 
ENDBRANCH  32  35
ENDBRANCH  26  29
ENDBRANCH   3  25
TORSDOF 6
ENDMDL
MODEL 6
REMARK VINA RESULT:      -6.1      4.566      7.136
REMARK  Name = 
REMARK  11 active torsions:
REMARK  status: ('A' for Active; 'I' for Inactive)
REMARK    1  A    between atoms: C_1  and  N_2
REMARK    2  A    between atoms: N_2  and  S_3
REMARK    3  A    between atoms: S_3  and  O_4
REMARK    4  A    between atoms: C_6  and  C_7
REMARK    5  A    between atoms: C_6  and  C_8
REMARK    6  A    between atoms: C_10  and  N_11
REMARK    7  A    between atoms: C_12  and  C_14
REMARK    8  A    between atoms: C_17  and  O_18
REMARK    9  A    between atoms: O_18  and  C_19
REMARK   10  A    between atoms: C_29  and  C_30
REMARK   11  A    between atoms: C_29  and  C_31
REMARK                            x       y       z     vdW  Elec       q    Type
REMARK                         _______ _______ _______ _____ _____    ______ ____
ROOT
ATOM      1  C   UNL     1      -5.671  11.677  19.589  0.00  0.00    +0.000 A 
ATOM      2  C   UNL     1      -4.287  11.975  19.648  0.00  0.00    +0.000 A 
ATOM      3  C   UNL     1      -3.488  12.051  18.502  0.00  0.00    +0.000 A 
ATOM      4  C   UNL     1      -4.027  11.666  17.280  0.00  0.00    +0.000 A 
ATOM      5  C   UNL     1      -5.350  11.209  17.217  0.00  0.00    +0.000 A 
ATOM      6  C   UNL     1      -6.159  11.234  18.355  0.00  0.00    +0.000 A 
ATOM      7  F   UNL     1      -7.439  10.860  18.230  0.00  0.00    +0.000 F 
ENDROOT
BRANCH   1  10
ATOM      8  S   UNL     1      -6.758  14.654  20.321  0.00  0.00    +0.000 S 
ATOM      9  C   UNL     1      -7.617  13.129  20.512  0.00  0.00    +0.000 C 
ATOM     10  C   UNL     1      -6.629  11.964  20.768  0.00  0.00    +0.000 C 
ATOM     11  C   UNL     1      -7.489  10.723  21.080  0.00  0.00    +0.000 C 
ATOM     12  N   UNL     1      -5.852  12.267  21.991  0.00  0.00    +0.000 N 
ATOM     13  C   UNL     1      -5.136  13.437  22.161  0.00  0.00    +0.000 C 
ATOM     14  N   UNL     1      -3.977  13.384  22.746  0.00  0.00    +0.000 NA
ATOM     15  C   UNL     1      -5.709  14.820  21.765  0.00  0.00    +0.000 C 
ATOM     16  C   UNL     1      -4.601  15.849  21.497  0.00  0.00    +0.000 C 
ATOM     17  C   UNL     1      -6.523  15.257  22.997  0.00  0.00    +0.000 C 
ATOM     18  H   UNL     1      -5.403  11.437  22.358  0.00  0.00    +0.000 HD
ATOM     19  H   UNL     1      -3.740  12.422  22.989  0.00  0.00    +0.000 HD
BRANCH   8  21
ATOM     20  C   UNL     1      -6.545  15.825  17.809  0.00  0.00    +0.000 C 
ATOM     21  N   UNL     1      -6.141  14.844  18.790  0.00  0.00    +0.000 NA
ATOM     22  H   UNL     1      -5.129  14.732  18.750  0.00  0.00    +0.000 HD
ENDBRANCH   8  21
BRANCH   8  23
ATOM     23  O   UNL     1      -7.917  15.750  20.557  0.00  0.00    +0.000 OA
ATOM     24  H   UNL     1      -8.805  15.378  20.764  0.00  0.00    +0.000 HD
ENDBRANCH   8  23
ENDBRANCH   1  10
BRANCH   3  25
ATOM     25  N   UNL     1      -2.187  12.579  18.645  0.00  0.00    +0.000 N 
ATOM     26  C   UNL     1      -1.039  11.802  18.761  0.00  0.00    +0.000 C 
ATOM     27  O   UNL     1      -1.013  10.579  18.835  0.00  0.00    +0.000 OA
ATOM     28  H   UNL     1      -2.004  13.523  18.314  0.00  0.00    +0.000 HD
BRANCH  26  29
ATOM     29  C   UNL     1       0.249  12.585  18.696  0.00  0.00    +0.000 A 
ATOM     30  C   UNL     1       0.228  13.970  18.851  0.00  0.00    +0.000 A 
ATOM     31  C   UNL     1       1.431  14.682  18.780  0.00  0.00    +0.000 A 
ATOM     32  C   UNL     1       2.620  13.994  18.555  0.00  0.00    +0.000 A 
ATOM     33  C   UNL     1       2.538  12.608  18.416  0.00  0.00    +0.000 A 
ATOM     34  N   UNL     1       1.392  11.877  18.492  0.00  0.00    +0.000 NA
BRANCH  32  35
ATOM     35  O   UNL     1       3.868  14.535  18.456  0.00  0.00    +0.000 OA
ATOM     36  C   UNL     1       4.373  15.236  19.587  0.00  0.00    +0.000 C 
ENDBRANCH  32  35
ENDBRANCH  26  29
ENDBRANCH   3  25
TORSDOF 6
ENDMDL
MODEL 7
REMARK VINA RESULT:      -6.1      2.734      4.798
REMARK  Name = 
REMARK  11 active torsions:
REMARK  status: ('A' for Active; 'I' for Inactive)
REMARK    1  A    between atoms: C_1  and  N_2
REMARK    2  A    between atoms: N_2  and  S_3
REMARK    3  A    between atoms: S_3  and  O_4
REMARK    4  A    between atoms: C_6  and  C_7
REMARK    5  A    between atoms: C_6  and  C_8
REMARK    6  A    between atoms: C_10  and  N_11
REMARK    7  A    between atoms: C_12  and  C_14
REMARK    8  A    between atoms: C_17  and  O_18
REMARK    9  A    between atoms: O_18  and  C_19
REMARK   10  A    between atoms: C_29  and  C_30
REMARK   11  A    between atoms: C_29  and  C_31
REMARK                            x       y       z     vdW  Elec       q    Type
REMARK                         _______ _______ _______ _____ _____    ______ ____
ROOT
ATOM      1  C   UNL     1      -1.559  14.309  23.293  0.00  0.00    +0.000 A 
ATOM      2  C   UNL     1      -0.740  13.335  22.669  0.00  0.00    +0.000 A 
ATOM      3  C   UNL     1      -1.167  12.019  22.460  0.00  0.00    +0.000 A 
ATOM      4  C   UNL     1      -2.369  11.606  23.023  0.00  0.00    +0.000 A 
ATOM      5  C   UNL     1      -3.125  12.505  23.786  0.00  0.00    +0.000 A 
ATOM      6  C   UNL     1      -2.728  13.839  23.900  0.00  0.00    +0.000 A 
ATOM      7  F   UNL     1      -3.523  14.680  24.577  0.00  0.00    +0.000 F 
ENDROOT
BRANCH   1  10
ATOM      8  S   UNL     1      -2.230  16.072  20.643  0.00  0.00    +0.000 S 
ATOM      9  C   UNL     1      -2.290  16.604  22.320  0.00  0.00    +0.000 C 
ATOM     10  C   UNL     1      -1.270  15.824  23.187  0.00  0.00    +0.000 C 
ATOM     11  C   UNL     1      -1.291  16.478  24.583  0.00  0.00    +0.000 C 
ATOM     12  N   UNL     1       0.085  16.043  22.630  0.00  0.00    +0.000 N 
ATOM     13  C   UNL     1       0.410  15.790  21.311  0.00  0.00    +0.000 C 
ATOM     14  N   UNL     1       1.566  15.262  21.041  0.00  0.00    +0.000 NA
ATOM     15  C   UNL     1      -0.514  16.201  20.140  0.00  0.00    +0.000 C 
ATOM     16  C   UNL     1      -0.268  15.351  18.884  0.00  0.00    +0.000 C 
ATOM     17  C   UNL     1      -0.128  17.662  19.849  0.00  0.00    +0.000 C 
ATOM     18  H   UNL     1       0.803  15.798  23.300  0.00  0.00    +0.000 HD
ATOM     19  H   UNL     1       2.088  15.080  21.898  0.00  0.00    +0.000 HD
BRANCH   8  21
ATOM     20  C   UNL     1      -4.461  14.420  20.777  0.00  0.00    +0.000 C 
ATOM     21  N   UNL     1      -3.091  14.674  20.393  0.00  0.00    +0.000 NA
ATOM     22  H   UNL     1      -2.921  14.257  19.479  0.00  0.00    +0.000 HD
ENDBRANCH   8  21
BRANCH   8  23
ATOM     23  O   UNL     1      -2.955  17.279  19.859  0.00  0.00    +0.000 OA
ATOM     24  H   UNL     1      -2.398  17.729  19.181  0.00  0.00    +0.000 HD
ENDBRANCH   8  23
ENDBRANCH   1  10
BRANCH   3  25
ATOM     25  N   UNL     1      -0.376  11.199  21.628  0.00  0.00    +0.000 N 
ATOM     26  C   UNL     1       0.397  10.137  22.089  0.00  0.00    +0.000 C 
ATOM     27  O   UNL     1       0.554   9.830  23.264  0.00  0.00    +0.000 OA
ATOM     28  H   UNL     1      -0.616  11.126  20.642  0.00  0.00    +0.000 HD
BRANCH  26  29
ATOM     29  C   UNL     1       0.989   9.282  20.996  0.00  0.00    +0.000 A 
ATOM     30  C   UNL     1       1.091   9.785  19.700  0.00  0.00    +0.000 A 
ATOM     31  C   UNL     1       1.637   8.975  18.697  0.00  0.00    +0.000 A 
ATOM     32  C   UNL     1       2.064   7.689  19.013  0.00  0.00    +0.000 A 
ATOM     33  C   UNL     1       1.924   7.279  20.339  0.00  0.00    +0.000 A 
ATOM     34  N   UNL     1       1.411   8.038  21.347  0.00  0.00    +0.000 NA
BRANCH  32  35
ATOM     35  O   UNL     1       2.611   6.778  18.158  0.00  0.00    +0.000 OA
ATOM     36  C   UNL     1       3.838   7.124  17.525  0.00  0.00    +0.000 C 
ENDBRANCH  32  35
ENDBRANCH  26  29
ENDBRANCH   3  25
TORSDOF 6
ENDMDL
MODEL 8
REMARK VINA RESULT:      -6.0      6.409      9.114
REMARK  Name = 
REMARK  11 active torsions:
REMARK  status: ('A' for Active; 'I' for Inactive)
REMARK    1  A    between atoms: C_1  and  N_2
REMARK    2  A    between atoms: N_2  and  S_3
REMARK    3  A    between atoms: S_3  and  O_4
REMARK    4  A    between atoms: C_6  and  C_7
REMARK    5  A    between atoms: C_6  and  C_8
REMARK    6  A    between atoms: C_10  and  N_11
REMARK    7  A    between atoms: C_12  and  C_14
REMARK    8  A    between atoms: C_17  and  O_18
REMARK    9  A    between atoms: O_18  and  C_19
REMARK   10  A    between atoms: C_29  and  C_30
REMARK   11  A    between atoms: C_29  and  C_31
REMARK                            x       y       z     vdW  Elec       q    Type
REMARK                         _______ _______ _______ _____ _____    ______ ____
ROOT
ATOM      1  C   UNL     1       8.885  16.088  20.939  0.00  0.00    +0.000 A 
ATOM      2  C   UNL     1       7.671  15.359  20.885  0.00  0.00    +0.000 A 
ATOM      3  C   UNL     1       6.565  15.800  20.150  0.00  0.00    +0.000 A 
ATOM      4  C   UNL     1       6.597  17.069  19.585  0.00  0.00    +0.000 A 
ATOM      5  C   UNL     1       7.724  17.881  19.761  0.00  0.00    +0.000 A 
ATOM      6  C   UNL     1       8.855  17.384  20.414  0.00  0.00    +0.000 A 
ATOM      7  F   UNL     1       9.937  18.170  20.492  0.00  0.00    +0.000 F 
ENDROOT
BRANCH   1  10
ATOM      8  S   UNL     1      10.908  14.506  18.944  0.00  0.00    +0.000 S 
ATOM      9  C   UNL     1      11.340  15.478  20.347  0.00  0.00    +0.000 C 
ATOM     10  C   UNL     1      10.213  15.450  21.409  0.00  0.00    +0.000 C 
ATOM     11  C   UNL     1      10.760  16.189  22.647  0.00  0.00    +0.000 C 
ATOM     12  N   UNL     1       9.984  14.044  21.814  0.00  0.00    +0.000 N 
ATOM     13  C   UNL     1       9.704  13.034  20.913  0.00  0.00    +0.000 C 
ATOM     14  N   UNL     1       8.827  12.131  21.236  0.00  0.00    +0.000 NA
ATOM     15  C   UNL     1      10.468  12.887  19.575  0.00  0.00    +0.000 C 
ATOM     16  C   UNL     1       9.653  12.116  18.526  0.00  0.00    +0.000 C 
ATOM     17  C   UNL     1      11.721  12.073  19.945  0.00  0.00    +0.000 C 
ATOM     18  H   UNL     1       9.472  13.990  22.686  0.00  0.00    +0.000 HD
ATOM     19  H   UNL     1       8.432  12.326  22.156  0.00  0.00    +0.000 HD
BRANCH   8  21
ATOM     20  C   UNL     1      10.241  16.472  17.096  0.00  0.00    +0.000 C 
ATOM     21  N   UNL     1       9.906  15.317  17.897  0.00  0.00    +0.000 NA
ATOM     22  H   UNL     1       9.310  14.696  17.351  0.00  0.00    +0.000 HD
ENDBRANCH   8  21
BRANCH   8  23
ATOM     23  O   UNL     1      12.331  14.266  18.224  0.00  0.00    +0.000 OA
ATOM     24  H   UNL     1      12.485  13.347  17.903  0.00  0.00    +0.000 HD
ENDBRANCH   8  23
ENDBRANCH   1  10
BRANCH   3  25
ATOM     25  N   UNL     1       5.496  14.896  19.972  0.00  0.00    +0.000 N 
ATOM     26  C   UNL     1       4.268  15.005  20.615  0.00  0.00    +0.000 C 
ATOM     27  O   UNL     1       3.983  15.837  21.468  0.00  0.00    +0.000 OA
ATOM     28  H   UNL     1       5.456  14.351  19.113  0.00  0.00    +0.000 HD
BRANCH  26  29
ATOM     29  C   UNL     1       3.217  14.046  20.111  0.00  0.00    +0.000 A 
ATOM     30  C   UNL     1       3.032  13.878  18.740  0.00  0.00    +0.000 A 
ATOM     31  C   UNL     1       2.047  12.990  18.290  0.00  0.00    +0.000 A 
ATOM     32  C   UNL     1       1.276  12.297  19.218  0.00  0.00    +0.000 A 
ATOM     33  C   UNL     1       1.540  12.531  20.568  0.00  0.00    +0.000 A 
ATOM     34  N   UNL     1       2.495  13.375  21.047  0.00  0.00    +0.000 NA
BRANCH  32  35
ATOM     35  O   UNL     1       0.281  11.404  18.947  0.00  0.00    +0.000 OA
ATOM     36  C   UNL     1      -0.096  10.505  19.984  0.00  0.00    +0.000 C 
ENDBRANCH  32  35
ENDBRANCH  26  29
ENDBRANCH   3  25
TORSDOF 6
ENDMDL
MODEL 9
REMARK VINA RESULT:      -5.9      4.433      7.154
REMARK  Name = 
REMARK  11 active torsions:
REMARK  status: ('A' for Active; 'I' for Inactive)
REMARK    1  A    between atoms: C_1  and  N_2
REMARK    2  A    between atoms: N_2  and  S_3
REMARK    3  A    between atoms: S_3  and  O_4
REMARK    4  A    between atoms: C_6  and  C_7
REMARK    5  A    between atoms: C_6  and  C_8
REMARK    6  A    between atoms: C_10  and  N_11
REMARK    7  A    between atoms: C_12  and  C_14
REMARK    8  A    between atoms: C_17  and  O_18
REMARK    9  A    between atoms: O_18  and  C_19
REMARK   10  A    between atoms: C_29  and  C_30
REMARK   11  A    between atoms: C_29  and  C_31
REMARK                            x       y       z     vdW  Elec       q    Type
REMARK                         _______ _______ _______ _____ _____    ______ ____
ROOT
ATOM      1  C   UNL     1      -5.408  12.921  22.100  0.00  0.00    +0.000 A 
ATOM      2  C   UNL     1      -4.062  13.083  21.687  0.00  0.00    +0.000 A 
ATOM      3  C   UNL     1      -3.658  12.892  20.360  0.00  0.00    +0.000 A 
ATOM      4  C   UNL     1      -4.569  12.373  19.449  0.00  0.00    +0.000 A 
ATOM      5  C   UNL     1      -5.865  12.048  19.869  0.00  0.00    +0.000 A 
ATOM      6  C   UNL     1      -6.276  12.338  21.172  0.00  0.00    +0.000 A 
ATOM      7  F   UNL     1      -7.548  12.080  21.506  0.00  0.00    +0.000 F 
ENDROOT
BRANCH   1  10
ATOM      8  S   UNL     1      -6.048  16.075  22.569  0.00  0.00    +0.000 S 
ATOM      9  C   UNL     1      -6.889  14.701  23.279  0.00  0.00    +0.000 C 
ATOM     10  C   UNL     1      -5.936  13.490  23.438  0.00  0.00    +0.000 C 
ATOM     11  C   UNL     1      -6.723  12.412  24.210  0.00  0.00    +0.000 C 
ATOM     12  N   UNL     1      -4.802  13.894  24.299  0.00  0.00    +0.000 N 
ATOM     13  C   UNL     1      -4.006  14.992  24.035  0.00  0.00    +0.000 C 
ATOM     14  N   UNL     1      -2.727  14.906  24.250  0.00  0.00    +0.000 NA
ATOM     15  C   UNL     1      -4.596  16.350  23.583  0.00  0.00    +0.000 C 
ATOM     16  C   UNL     1      -3.571  17.200  22.817  0.00  0.00    +0.000 C 
ATOM     17  C   UNL     1      -4.962  17.059  24.900  0.00  0.00    +0.000 C 
ATOM     18  H   UNL     1      -4.307  13.088  24.661  0.00  0.00    +0.000 HD
ATOM     19  H   UNL     1      -2.479  13.974  24.582  0.00  0.00    +0.000 HD
BRANCH   8  21
ATOM     20  C   UNL     1      -7.011  15.760  19.981  0.00  0.00    +0.000 C 
ATOM     21  N   UNL     1      -5.928  15.958  20.917  0.00  0.00    +0.000 NA
ATOM     22  H   UNL     1      -5.259  16.615  20.516  0.00  0.00    +0.000 HD
ENDBRANCH   8  21
BRANCH   8  23
ATOM     23  O   UNL     1      -7.015  17.313  22.935  0.00  0.00    +0.000 OA
ATOM     24  H   UNL     1      -6.938  18.092  22.337  0.00  0.00    +0.000 HD
ENDBRANCH   8  23
ENDBRANCH   1  10
BRANCH   3  25
ATOM     25  N   UNL     1      -2.354  13.302  20.009  0.00  0.00    +0.000 N 
ATOM     26  C   UNL     1      -1.250  12.456  19.990  0.00  0.00    +0.000 C 
ATOM     27  O   UNL     1      -1.246  11.285  20.348  0.00  0.00    +0.000 OA
ATOM     28  H   UNL     1      -2.242  14.125  19.421  0.00  0.00    +0.000 HD
BRANCH  26  29
ATOM     29  C   UNL     1      -0.010  13.068  19.385  0.00  0.00    +0.000 A 
ATOM     30  C   UNL     1       1.010  12.246  18.912  0.00  0.00    +0.000 A 
ATOM     31  C   UNL     1       2.156  12.832  18.361  0.00  0.00    +0.000 A 
ATOM     32  C   UNL     1       2.252  14.219  18.299  0.00  0.00    +0.000 A 
ATOM     33  C   UNL     1       1.176  14.955  18.795  0.00  0.00    +0.000 A 
ATOM     34  N   UNL     1       0.040  14.426  19.326  0.00  0.00    +0.000 NA
BRANCH  32  35
ATOM     35  O   UNL     1       3.296  14.942  17.799  0.00  0.00    +0.000 OA
ATOM     36  C   UNL     1       4.591  14.675  18.323  0.00  0.00    +0.000 C 
ENDBRANCH  32  35
ENDBRANCH  26  29
ENDBRANCH   3  25
TORSDOF 6
ENDMDL
