MODEL 1
REMARK VINA RESULT:      -6.9      0.000      0.000
REMARK  Name = 
REMARK  3 active torsions:
REMARK  status: ('A' for Active; 'I' for Inactive)
REMARK    1  A    between atoms: C_1  and  C_2
REMARK    2  A    between atoms: C_3  and  C_4
REMARK    3  A    between atoms: C_4  and  O_6
REMARK                            x       y       z     vdW  Elec       q    Type
REMARK                         _______ _______ _______ _____ _____    ______ ____
ROOT
ATOM      1  C   UNL     1       8.811  12.825  18.304  0.00  0.00    +0.000 C 
ATOM      2  C   UNL     1       9.578  14.093  18.023  0.00  0.00    +0.000 A 
ATOM      3  C   UNL     1      10.822  14.136  17.396  0.00  0.00    +0.000 A 
ATOM      4  S   UNL     1      11.368  15.743  17.187  0.00  0.00    +0.000 S 
ATOM      5  C   UNL     1       9.989  16.386  17.932  0.00  0.00    +0.000 A 
ATOM      6  N   UNL     1       9.896  17.723  18.049  0.00  0.00    +0.000 NA
ATOM      7  C   UNL     1       8.763  18.081  18.643  0.00  0.00    +0.000 A 
ATOM      8  N   UNL     1       7.813  17.289  19.132  0.00  0.00    +0.000 NA
ATOM      9  C   UNL     1       7.933  15.924  19.037  0.00  0.00    +0.000 A 
ATOM     10  N   UNL     1       6.929  15.091  19.656  0.00  0.00    +0.000 N 
ATOM     11  C   UNL     1       5.707  15.877  19.889  0.00  0.00    +0.000 C 
ATOM     12  C   UNL     1       4.645  14.898  20.356  0.00  0.00    +0.000 C 
ATOM     13  C   UNL     1       4.951  14.279  21.739  0.00  0.00    +0.000 C 
ATOM     14  C   UNL     1       6.456  14.142  22.133  0.00  0.00    +0.000 C 
ATOM     15  C   UNL     1       7.474  14.513  20.928  0.00  0.00    +0.000 C 
ATOM     16  O   UNL     1       6.783  15.367  22.956  0.00  0.00    +0.000 OA
ATOM     17  C   UNL     1       8.040  15.071  23.608  0.00  0.00    +0.000 C 
ATOM     18  C   UNL     1       7.593  13.848  24.251  0.00  0.00    +0.000 A 
ATOM     19  C   UNL     1       7.907  13.445  25.549  0.00  0.00    +0.000 A 
ATOM     20  C   UNL     1       7.406  12.234  26.004  0.00  0.00    +0.000 A 
ATOM     21  C   UNL     1       6.652  11.442  25.117  0.00  0.00    +0.000 A 
ATOM     22  C   UNL     1       6.310  11.890  23.792  0.00  0.00    +0.000 A 
ATOM     23  C   UNL     1       6.776  13.143  23.338  0.00  0.00    +0.000 A 
ATOM     24  C   UNL     1       9.093  15.427  18.376  0.00  0.00    +0.000 A 
ENDROOT
BRANCH   3  25
ATOM     25  C   UNL     1      11.652  13.027  16.929  0.00  0.00    +0.000 C 
ATOM     26  O   UNL     1      11.950  12.028  17.571  0.00  0.00    +0.000 OA
BRANCH  25  27
ATOM     27  O   UNL     1      12.109  13.184  15.655  0.00  0.00    +0.000 OA
ATOM     28  H   UNL     1      11.557  12.702  15.011  0.00  0.00    +0.000 HD
ENDBRANCH  25  27
ENDBRANCH   3  25
TORSDOF 2
ENDMDL
MODEL 2
REMARK VINA RESULT:      -6.7      6.303      8.712
REMARK  Name = 
REMARK  3 active torsions:
REMARK  status: ('A' for Active; 'I' for Inactive)
REMARK    1  A    between atoms: C_1  and  C_2
REMARK    2  A    between atoms: C_3  and  C_4
REMARK    3  A    between atoms: C_4  and  O_6
REMARK                            x       y       z     vdW  Elec       q    Type
REMARK                         _______ _______ _______ _____ _____    ______ ____
ROOT
ATOM      1  C   UNL     1       2.815  14.261  18.690  0.00  0.00    +0.000 C 
ATOM      2  C   UNL     1       2.556  14.876  20.042  0.00  0.00    +0.000 A 
ATOM      3  C   UNL     1       3.433  15.741  20.693  0.00  0.00    +0.000 A 
ATOM      4  S   UNL     1       2.791  16.292  22.179  0.00  0.00    +0.000 S 
ATOM      5  C   UNL     1       1.373  15.387  21.985  0.00  0.00    +0.000 A 
ATOM      6  N   UNL     1       0.440  15.452  22.952  0.00  0.00    +0.000 NA
ATOM      7  C   UNL     1      -0.616  14.701  22.661  0.00  0.00    +0.000 A 
ATOM      8  N   UNL     1      -0.793  13.919  21.601  0.00  0.00    +0.000 NA
ATOM      9  C   UNL     1       0.180  13.833  20.634  0.00  0.00    +0.000 A 
ATOM     10  N   UNL     1      -0.004  12.906  19.542  0.00  0.00    +0.000 N 
ATOM     11  C   UNL     1      -1.427  12.550  19.426  0.00  0.00    +0.000 C 
ATOM     12  C   UNL     1      -1.568  11.738  18.152  0.00  0.00    +0.000 C 
ATOM     13  C   UNL     1      -0.852  10.369  18.217  0.00  0.00    +0.000 C 
ATOM     14  C   UNL     1       0.401  10.272  19.144  0.00  0.00    +0.000 C 
ATOM     15  C   UNL     1       0.860  11.700  19.759  0.00  0.00    +0.000 C 
ATOM     16  O   UNL     1      -0.099   9.723  20.462  0.00  0.00    +0.000 OA
ATOM     17  C   UNL     1       1.085   9.303  21.179  0.00  0.00    +0.000 C 
ATOM     18  C   UNL     1       1.579   8.409  20.147  0.00  0.00    +0.000 A 
ATOM     19  C   UNL     1       2.155   7.156  20.358  0.00  0.00    +0.000 A 
ATOM     20  C   UNL     1       2.589   6.435  19.255  0.00  0.00    +0.000 A 
ATOM     21  C   UNL     1       2.480   7.024  17.981  0.00  0.00    +0.000 A 
ATOM     22  C   UNL     1       1.851   8.303  17.779  0.00  0.00    +0.000 A 
ATOM     23  C   UNL     1       1.363   9.023  18.892  0.00  0.00    +0.000 A 
ATOM     24  C   UNL     1       1.343  14.634  20.822  0.00  0.00    +0.000 A 
ENDROOT
BRANCH   3  25
ATOM     25  C   UNL     1       4.756  16.197  20.267  0.00  0.00    +0.000 C 
ATOM     26  O   UNL     1       5.808  15.586  20.400  0.00  0.00    +0.000 OA
BRANCH  25  27
ATOM     27  O   UNL     1       4.748  17.426  19.679  0.00  0.00    +0.000 OA
ATOM     28  H   UNL     1       3.896  17.612  19.241  0.00  0.00    +0.000 HD
ENDBRANCH  25  27
ENDBRANCH   3  25
TORSDOF 2
ENDMDL
MODEL 3
REMARK VINA RESULT:      -6.7      7.126      9.322
REMARK  Name = 
REMARK  3 active torsions:
REMARK  status: ('A' for Active; 'I' for Inactive)
REMARK    1  A    between atoms: C_1  and  C_2
REMARK    2  A    between atoms: C_3  and  C_4
REMARK    3  A    between atoms: C_4  and  O_6
REMARK                            x       y       z     vdW  Elec       q    Type
REMARK                         _______ _______ _______ _____ _____    ______ ____
ROOT
ATOM      1  C   UNL     1       2.048  14.508  18.560  0.00  0.00    +0.000 C 
ATOM      2  C   UNL     1       1.582  15.114  19.860  0.00  0.00    +0.000 A 
ATOM      3  C   UNL     1       2.281  16.090  20.566  0.00  0.00    +0.000 A 
ATOM      4  S   UNL     1       1.430  16.591  21.963  0.00  0.00    +0.000 S 
ATOM      5  C   UNL     1       0.153  15.520  21.657  0.00  0.00    +0.000 A 
ATOM      6  N   UNL     1      -0.875  15.494  22.524  0.00  0.00    +0.000 NA
ATOM      7  C   UNL     1      -1.801  14.617  22.153  0.00  0.00    +0.000 A 
ATOM      8  N   UNL     1      -1.776  13.798  21.106  0.00  0.00    +0.000 NA
ATOM      9  C   UNL     1      -0.706  13.809  20.244  0.00  0.00    +0.000 A 
ATOM     10  N   UNL     1      -0.667  12.845  19.169  0.00  0.00    +0.000 N 
ATOM     11  C   UNL     1      -2.020  12.321  18.923  0.00  0.00    +0.000 C 
ATOM     12  C   UNL     1      -1.934  11.473  17.667  0.00  0.00    +0.000 C 
ATOM     13  C   UNL     1      -1.075  10.200  17.847  0.00  0.00    +0.000 C 
ATOM     14  C   UNL     1       0.078  10.270  18.898  0.00  0.00    +0.000 C 
ATOM     15  C   UNL     1       0.303  11.755  19.509  0.00  0.00    +0.000 C 
ATOM     16  O   UNL     1      -0.487   9.693  20.176  0.00  0.00    +0.000 OA
ATOM     17  C   UNL     1       0.657   9.430  21.021  0.00  0.00    +0.000 C 
ATOM     18  C   UNL     1       1.355   8.581  20.072  0.00  0.00    +0.000 A 
ATOM     19  C   UNL     1       2.048   7.409  20.378  0.00  0.00    +0.000 A 
ATOM     20  C   UNL     1       2.674   6.723  19.348  0.00  0.00    +0.000 A 
ATOM     21  C   UNL     1       2.628   7.269  18.051  0.00  0.00    +0.000 A 
ATOM     22  C   UNL     1       1.880   8.461  17.748  0.00  0.00    +0.000 A 
ATOM     23  C   UNL     1       1.200   9.140  18.783  0.00  0.00    +0.000 A 
ATOM     24  C   UNL     1       0.331  14.746  20.522  0.00  0.00    +0.000 A 
ENDROOT
BRANCH   3  25
ATOM     25  C   UNL     1       3.579  16.691  20.261  0.00  0.00    +0.000 C 
ATOM     26  O   UNL     1       3.785  17.596  19.464  0.00  0.00    +0.000 OA
BRANCH  25  27
ATOM     27  O   UNL     1       4.613  16.143  20.958  0.00  0.00    +0.000 OA
ATOM     28  H   UNL     1       4.300  15.511  21.633  0.00  0.00    +0.000 HD
ENDBRANCH  25  27
ENDBRANCH   3  25
TORSDOF 2
ENDMDL
MODEL 4
REMARK VINA RESULT:      -6.4      1.015      1.112
REMARK  Name = 
REMARK  3 active torsions:
REMARK  status: ('A' for Active; 'I' for Inactive)
REMARK    1  A    between atoms: C_1  and  C_2
REMARK    2  A    between atoms: C_3  and  C_4
REMARK    3  A    between atoms: C_4  and  O_6
REMARK                            x       y       z     vdW  Elec       q    Type
REMARK                         _______ _______ _______ _____ _____    ______ ____
ROOT
ATOM      1  C   UNL     1       8.839  13.391  18.129  0.00  0.00    +0.000 C 
ATOM      2  C   UNL     1       9.766  14.538  17.816  0.00  0.00    +0.000 A 
ATOM      3  C   UNL     1      11.058  14.389  17.314  0.00  0.00    +0.000 A 
ATOM      4  S   UNL     1      11.800  15.902  17.021  0.00  0.00    +0.000 S 
ATOM      5  C   UNL     1      10.442  16.755  17.567  0.00  0.00    +0.000 A 
ATOM      6  N   UNL     1      10.491  18.100  17.557  0.00  0.00    +0.000 NA
ATOM      7  C   UNL     1       9.357  18.631  18.002  0.00  0.00    +0.000 A 
ATOM      8  N   UNL     1       8.283  17.995  18.460  0.00  0.00    +0.000 NA
ATOM      9  C   UNL     1       8.256  16.621  18.497  0.00  0.00    +0.000 A 
ATOM     10  N   UNL     1       7.112  15.963  19.084  0.00  0.00    +0.000 N 
ATOM     11  C   UNL     1       5.971  16.892  19.125  0.00  0.00    +0.000 C 
ATOM     12  C   UNL     1       4.768  16.079  19.567  0.00  0.00    +0.000 C 
ATOM     13  C   UNL     1       4.877  15.569  21.023  0.00  0.00    +0.000 C 
ATOM     14  C   UNL     1       6.315  15.315  21.575  0.00  0.00    +0.000 C 
ATOM     15  C   UNL     1       7.472  15.458  20.449  0.00  0.00    +0.000 C 
ATOM     16  O   UNL     1       6.704  16.574  22.317  0.00  0.00    +0.000 OA
ATOM     17  C   UNL     1       7.856  16.213  23.114  0.00  0.00    +0.000 C 
ATOM     18  C   UNL     1       7.218  15.112  23.813  0.00  0.00    +0.000 A 
ATOM     19  C   UNL     1       7.366  14.807  25.166  0.00  0.00    +0.000 A 
ATOM     20  C   UNL     1       6.693  13.705  25.672  0.00  0.00    +0.000 A 
ATOM     21  C   UNL     1       5.936  12.914  24.787  0.00  0.00    +0.000 A 
ATOM     22  C   UNL     1       5.767  13.263  23.401  0.00  0.00    +0.000 A 
ATOM     23  C   UNL     1       6.410  14.411  22.888  0.00  0.00    +0.000 A 
ATOM     24  C   UNL     1       9.406  15.944  18.001  0.00  0.00    +0.000 A 
ENDROOT
BRANCH   3  25
ATOM     25  C   UNL     1      11.795  13.159  17.031  0.00  0.00    +0.000 C 
ATOM     26  O   UNL     1      11.985  12.235  17.811  0.00  0.00    +0.000 OA
BRANCH  25  27
ATOM     27  O   UNL     1      12.297  13.101  15.766  0.00  0.00    +0.000 OA
ATOM     28  H   UNL     1      12.402  12.179  15.460  0.00  0.00    +0.000 HD
ENDBRANCH  25  27
ENDBRANCH   3  25
TORSDOF 2
ENDMDL
MODEL 5
REMARK VINA RESULT:      -6.3      9.050     12.405
REMARK  Name = 
REMARK  3 active torsions:
REMARK  status: ('A' for Active; 'I' for Inactive)
REMARK    1  A    between atoms: C_1  and  C_2
REMARK    2  A    between atoms: C_3  and  C_4
REMARK    3  A    between atoms: C_4  and  O_6
REMARK                            x       y       z     vdW  Elec       q    Type
REMARK                         _______ _______ _______ _____ _____    ______ ____
ROOT
ATOM      1  C   UNL     1      -4.007  12.107  19.255  0.00  0.00    +0.000 C 
ATOM      2  C   UNL     1      -4.734  12.885  20.322  0.00  0.00    +0.000 A 
ATOM      3  C   UNL     1      -5.923  13.581  20.114  0.00  0.00    +0.000 A 
ATOM      4  S   UNL     1      -6.497  14.297  21.557  0.00  0.00    +0.000 S 
ATOM      5  C   UNL     1      -5.183  13.715  22.454  0.00  0.00    +0.000 A 
ATOM      6  N   UNL     1      -5.124  14.016  23.764  0.00  0.00    +0.000 NA
ATOM      7  C   UNL     1      -4.049  13.488  24.337  0.00  0.00    +0.000 A 
ATOM      8  N   UNL     1      -3.081  12.782  23.760  0.00  0.00    +0.000 NA
ATOM      9  C   UNL     1      -3.133  12.507  22.414  0.00  0.00    +0.000 A 
ATOM     10  N   UNL     1      -2.023  11.816  21.801  0.00  0.00    +0.000 N 
ATOM     11  C   UNL     1      -1.235  11.126  22.835  0.00  0.00    +0.000 C 
ATOM     12  C   UNL     1      -0.215  10.273  22.104  0.00  0.00    +0.000 C 
ATOM     13  C   UNL     1       0.839  11.105  21.336  0.00  0.00    +0.000 C 
ATOM     14  C   UNL     1       0.390  12.509  20.821  0.00  0.00    +0.000 C 
ATOM     15  C   UNL     1      -1.193  12.794  21.024  0.00  0.00    +0.000 C 
ATOM     16  O   UNL     1       0.832  13.499  21.875  0.00  0.00    +0.000 OA
ATOM     17  C   UNL     1       0.743  14.799  21.246  0.00  0.00    +0.000 C 
ATOM     18  C   UNL     1       1.606  14.483  20.121  0.00  0.00    +0.000 A 
ATOM     19  C   UNL     1       2.568  15.327  19.567  0.00  0.00    +0.000 A 
ATOM     20  C   UNL     1       3.299  14.871  18.480  0.00  0.00    +0.000 A 
ATOM     21  C   UNL     1       2.998  13.601  17.952  0.00  0.00    +0.000 A 
ATOM     22  C   UNL     1       2.024  12.730  18.558  0.00  0.00    +0.000 A 
ATOM     23  C   UNL     1       1.310  13.168  19.694  0.00  0.00    +0.000 A 
ATOM     24  C   UNL     1      -4.270  12.990  21.705  0.00  0.00    +0.000 A 
ENDROOT
BRANCH   3  25
ATOM     25  C   UNL     1      -6.681  13.751  18.875  0.00  0.00    +0.000 C 
ATOM     26  O   UNL     1      -7.612  13.053  18.496  0.00  0.00    +0.000 OA
BRANCH  25  27
ATOM     27  O   UNL     1      -6.258  14.799  18.115  0.00  0.00    +0.000 OA
ATOM     28  H   UNL     1      -5.907  15.527  18.664  0.00  0.00    +0.000 HD
ENDBRANCH  25  27
ENDBRANCH   3  25
TORSDOF 2
ENDMDL
MODEL 6
REMARK VINA RESULT:      -6.3      8.695     11.479
REMARK  Name = 
REMARK  3 active torsions:
REMARK  status: ('A' for Active; 'I' for Inactive)
REMARK    1  A    between atoms: C_1  and  C_2
REMARK    2  A    between atoms: C_3  and  C_4
REMARK    3  A    between atoms: C_4  and  O_6
REMARK                            x       y       z     vdW  Elec       q    Type
REMARK                         _______ _______ _______ _____ _____    ______ ____
ROOT
ATOM      1  C   UNL     1      -1.337  10.457  17.062  0.00  0.00    +0.000 C 
ATOM      2  C   UNL     1      -2.751  10.968  17.169  0.00  0.00    +0.000 A 
ATOM      3  C   UNL     1      -3.719  10.815  16.178  0.00  0.00    +0.000 A 
ATOM      4  S   UNL     1      -5.226  11.464  16.661  0.00  0.00    +0.000 S 
ATOM      5  C   UNL     1      -4.612  11.963  18.159  0.00  0.00    +0.000 A 
ATOM      6  N   UNL     1      -5.445  12.591  19.009  0.00  0.00    +0.000 NA
ATOM      7  C   UNL     1      -4.831  12.915  20.142  0.00  0.00    +0.000 A 
ATOM      8  N   UNL     1      -3.554  12.725  20.460  0.00  0.00    +0.000 NA
ATOM      9  C   UNL     1      -2.704  12.112  19.572  0.00  0.00    +0.000 A 
ATOM     10  N   UNL     1      -1.304  12.002  19.911  0.00  0.00    +0.000 N 
ATOM     11  C   UNL     1      -1.130  12.166  21.364  0.00  0.00    +0.000 C 
ATOM     12  C   UNL     1       0.322  11.846  21.665  0.00  0.00    +0.000 C 
ATOM     13  C   UNL     1       1.311  12.870  21.060  0.00  0.00    +0.000 C 
ATOM     14  C   UNL     1       0.861  13.598  19.754  0.00  0.00    +0.000 C 
ATOM     15  C   UNL     1      -0.520  13.017  19.135  0.00  0.00    +0.000 C 
ATOM     16  O   UNL     1       0.257  14.912  20.197  0.00  0.00    +0.000 OA
ATOM     17  C   UNL     1       0.174  15.722  19.002  0.00  0.00    +0.000 C 
ATOM     18  C   UNL     1       1.583  15.635  18.661  0.00  0.00    +0.000 A 
ATOM     19  C   UNL     1       2.372  16.677  18.174  0.00  0.00    +0.000 A 
ATOM     20  C   UNL     1       3.703  16.417  17.884  0.00  0.00    +0.000 A 
ATOM     21  C   UNL     1       4.181  15.102  18.039  0.00  0.00    +0.000 A 
ATOM     22  C   UNL     1       3.361  14.047  18.574  0.00  0.00    +0.000 A 
ATOM     23  C   UNL     1       2.018  14.315  18.918  0.00  0.00    +0.000 A 
ATOM     24  C   UNL     1      -3.268  11.681  18.337  0.00  0.00    +0.000 A 
ENDROOT
BRANCH   3  25
ATOM     25  C   UNL     1      -3.590  10.199  14.858  0.00  0.00    +0.000 C 
ATOM     26  O   UNL     1      -2.553  10.064  14.223  0.00  0.00    +0.000 OA
BRANCH  25  27
ATOM     27  O   UNL     1      -4.772   9.762  14.341  0.00  0.00    +0.000 OA
ATOM     28  H   UNL     1      -4.818   9.901  13.376  0.00  0.00    +0.000 HD
ENDBRANCH  25  27
ENDBRANCH   3  25
TORSDOF 2
ENDMDL
MODEL 7
REMARK VINA RESULT:      -6.3      4.603      6.857
REMARK  Name = 
REMARK  3 active torsions:
REMARK  status: ('A' for Active; 'I' for Inactive)
REMARK    1  A    between atoms: C_1  and  C_2
REMARK    2  A    between atoms: C_3  and  C_4
REMARK    3  A    between atoms: C_4  and  O_6
REMARK                            x       y       z     vdW  Elec       q    Type
REMARK                         _______ _______ _______ _____ _____    ______ ____
ROOT
ATOM      1  C   UNL     1       4.450  15.523  18.534  0.00  0.00    +0.000 C 
ATOM      2  C   UNL     1       5.467  15.104  19.565  0.00  0.00    +0.000 A 
ATOM      3  C   UNL     1       6.812  14.868  19.291  0.00  0.00    +0.000 A 
ATOM      4  S   UNL     1       7.685  14.468  20.706  0.00  0.00    +0.000 S 
ATOM      5  C   UNL     1       6.303  14.584  21.679  0.00  0.00    +0.000 A 
ATOM      6  N   UNL     1       6.431  14.340  22.996  0.00  0.00    +0.000 NA
ATOM      7  C   UNL     1       5.271  14.476  23.630  0.00  0.00    +0.000 A 
ATOM      8  N   UNL     1       4.084  14.765  23.106  0.00  0.00    +0.000 NA
ATOM      9  C   UNL     1       3.958  14.980  21.755  0.00  0.00    +0.000 A 
ATOM     10  N   UNL     1       2.641  15.202  21.204  0.00  0.00    +0.000 N 
ATOM     11  C   UNL     1       1.718  15.612  22.275  0.00  0.00    +0.000 C 
ATOM     12  C   UNL     1       0.420  16.013  21.598  0.00  0.00    +0.000 C 
ATOM     13  C   UNL     1      -0.307  14.827  20.922  0.00  0.00    +0.000 C 
ATOM     14  C   UNL     1       0.585  13.653  20.408  0.00  0.00    +0.000 C 
ATOM     15  C   UNL     1       2.174  13.960  20.508  0.00  0.00    +0.000 C 
ATOM     16  O   UNL     1       0.587  12.618  21.511  0.00  0.00    +0.000 OA
ATOM     17  C   UNL     1       1.100  11.409  20.905  0.00  0.00    +0.000 C 
ATOM     18  C   UNL     1       0.119  11.347  19.836  0.00  0.00    +0.000 A 
ATOM     19  C   UNL     1      -0.507  10.191  19.367  0.00  0.00    +0.000 A 
ATOM     20  C   UNL     1      -1.412  10.308  18.323  0.00  0.00    +0.000 A 
ATOM     21  C   UNL     1      -1.617  11.577  17.749  0.00  0.00    +0.000 A 
ATOM     22  C   UNL     1      -0.987  12.764  18.268  0.00  0.00    +0.000 A 
ATOM     23  C   UNL     1      -0.100  12.660  19.362  0.00  0.00    +0.000 A 
ATOM     24  C   UNL     1       5.150  14.903  20.979  0.00  0.00    +0.000 A 
ENDROOT
BRANCH   3  25
ATOM     25  C   UNL     1       7.510  14.924  18.007  0.00  0.00    +0.000 C 
ATOM     26  O   UNL     1       8.149  15.872  17.573  0.00  0.00    +0.000 OA
BRANCH  25  27
ATOM     27  O   UNL     1       7.393  13.783  17.271  0.00  0.00    +0.000 OA
ATOM     28  H   UNL     1       7.850  13.032  17.694  0.00  0.00    +0.000 HD
ENDBRANCH  25  27
ENDBRANCH   3  25
TORSDOF 2
ENDMDL
MODEL 8
REMARK VINA RESULT:      -6.2      7.996     10.042
REMARK  Name = 
REMARK  3 active torsions:
REMARK  status: ('A' for Active; 'I' for Inactive)
REMARK    1  A    between atoms: C_1  and  C_2
REMARK    2  A    between atoms: C_3  and  C_4
REMARK    3  A    between atoms: C_4  and  O_6
REMARK                            x       y       z     vdW  Elec       q    Type
REMARK                         _______ _______ _______ _____ _____    ______ ____
ROOT
ATOM      1  C   UNL     1       1.204  14.904  19.499  0.00  0.00    +0.000 C 
ATOM      2  C   UNL     1       0.663  15.252  20.862  0.00  0.00    +0.000 A 
ATOM      3  C   UNL     1       1.244  16.180  21.724  0.00  0.00    +0.000 A 
ATOM      4  S   UNL     1       0.331  16.367  23.159  0.00  0.00    +0.000 S 
ATOM      5  C   UNL     1      -0.816  15.222  22.665  0.00  0.00    +0.000 A 
ATOM      6  N   UNL     1      -1.841  14.953  23.493  0.00  0.00    +0.000 NA
ATOM      7  C   UNL     1      -2.661  14.047  22.972  0.00  0.00    +0.000 A 
ATOM      8  N   UNL     1      -2.537  13.404  21.814  0.00  0.00    +0.000 NA
ATOM      9  C   UNL     1      -1.468  13.662  20.991  0.00  0.00    +0.000 A 
ATOM     10  N   UNL     1      -1.314  12.883  19.784  0.00  0.00    +0.000 N 
ATOM     11  C   UNL     1      -2.598  12.257  19.430  0.00  0.00    +0.000 C 
ATOM     12  C   UNL     1      -2.408  11.624  18.064  0.00  0.00    +0.000 C 
ATOM     13  C   UNL     1      -1.414  10.440  18.072  0.00  0.00    +0.000 C 
ATOM     14  C   UNL     1      -0.284  10.476  19.149  0.00  0.00    +0.000 C 
ATOM     15  C   UNL     1      -0.230  11.866  19.981  0.00  0.00    +0.000 C 
ATOM     16  O   UNL     1      -0.791   9.652  20.312  0.00  0.00    +0.000 OA
ATOM     17  C   UNL     1       0.369   9.391  21.135  0.00  0.00    +0.000 C 
ATOM     18  C   UNL     1       1.164   8.777  20.087  0.00  0.00    +0.000 A 
ATOM     19  C   UNL     1       1.981   7.655  20.232  0.00  0.00    +0.000 A 
ATOM     20  C   UNL     1       2.688   7.206  19.126  0.00  0.00    +0.000 A 
ATOM     21  C   UNL     1       2.591   7.934  17.925  0.00  0.00    +0.000 A 
ATOM     22  C   UNL     1       1.717   9.069  17.785  0.00  0.00    +0.000 A 
ATOM     23  C   UNL     1       0.958   9.504  18.893  0.00  0.00    +0.000 A 
ATOM     24  C   UNL     1      -0.545  14.653  21.431  0.00  0.00    +0.000 A 
ENDROOT
BRANCH   3  25
ATOM     25  C   UNL     1       2.468  16.958  21.544  0.00  0.00    +0.000 C 
ATOM     26  O   UNL     1       3.581  16.659  21.955  0.00  0.00    +0.000 OA
BRANCH  25  27
ATOM     27  O   UNL     1       2.284  18.116  20.850  0.00  0.00    +0.000 OA
ATOM     28  H   UNL     1       2.718  18.087  19.976  0.00  0.00    +0.000 HD
ENDBRANCH  25  27
ENDBRANCH   3  25
TORSDOF 2
ENDMDL
MODEL 9
REMARK VINA RESULT:      -6.2      9.611     13.020
REMARK  Name = 
REMARK  3 active torsions:
REMARK  status: ('A' for Active; 'I' for Inactive)
REMARK    1  A    between atoms: C_1  and  C_2
REMARK    2  A    between atoms: C_3  and  C_4
REMARK    3  A    between atoms: C_4  and  O_6
REMARK                            x       y       z     vdW  Elec       q    Type
REMARK                         _______ _______ _______ _____ _____    ______ ____
ROOT
ATOM      1  C   UNL     1      -4.010  13.074  23.871  0.00  0.00    +0.000 C 
ATOM      2  C   UNL     1      -4.979  13.942  23.109  0.00  0.00    +0.000 A 
ATOM      3  C   UNL     1      -6.366  13.848  23.211  0.00  0.00    +0.000 A 
ATOM      4  S   UNL     1      -7.151  15.026  22.251  0.00  0.00    +0.000 S 
ATOM      5  C   UNL     1      -5.681  15.649  21.685  0.00  0.00    +0.000 A 
ATOM      6  N   UNL     1      -5.719  16.678  20.819  0.00  0.00    +0.000 NA
ATOM      7  C   UNL     1      -4.497  17.066  20.471  0.00  0.00    +0.000 A 
ATOM      8  N   UNL     1      -3.336  16.535  20.842  0.00  0.00    +0.000 NA
ATOM      9  C   UNL     1      -3.309  15.462  21.700  0.00  0.00    +0.000 A 
ATOM     10  N   UNL     1      -2.038  14.852  22.013  0.00  0.00    +0.000 N 
ATOM     11  C   UNL     1      -0.947  15.790  21.702  0.00  0.00    +0.000 C 
ATOM     12  C   UNL     1       0.328  15.161  22.233  0.00  0.00    +0.000 C 
ATOM     13  C   UNL     1       0.731  13.870  21.483  0.00  0.00    +0.000 C 
ATOM     14  C   UNL     1      -0.425  13.029  20.856  0.00  0.00    +0.000 C 
ATOM     15  C   UNL     1      -1.902  13.565  21.256  0.00  0.00    +0.000 C 
ATOM     16  O   UNL     1      -0.521  13.467  19.411  0.00  0.00    +0.000 OA
ATOM     17  C   UNL     1      -1.324  12.459  18.754  0.00  0.00    +0.000 C 
ATOM     18  C   UNL     1      -0.491  11.331  19.131  0.00  0.00    +0.000 A 
ATOM     19  C   UNL     1      -0.160  10.251  18.312  0.00  0.00    +0.000 A 
ATOM     20  C   UNL     1       0.639   9.246  18.837  0.00  0.00    +0.000 A 
ATOM     21  C   UNL     1       1.033   9.335  20.186  0.00  0.00    +0.000 A 
ATOM     22  C   UNL     1       0.709  10.474  21.005  0.00  0.00    +0.000 A 
ATOM     23  C   UNL     1      -0.064  11.524  20.464  0.00  0.00    +0.000 A 
ATOM     24  C   UNL     1      -4.566  14.990  22.176  0.00  0.00    +0.000 A 
ENDROOT
BRANCH   3  25
ATOM     25  C   UNL     1      -7.166  12.912  23.999  0.00  0.00    +0.000 C 
ATOM     26  O   UNL     1      -7.208  11.698  23.854  0.00  0.00    +0.000 OA
BRANCH  25  27
ATOM     27  O   UNL     1      -7.916  13.512  24.965  0.00  0.00    +0.000 OA
ATOM     28  H   UNL     1      -8.438  14.256  24.608  0.00  0.00    +0.000 HD
ENDBRANCH  25  27
ENDBRANCH   3  25
TORSDOF 2
ENDMDL
