MODEL 1
REMARK VINA RESULT:      -8.0      0.000      0.000
REMARK  Name = 
REMARK  7 active torsions:
REMARK  status: ('A' for Active; 'I' for Inactive)
REMARK    1  A    between atoms: C_1  and  C_2
REMARK    2  A    between atoms: C_6  and  O_7
REMARK    3  A    between atoms: O_7  and  C_8
REMARK    4  A    between atoms: C_8  and  C_9
REMARK    5  A    between atoms: C_9  and  N_10
REMARK    6  A    between atoms: N_13  and  C_14
REMARK    7  A    between atoms: C_14  and  C_15
REMARK                            x       y       z     vdW  Elec       q    Type
REMARK                         _______ _______ _______ _____ _____    ______ ____
ROOT
ATOM      1  N   UNL     1       2.938   5.106  20.174  0.00  0.00    +0.000 NA
ATOM      2  C   UNL     1       2.799   3.692  19.772  0.00  0.00    +0.000 C 
ATOM      3  C   UNL     1       2.315   3.466  18.328  0.00  0.00    +0.000 C 
ATOM      4  N   UNL     1       3.171   4.137  17.333  0.00  0.00    +0.000 NA
ATOM      5  C   UNL     1       3.163   5.580  17.667  0.00  0.00    +0.000 C 
ATOM      6  C   UNL     1       3.559   5.926  19.123  0.00  0.00    +0.000 C 
ENDROOT
BRANCH   1   7
ATOM      7  C   UNL     1       1.728   5.695  20.792  0.00  0.00    +0.000 C 
BRANCH   7   8
ATOM      8  C   UNL     1       1.825   7.206  20.554  0.00  0.00    +0.000 C 
BRANCH   8   9
ATOM      9  O   UNL     1       1.311   8.130  21.481  0.00  0.00    +0.000 OA
BRANCH   9  15
ATOM     10  C   UNL     1      -2.897  13.401  22.655  0.00  0.00    +0.000 C 
ATOM     11  C   UNL     1      -2.001  12.266  22.264  0.00  0.00    +0.000 A 
ATOM     12  C   UNL     1      -1.601  11.346  23.198  0.00  0.00    +0.000 A 
ATOM     13  C   UNL     1      -0.744  10.333  22.788  0.00  0.00    +0.000 A 
ATOM     14  C   UNL     1      -0.256  10.195  21.449  0.00  0.00    +0.000 A 
ATOM     15  C   UNL     1       0.649   9.199  20.864  0.00  0.00    +0.000 A 
ATOM     16  C   UNL     1       0.960   9.240  19.501  0.00  0.00    +0.000 A 
ATOM     17  C   UNL     1       0.435  10.238  18.698  0.00  0.00    +0.000 A 
ATOM     18  C   UNL     1      -0.402  11.204  19.252  0.00  0.00    +0.000 A 
ATOM     19  C   UNL     1      -0.761  11.203  20.590  0.00  0.00    +0.000 A 
ATOM     20  N   UNL     1      -1.591  12.197  20.979  0.00  0.00    +0.000 NA
ENDBRANCH   9  15
ENDBRANCH   8   9
ENDBRANCH   7   8
ENDBRANCH   1   7
BRANCH   4  21
ATOM     21  C   UNL     1       4.512   3.525  17.374  0.00  0.00    +0.000 C 
BRANCH  21  22
ATOM     22  C   UNL     1       5.448   3.968  16.283  0.00  0.00    +0.000 A 
ATOM     23  C   UNL     1       6.501   4.840  16.550  0.00  0.00    +0.000 A 
ATOM     24  C   UNL     1       7.323   5.286  15.514  0.00  0.00    +0.000 A 
ATOM     25  C   UNL     1       7.101   4.859  14.201  0.00  0.00    +0.000 A 
ATOM     26 CL   UNL     1       8.146   5.464  12.968  0.00  0.00    +0.000 Cl
ATOM     27  C   UNL     1       6.055   3.977  13.925  0.00  0.00    +0.000 A 
ATOM     28 CL   UNL     1       5.712   3.399  12.333  0.00  0.00    +0.000 Cl
ATOM     29  C   UNL     1       5.230   3.534  14.963  0.00  0.00    +0.000 A 
ENDBRANCH  21  22
ENDBRANCH   4  21
TORSDOF 6
ENDMDL
MODEL 2
REMARK VINA RESULT:      -7.9      4.440      9.243
REMARK  Name = 
REMARK  7 active torsions:
REMARK  status: ('A' for Active; 'I' for Inactive)
REMARK    1  A    between atoms: C_1  and  C_2
REMARK    2  A    between atoms: C_6  and  O_7
REMARK    3  A    between atoms: O_7  and  C_8
REMARK    4  A    between atoms: C_8  and  C_9
REMARK    5  A    between atoms: C_9  and  N_10
REMARK    6  A    between atoms: N_13  and  C_14
REMARK    7  A    between atoms: C_14  and  C_15
REMARK                            x       y       z     vdW  Elec       q    Type
REMARK                         _______ _______ _______ _____ _____    ______ ____
ROOT
ATOM      1  N   UNL     1       2.117   5.136  19.015  0.00  0.00    +0.000 NA
ATOM      2  C   UNL     1       1.472   6.227  19.772  0.00  0.00    +0.000 C 
ATOM      3  C   UNL     1       2.299   7.521  19.889  0.00  0.00    +0.000 C 
ATOM      4  N   UNL     1       2.700   8.056  18.575  0.00  0.00    +0.000 NA
ATOM      5  C   UNL     1       3.483   6.995  17.903  0.00  0.00    +0.000 C 
ATOM      6  C   UNL     1       2.781   5.619  17.795  0.00  0.00    +0.000 C 
ENDROOT
BRANCH   1   7
ATOM      7  C   UNL     1       2.923   4.205  19.839  0.00  0.00    +0.000 C 
BRANCH   7   8
ATOM      8  C   UNL     1       3.982   3.620  18.898  0.00  0.00    +0.000 C 
BRANCH   8   9
ATOM      9  O   UNL     1       5.345   3.604  19.245  0.00  0.00    +0.000 OA
BRANCH   9  15
ATOM     10  C   UNL     1       7.210   5.023  12.813  0.00  0.00    +0.000 C 
ATOM     11  C   UNL     1       6.902   4.797  14.262  0.00  0.00    +0.000 A 
ATOM     12  C   UNL     1       6.124   3.737  14.647  0.00  0.00    +0.000 A 
ATOM     13  C   UNL     1       5.843   3.593  15.999  0.00  0.00    +0.000 A 
ATOM     14  C   UNL     1       6.319   4.488  17.011  0.00  0.00    +0.000 A 
ATOM     15  C   UNL     1       6.109   4.479  18.464  0.00  0.00    +0.000 A 
ATOM     16  C   UNL     1       6.714   5.447  19.271  0.00  0.00    +0.000 A 
ATOM     17  C   UNL     1       7.498   6.437  18.702  0.00  0.00    +0.000 A 
ATOM     18  C   UNL     1       7.679   6.468  17.322  0.00  0.00    +0.000 A 
ATOM     19  C   UNL     1       7.121   5.525  16.473  0.00  0.00    +0.000 A 
ATOM     20  N   UNL     1       7.396   5.678  15.158  0.00  0.00    +0.000 NA
ENDBRANCH   9  15
ENDBRANCH   8   9
ENDBRANCH   7   8
ENDBRANCH   1   7
BRANCH   4  21
ATOM     21  C   UNL     1       1.488   8.458  17.838  0.00  0.00    +0.000 C 
BRANCH  21  22
ATOM     22  C   UNL     1       1.008   9.856  18.114  0.00  0.00    +0.000 A 
ATOM     23  C   UNL     1       1.910  10.904  18.287  0.00  0.00    +0.000 A 
ATOM     24  C   UNL     1       1.449  12.183  18.601  0.00  0.00    +0.000 A 
ATOM     25  C   UNL     1       0.079  12.426  18.741  0.00  0.00    +0.000 A 
ATOM     26 CL   UNL     1      -0.419  14.027  19.148  0.00  0.00    +0.000 Cl
ATOM     27  C   UNL     1      -0.833  11.385  18.560  0.00  0.00    +0.000 A 
ATOM     28 CL   UNL     1      -2.541  11.598  18.713  0.00  0.00    +0.000 Cl
ATOM     29  C   UNL     1      -0.370  10.104  18.249  0.00  0.00    +0.000 A 
ENDBRANCH  21  22
ENDBRANCH   4  21
TORSDOF 6
ENDMDL
MODEL 3
REMARK VINA RESULT:      -7.7      1.057      1.426
REMARK  Name = 
REMARK  7 active torsions:
REMARK  status: ('A' for Active; 'I' for Inactive)
REMARK    1  A    between atoms: C_1  and  C_2
REMARK    2  A    between atoms: C_6  and  O_7
REMARK    3  A    between atoms: O_7  and  C_8
REMARK    4  A    between atoms: C_8  and  C_9
REMARK    5  A    between atoms: C_9  and  N_10
REMARK    6  A    between atoms: N_13  and  C_14
REMARK    7  A    between atoms: C_14  and  C_15
REMARK                            x       y       z     vdW  Elec       q    Type
REMARK                         _______ _______ _______ _____ _____    ______ ____
ROOT
ATOM      1  N   UNL     1       2.632   3.947  19.763  0.00  0.00    +0.000 NA
ATOM      2  C   UNL     1       2.460   4.662  18.484  0.00  0.00    +0.000 C 
ATOM      3  C   UNL     1       3.654   5.535  18.055  0.00  0.00    +0.000 C 
ATOM      4  N   UNL     1       4.915   4.774  17.982  0.00  0.00    +0.000 NA
ATOM      5  C   UNL     1       5.144   4.198  19.326  0.00  0.00    +0.000 C 
ATOM      6  C   UNL     1       3.975   3.359  19.897  0.00  0.00    +0.000 C 
ENDROOT
BRANCH   1   7
ATOM      7  C   UNL     1       2.151   4.684  20.954  0.00  0.00    +0.000 C 
BRANCH   7   8
ATOM      8  C   UNL     1       1.631   6.030  20.434  0.00  0.00    +0.000 C 
BRANCH   8   9
ATOM      9  O   UNL     1       2.198   7.247  20.852  0.00  0.00    +0.000 OA
BRANCH   9  15
ATOM     10  C   UNL     1      -2.056  12.161  23.001  0.00  0.00    +0.000 C 
ATOM     11  C   UNL     1      -1.160  11.120  22.402  0.00  0.00    +0.000 A 
ATOM     12  C   UNL     1      -0.662  10.106  23.178  0.00  0.00    +0.000 A 
ATOM     13  C   UNL     1       0.189   9.187  22.580  0.00  0.00    +0.000 A 
ATOM     14  C   UNL     1       0.574   9.237  21.202  0.00  0.00    +0.000 A 
ATOM     15  C   UNL     1       1.459   8.358  20.428  0.00  0.00    +0.000 A 
ATOM     16  C   UNL     1       1.661   8.582  19.063  0.00  0.00    +0.000 A 
ATOM     17  C   UNL     1       1.046   9.653  18.435  0.00  0.00    +0.000 A 
ATOM     18  C   UNL     1       0.228  10.508  19.169  0.00  0.00    +0.000 A 
ATOM     19  C   UNL     1      -0.026  10.325  20.518  0.00  0.00    +0.000 A 
ATOM     20  N   UNL     1      -0.851  11.229  21.092  0.00  0.00    +0.000 NA
ENDBRANCH   9  15
ENDBRANCH   8   9
ENDBRANCH   7   8
ENDBRANCH   1   7
BRANCH   4  21
ATOM     21  C   UNL     1       4.794   3.763  16.915  0.00  0.00    +0.000 C 
BRANCH  21  22
ATOM     22  C   UNL     1       5.577   4.059  15.666  0.00  0.00    +0.000 A 
ATOM     23  C   UNL     1       6.707   4.874  15.702  0.00  0.00    +0.000 A 
ATOM     24  C   UNL     1       7.387   5.185  14.524  0.00  0.00    +0.000 A 
ATOM     25  C   UNL     1       6.945   4.678  13.298  0.00  0.00    +0.000 A 
ATOM     26 CL   UNL     1       7.824   5.118  11.880  0.00  0.00    +0.000 Cl
ATOM     27  C   UNL     1       5.821   3.852  13.252  0.00  0.00    +0.000 A 
ATOM     28 CL   UNL     1       5.209   3.183  11.781  0.00  0.00    +0.000 Cl
ATOM     29  C   UNL     1       5.138   3.545  14.432  0.00  0.00    +0.000 A 
ENDBRANCH  21  22
ENDBRANCH   4  21
TORSDOF 6
ENDMDL
MODEL 4
REMARK VINA RESULT:      -7.7      5.297     10.572
REMARK  Name = 
REMARK  7 active torsions:
REMARK  status: ('A' for Active; 'I' for Inactive)
REMARK    1  A    between atoms: C_1  and  C_2
REMARK    2  A    between atoms: C_6  and  O_7
REMARK    3  A    between atoms: O_7  and  C_8
REMARK    4  A    between atoms: C_8  and  C_9
REMARK    5  A    between atoms: C_9  and  N_10
REMARK    6  A    between atoms: N_13  and  C_14
REMARK    7  A    between atoms: C_14  and  C_15
REMARK                            x       y       z     vdW  Elec       q    Type
REMARK                         _______ _______ _______ _____ _____    ______ ____
ROOT
ATOM      1  N   UNL     1       1.645  10.281  19.177  0.00  0.00    +0.000 NA
ATOM      2  C   UNL     1       1.230  11.690  19.325  0.00  0.00    +0.000 C 
ATOM      3  C   UNL     1      -0.285  11.915  19.485  0.00  0.00    +0.000 C 
ATOM      4  N   UNL     1      -0.854  11.155  20.613  0.00  0.00    +0.000 NA
ATOM      5  C   UNL     1      -0.561   9.727  20.356  0.00  0.00    +0.000 C 
ATOM      6  C   UNL     1       0.929   9.390  20.103  0.00  0.00    +0.000 C 
ENDROOT
BRANCH   1   7
ATOM      7  C   UNL     1       1.717   9.802  17.778  0.00  0.00    +0.000 C 
BRANCH   7   8
ATOM      8  C   UNL     1       2.124   8.326  17.859  0.00  0.00    +0.000 C 
BRANCH   8   9
ATOM      9  O   UNL     1       3.472   7.931  17.785  0.00  0.00    +0.000 OA
BRANCH   9  15
ATOM     10  C   UNL     1       1.703   2.516  21.582  0.00  0.00    +0.000 C 
ATOM     11  C   UNL     1       2.186   3.622  20.694  0.00  0.00    +0.000 A 
ATOM     12  C   UNL     1       1.838   4.921  20.954  0.00  0.00    +0.000 A 
ATOM     13  C   UNL     1       2.287   5.902  20.080  0.00  0.00    +0.000 A 
ATOM     14  C   UNL     1       3.090   5.634  18.926  0.00  0.00    +0.000 A 
ATOM     15  C   UNL     1       3.633   6.546  17.911  0.00  0.00    +0.000 A 
ATOM     16  C   UNL     1       4.438   6.055  16.878  0.00  0.00    +0.000 A 
ATOM     17  C   UNL     1       4.708   4.700  16.790  0.00  0.00    +0.000 A 
ATOM     18  C   UNL     1       4.173   3.825  17.732  0.00  0.00    +0.000 A 
ATOM     19  C   UNL     1       3.386   4.254  18.789  0.00  0.00    +0.000 A 
ATOM     20  N   UNL     1       2.950   3.290  19.630  0.00  0.00    +0.000 NA
ENDBRANCH   9  15
ENDBRANCH   8   9
ENDBRANCH   7   8
ENDBRANCH   1   7
BRANCH   4  21
ATOM     21  C   UNL     1      -0.270  11.665  21.868  0.00  0.00    +0.000 C 
BRANCH  21  22
ATOM     22  C   UNL     1      -1.134  12.637  22.623  0.00  0.00    +0.000 A 
ATOM     23  C   UNL     1      -0.740  13.962  22.801  0.00  0.00    +0.000 A 
ATOM     24  C   UNL     1      -1.527  14.833  23.554  0.00  0.00    +0.000 A 
ATOM     25  C   UNL     1      -2.720  14.388  24.133  0.00  0.00    +0.000 A 
ATOM     26 CL   UNL     1      -3.633  15.516  25.067  0.00  0.00    +0.000 Cl
ATOM     27  C   UNL     1      -3.129  13.066  23.952  0.00  0.00    +0.000 A 
ATOM     28 CL   UNL     1      -4.587  12.435  24.631  0.00  0.00    +0.000 Cl
ATOM     29  C   UNL     1      -2.338  12.193  23.201  0.00  0.00    +0.000 A 
ENDBRANCH  21  22
ENDBRANCH   4  21
TORSDOF 6
ENDMDL
MODEL 5
REMARK VINA RESULT:      -7.6      4.435      9.921
REMARK  Name = 
REMARK  7 active torsions:
REMARK  status: ('A' for Active; 'I' for Inactive)
REMARK    1  A    between atoms: C_1  and  C_2
REMARK    2  A    between atoms: C_6  and  O_7
REMARK    3  A    between atoms: O_7  and  C_8
REMARK    4  A    between atoms: C_8  and  C_9
REMARK    5  A    between atoms: C_9  and  N_10
REMARK    6  A    between atoms: N_13  and  C_14
REMARK    7  A    between atoms: C_14  and  C_15
REMARK                            x       y       z     vdW  Elec       q    Type
REMARK                         _______ _______ _______ _____ _____    ______ ____
ROOT
ATOM      1  N   UNL     1       2.409   7.537  19.574  0.00  0.00    +0.000 NA
ATOM      2  C   UNL     1       2.533   8.186  18.254  0.00  0.00    +0.000 C 
ATOM      3  C   UNL     1       1.267   8.906  17.756  0.00  0.00    +0.000 C 
ATOM      4  N   UNL     1       0.776   9.916  18.712  0.00  0.00    +0.000 NA
ATOM      5  C   UNL     1       0.508   9.204  19.983  0.00  0.00    +0.000 C 
ATOM      6  C   UNL     1       1.691   8.379  20.544  0.00  0.00    +0.000 C 
ENDROOT
BRANCH   1   7
ATOM      7  C   UNL     1       1.972   6.123  19.529  0.00  0.00    +0.000 C 
BRANCH   7   8
ATOM      8  C   UNL     1       2.723   5.487  18.354  0.00  0.00    +0.000 C 
BRANCH   8   9
ATOM      9  O   UNL     1       3.656   4.453  18.552  0.00  0.00    +0.000 OA
BRANCH   9  15
ATOM     10  C   UNL     1       7.722   5.018  13.073  0.00  0.00    +0.000 C 
ATOM     11  C   UNL     1       6.945   4.907  14.349  0.00  0.00    +0.000 A 
ATOM     12  C   UNL     1       5.660   4.431  14.339  0.00  0.00    +0.000 A 
ATOM     13  C   UNL     1       4.975   4.379  15.545  0.00  0.00    +0.000 A 
ATOM     14  C   UNL     1       5.534   4.793  16.797  0.00  0.00    +0.000 A 
ATOM     15  C   UNL     1       4.947   4.808  18.142  0.00  0.00    +0.000 A 
ATOM     16  C   UNL     1       5.707   5.225  19.240  0.00  0.00    +0.000 A 
ATOM     17  C   UNL     1       7.012   5.651  19.061  0.00  0.00    +0.000 A 
ATOM     18  C   UNL     1       7.566   5.667  17.784  0.00  0.00    +0.000 A 
ATOM     19  C   UNL     1       6.870   5.247  16.662  0.00  0.00    +0.000 A 
ATOM     20  N   UNL     1       7.545   5.307  15.491  0.00  0.00    +0.000 NA
ENDBRANCH   9  15
ENDBRANCH   8   9
ENDBRANCH   7   8
ENDBRANCH   1   7
BRANCH   4  21
ATOM     21  C   UNL     1       1.786  10.984  18.831  0.00  0.00    +0.000 C 
BRANCH  21  22
ATOM     22  C   UNL     1       1.235  12.382  18.844  0.00  0.00    +0.000 A 
ATOM     23  C   UNL     1      -0.132  12.615  18.991  0.00  0.00    +0.000 A 
ATOM     24  C   UNL     1      -0.632  13.917  18.942  0.00  0.00    +0.000 A 
ATOM     25  C   UNL     1       0.233  14.999  18.751  0.00  0.00    +0.000 A 
ATOM     26 CL   UNL     1      -0.458  16.580  18.684  0.00  0.00    +0.000 Cl
ATOM     27  C   UNL     1       1.604  14.778  18.614  0.00  0.00    +0.000 A 
ATOM     28 CL   UNL     1       2.740  16.058  18.376  0.00  0.00    +0.000 Cl
ATOM     29  C   UNL     1       2.103  13.474  18.659  0.00  0.00    +0.000 A 
ENDBRANCH  21  22
ENDBRANCH   4  21
TORSDOF 6
ENDMDL
MODEL 6
REMARK VINA RESULT:      -7.6      6.507      8.237
REMARK  Name = 
REMARK  7 active torsions:
REMARK  status: ('A' for Active; 'I' for Inactive)
REMARK    1  A    between atoms: C_1  and  C_2
REMARK    2  A    between atoms: C_6  and  O_7
REMARK    3  A    between atoms: O_7  and  C_8
REMARK    4  A    between atoms: C_8  and  C_9
REMARK    5  A    between atoms: C_9  and  N_10
REMARK    6  A    between atoms: N_13  and  C_14
REMARK    7  A    between atoms: C_14  and  C_15
REMARK                            x       y       z     vdW  Elec       q    Type
REMARK                         _______ _______ _______ _____ _____    ______ ____
ROOT
ATOM      1  N   UNL     1       6.751   7.178  17.290  0.00  0.00    +0.000 NA
ATOM      2  C   UNL     1       6.321   6.653  15.979  0.00  0.00    +0.000 C 
ATOM      3  C   UNL     1       6.578   5.150  15.759  0.00  0.00    +0.000 C 
ATOM      4  N   UNL     1       5.964   4.312  16.806  0.00  0.00    +0.000 NA
ATOM      5  C   UNL     1       6.536   4.757  18.097  0.00  0.00    +0.000 C 
ATOM      6  C   UNL     1       6.406   6.271  18.395  0.00  0.00    +0.000 C 
ENDROOT
BRANCH   1   7
ATOM      7  C   UNL     1       8.135   7.703  17.321  0.00  0.00    +0.000 C 
BRANCH   7   8
ATOM      8  C   UNL     1       8.063   9.038  18.072  0.00  0.00    +0.000 C 
BRANCH   8   9
ATOM      9  O   UNL     1       8.939   9.333  19.132  0.00  0.00    +0.000 OA
BRANCH   9  15
ATOM     10  C   UNL     1       9.639  15.040  22.848  0.00  0.00    +0.000 C 
ATOM     11  C   UNL     1       9.515  13.867  21.924  0.00  0.00    +0.000 A 
ATOM     12  C   UNL     1       8.901  12.716  22.344  0.00  0.00    +0.000 A 
ATOM     13  C   UNL     1       8.842  11.649  21.458  0.00  0.00    +0.000 A 
ATOM     14  C   UNL     1       9.384  11.682  20.134  0.00  0.00    +0.000 A 
ATOM     15  C   UNL     1       9.410  10.650  19.090  0.00  0.00    +0.000 A 
ATOM     16  C   UNL     1       9.968  10.926  17.838  0.00  0.00    +0.000 A 
ATOM     17  C   UNL     1      10.524  12.168  17.582  0.00  0.00    +0.000 A 
ATOM     18  C   UNL     1      10.529  13.142  18.576  0.00  0.00    +0.000 A 
ATOM     19  C   UNL     1       9.974  12.935  19.829  0.00  0.00    +0.000 A 
ATOM     20  N   UNL     1      10.042  13.979  20.685  0.00  0.00    +0.000 NA
ENDBRANCH   9  15
ENDBRANCH   8   9
ENDBRANCH   7   8
ENDBRANCH   1   7
BRANCH   4  21
ATOM     21  C   UNL     1       4.498   4.453  16.725  0.00  0.00    +0.000 C 
BRANCH  21  22
ATOM     22  C   UNL     1       3.747   4.003  17.947  0.00  0.00    +0.000 A 
ATOM     23  C   UNL     1       3.668   2.653  18.285  0.00  0.00    +0.000 A 
ATOM     24  C   UNL     1       2.917   2.248  19.389  0.00  0.00    +0.000 A 
ATOM     25  C   UNL     1       2.242   3.192  20.169  0.00  0.00    +0.000 A 
ATOM     26 CL   UNL     1       1.319   2.618  21.510  0.00  0.00    +0.000 Cl
ATOM     27  C   UNL     1       2.323   4.547  19.845  0.00  0.00    +0.000 A 
ATOM     28 CL   UNL     1       1.522   5.778  20.756  0.00  0.00    +0.000 Cl
ATOM     29  C   UNL     1       3.072   4.951  18.737  0.00  0.00    +0.000 A 
ENDBRANCH  21  22
ENDBRANCH   4  21
TORSDOF 6
ENDMDL
MODEL 7
REMARK VINA RESULT:      -7.5      1.042      1.949
REMARK  Name = 
REMARK  7 active torsions:
REMARK  status: ('A' for Active; 'I' for Inactive)
REMARK    1  A    between atoms: C_1  and  C_2
REMARK    2  A    between atoms: C_6  and  O_7
REMARK    3  A    between atoms: O_7  and  C_8
REMARK    4  A    between atoms: C_8  and  C_9
REMARK    5  A    between atoms: C_9  and  N_10
REMARK    6  A    between atoms: N_13  and  C_14
REMARK    7  A    between atoms: C_14  and  C_15
REMARK                            x       y       z     vdW  Elec       q    Type
REMARK                         _______ _______ _______ _____ _____    ______ ____
ROOT
ATOM      1  N   UNL     1       2.894   5.214  20.166  0.00  0.00    +0.000 NA
ATOM      2  C   UNL     1       2.797   3.798  19.762  0.00  0.00    +0.000 C 
ATOM      3  C   UNL     1       2.351   3.560  18.307  0.00  0.00    +0.000 C 
ATOM      4  N   UNL     1       3.213   4.252  17.331  0.00  0.00    +0.000 NA
ATOM      5  C   UNL     1       3.163   5.693  17.664  0.00  0.00    +0.000 C 
ATOM      6  C   UNL     1       3.519   6.049  19.128  0.00  0.00    +0.000 C 
ENDROOT
BRANCH   1   7
ATOM      7  C   UNL     1       1.657   5.774  20.757  0.00  0.00    +0.000 C 
BRANCH   7   8
ATOM      8  C   UNL     1       1.900   7.281  20.894  0.00  0.00    +0.000 C 
BRANCH   8   9
ATOM      9  O   UNL     1       1.254   8.209  20.057  0.00  0.00    +0.000 OA
BRANCH   9  15
ATOM     10  C   UNL     1      -0.607  14.784  19.649  0.00  0.00    +0.000 C 
ATOM     11  C   UNL     1      -0.220  13.354  19.874  0.00  0.00    +0.000 A 
ATOM     12  C   UNL     1       0.442  12.655  18.898  0.00  0.00    +0.000 A 
ATOM     13  C   UNL     1       0.748  11.323  19.147  0.00  0.00    +0.000 A 
ATOM     14  C   UNL     1       0.414  10.643  20.362  0.00  0.00    +0.000 A 
ATOM     15  C   UNL     1       0.658   9.254  20.772  0.00  0.00    +0.000 A 
ATOM     16  C   UNL     1       0.271   8.815  22.042  0.00  0.00    +0.000 A 
ATOM     17  C   UNL     1      -0.368   9.680  22.913  0.00  0.00    +0.000 A 
ATOM     18  C   UNL     1      -0.628  10.991  22.520  0.00  0.00    +0.000 A 
ATOM     19  C   UNL     1      -0.251  11.489  21.284  0.00  0.00    +0.000 A 
ATOM     20  N   UNL     1      -0.560  12.784  21.050  0.00  0.00    +0.000 NA
ENDBRANCH   9  15
ENDBRANCH   8   9
ENDBRANCH   7   8
ENDBRANCH   1   7
BRANCH   4  21
ATOM     21  C   UNL     1       4.567   3.671  17.402  0.00  0.00    +0.000 C 
BRANCH  21  22
ATOM     22  C   UNL     1       5.484   4.056  16.274  0.00  0.00    +0.000 A 
ATOM     23  C   UNL     1       6.591   4.874  16.494  0.00  0.00    +0.000 A 
ATOM     24  C   UNL     1       7.397   5.268  15.426  0.00  0.00    +0.000 A 
ATOM     25  C   UNL     1       7.105   4.843  14.126  0.00  0.00    +0.000 A 
ATOM     26 CL   UNL     1       8.134   5.383  12.851  0.00  0.00    +0.000 Cl
ATOM     27  C   UNL     1       6.005   4.015  13.896  0.00  0.00    +0.000 A 
ATOM     28 CL   UNL     1       5.574   3.444  12.323  0.00  0.00    +0.000 Cl
ATOM     29  C   UNL     1       5.196   3.624  14.966  0.00  0.00    +0.000 A 
ENDBRANCH  21  22
ENDBRANCH   4  21
TORSDOF 6
ENDMDL
MODEL 8
REMARK VINA RESULT:      -7.5      1.657      2.572
REMARK  Name = 
REMARK  7 active torsions:
REMARK  status: ('A' for Active; 'I' for Inactive)
REMARK    1  A    between atoms: C_1  and  C_2
REMARK    2  A    between atoms: C_6  and  O_7
REMARK    3  A    between atoms: O_7  and  C_8
REMARK    4  A    between atoms: C_8  and  C_9
REMARK    5  A    between atoms: C_9  and  N_10
REMARK    6  A    between atoms: N_13  and  C_14
REMARK    7  A    between atoms: C_14  and  C_15
REMARK                            x       y       z     vdW  Elec       q    Type
REMARK                         _______ _______ _______ _____ _____    ______ ____
ROOT
ATOM      1  N   UNL     1       2.474   6.215  20.296  0.00  0.00    +0.000 NA
ATOM      2  C   UNL     1       2.577   4.755  20.487  0.00  0.00    +0.000 C 
ATOM      3  C   UNL     1       2.167   3.904  19.271  0.00  0.00    +0.000 C 
ATOM      4  N   UNL     1       2.922   4.255  18.054  0.00  0.00    +0.000 NA
ATOM      5  C   UNL     1       2.670   5.691  17.796  0.00  0.00    +0.000 C 
ATOM      6  C   UNL     1       2.974   6.642  18.979  0.00  0.00    +0.000 C 
ENDROOT
BRANCH   1   7
ATOM      7  C   UNL     1       1.172   6.799  20.688  0.00  0.00    +0.000 C 
BRANCH   7   8
ATOM      8  C   UNL     1       1.408   8.309  20.815  0.00  0.00    +0.000 C 
BRANCH   8   9
ATOM      9  O   UNL     1       1.299   9.165  19.705  0.00  0.00    +0.000 OA
BRANCH   9  15
ATOM     10  C   UNL     1      -4.363  11.595  16.722  0.00  0.00    +0.000 C 
ATOM     11  C   UNL     1      -3.128  11.173  17.458  0.00  0.00    +0.000 A 
ATOM     12  C   UNL     1      -2.301  10.216  16.930  0.00  0.00    +0.000 A 
ATOM     13  C   UNL     1      -1.187   9.840  17.668  0.00  0.00    +0.000 A 
ATOM     14  C   UNL     1      -0.855  10.393  18.946  0.00  0.00    +0.000 A 
ATOM     15  C   UNL     1       0.268  10.101  19.846  0.00  0.00    +0.000 A 
ATOM     16  C   UNL     1       0.414  10.806  21.045  0.00  0.00    +0.000 A 
ATOM     17  C   UNL     1      -0.516  11.767  21.405  0.00  0.00    +0.000 A 
ATOM     18  C   UNL     1      -1.599  12.029  20.570  0.00  0.00    +0.000 A 
ATOM     19  C   UNL     1      -1.785  11.379  19.361  0.00  0.00    +0.000 A 
ATOM     20  N   UNL     1      -2.876  11.749  18.653  0.00  0.00    +0.000 NA
ENDBRANCH   9  15
ENDBRANCH   8   9
ENDBRANCH   7   8
ENDBRANCH   1   7
BRANCH   4  21
ATOM     21  C   UNL     1       4.344   3.930  18.270  0.00  0.00    +0.000 C 
BRANCH  21  22
ATOM     22  C   UNL     1       5.253   4.254  17.117  0.00  0.00    +0.000 A 
ATOM     23  C   UNL     1       6.413   5.004  17.305  0.00  0.00    +0.000 A 
ATOM     24  C   UNL     1       7.214   5.343  16.214  0.00  0.00    +0.000 A 
ATOM     25  C   UNL     1       6.862   4.933  14.924  0.00  0.00    +0.000 A 
ATOM     26 CL   UNL     1       7.890   5.405  13.620  0.00  0.00    +0.000 Cl
ATOM     27  C   UNL     1       5.708   4.173  14.727  0.00  0.00    +0.000 A 
ATOM     28 CL   UNL     1       5.203   3.623  13.168  0.00  0.00    +0.000 Cl
ATOM     29  C   UNL     1       4.906   3.836  15.820  0.00  0.00    +0.000 A 
ENDBRANCH  21  22
ENDBRANCH   4  21
TORSDOF 6
ENDMDL
MODEL 9
REMARK VINA RESULT:      -7.5      2.013      2.946
REMARK  Name = 
REMARK  7 active torsions:
REMARK  status: ('A' for Active; 'I' for Inactive)
REMARK    1  A    between atoms: C_1  and  C_2
REMARK    2  A    between atoms: C_6  and  O_7
REMARK    3  A    between atoms: O_7  and  C_8
REMARK    4  A    between atoms: C_8  and  C_9
REMARK    5  A    between atoms: C_9  and  N_10
REMARK    6  A    between atoms: N_13  and  C_14
REMARK    7  A    between atoms: C_14  and  C_15
REMARK                            x       y       z     vdW  Elec       q    Type
REMARK                         _______ _______ _______ _____ _____    ______ ____
ROOT
ATOM      1  N   UNL     1       2.378   6.249  18.697  0.00  0.00    +0.000 NA
ATOM      2  C   UNL     1       3.456   6.490  17.718  0.00  0.00    +0.000 C 
ATOM      3  C   UNL     1       4.870   6.106  18.192  0.00  0.00    +0.000 C 
ATOM      4  N   UNL     1       4.959   4.699  18.624  0.00  0.00    +0.000 NA
ATOM      5  C   UNL     1       3.976   4.527  19.718  0.00  0.00    +0.000 C 
ATOM      6  C   UNL     1       2.527   4.955  19.382  0.00  0.00    +0.000 C 
ENDROOT
BRANCH   1   7
ATOM      7  C   UNL     1       2.081   7.396  19.585  0.00  0.00    +0.000 C 
BRANCH   7   8
ATOM      8  C   UNL     1       2.134   8.643  18.695  0.00  0.00    +0.000 C 
BRANCH   8   9
ATOM      9  O   UNL     1       1.072   8.979  17.836  0.00  0.00    +0.000 OA
BRANCH   9  15
ATOM     10  C   UNL     1      -5.176  11.735  17.368  0.00  0.00    +0.000 C 
ATOM     11  C   UNL     1      -3.774  11.240  17.547  0.00  0.00    +0.000 A 
ATOM     12  C   UNL     1      -3.278  10.255  16.735  0.00  0.00    +0.000 A 
ATOM     13  C   UNL     1      -1.983   9.811  16.965  0.00  0.00    +0.000 A 
ATOM     14  C   UNL     1      -1.138  10.323  18.002  0.00  0.00    +0.000 A 
ATOM     15  C   UNL     1       0.234   9.961  18.377  0.00  0.00    +0.000 A 
ATOM     16  C   UNL     1       0.884  10.635  19.415  0.00  0.00    +0.000 A 
ATOM     17  C   UNL     1       0.228  11.634  20.115  0.00  0.00    +0.000 A 
ATOM     18  C   UNL     1      -1.084  11.963  19.784  0.00  0.00    +0.000 A 
ATOM     19  C   UNL     1      -1.772  11.345  18.752  0.00  0.00    +0.000 A 
ATOM     20  N   UNL     1      -3.035  11.781  18.540  0.00  0.00    +0.000 NA
ENDBRANCH   9  15
ENDBRANCH   8   9
ENDBRANCH   7   8
ENDBRANCH   1   7
BRANCH   4  21
ATOM     21  C   UNL     1       4.710   3.830  17.459  0.00  0.00    +0.000 C 
BRANCH  21  22
ATOM     22  C   UNL     1       5.554   4.128  16.251  0.00  0.00    +0.000 A 
ATOM     23  C   UNL     1       6.766   4.807  16.370  0.00  0.00    +0.000 A 
ATOM     24  C   UNL     1       7.507   5.126  15.232  0.00  0.00    +0.000 A 
ATOM     25  C   UNL     1       7.044   4.764  13.963  0.00  0.00    +0.000 A 
ATOM     26 CL   UNL     1       8.004   5.207  12.599  0.00  0.00    +0.000 Cl
ATOM     27  C   UNL     1       5.837   4.075  13.834  0.00  0.00    +0.000 A 
ATOM     28 CL   UNL     1       5.195   3.590  12.305  0.00  0.00    +0.000 Cl
ATOM     29  C   UNL     1       5.094   3.759  14.974  0.00  0.00    +0.000 A 
ENDBRANCH  21  22
ENDBRANCH   4  21
TORSDOF 6
ENDMDL
