MODEL 1
REMARK VINA RESULT:      -7.5      0.000      0.000
REMARK  Name = 
REMARK  8 active torsions:
REMARK  status: ('A' for Active; 'I' for Inactive)
REMARK    1  A    between atoms: C_2  and  C_3
REMARK    2  A    between atoms: C_9  and  C_10
REMARK    3  A    between atoms: C_10  and  C_11
REMARK    4  A    between atoms: C_11  and  C_12
REMARK    5  A    between atoms: C_12  and  C_13
REMARK    6  A    between atoms: C_13  and  N_14
REMARK    7  A    between atoms: N_17  and  C_18
REMARK    8  A    between atoms: C_23  and  C_24
REMARK                            x       y       z     vdW  Elec       q    Type
REMARK                         _______ _______ _______ _____ _____    ______ ____
ROOT
ATOM      1  N   UNL     1       0.816  10.450  19.492  0.00  0.00    +0.000 NA
ATOM      2  C   UNL     1      -0.221   9.943  20.411  0.00  0.00    +0.000 C 
ATOM      3  C   UNL     1       0.065  10.524  21.799  0.00  0.00    +0.000 C 
ATOM      4  N   UNL     1      -0.082  11.982  21.763  0.00  0.00    +0.000 N 
ATOM      5  C   UNL     1       0.682  12.674  20.704  0.00  0.00    +0.000 C 
ATOM      6  C   UNL     1       0.620  11.911  19.339  0.00  0.00    +0.000 C 
ENDROOT
BRANCH   4   7
ATOM      7  C   UNL     1      -1.121  12.600  22.428  0.00  0.00    +0.000 A 
ATOM      8  C   UNL     1      -2.221  11.869  22.922  0.00  0.00    +0.000 A 
ATOM      9  C   UNL     1      -3.264  12.453  23.648  0.00  0.00    +0.000 A 
ATOM     10  C   UNL     1      -3.169  13.821  23.853  0.00  0.00    +0.000 A 
ATOM     11  O   UNL     1      -4.080  14.582  24.514  0.00  0.00    +0.000 OA
ATOM     12  C   UNL     1      -3.606  15.856  24.487  0.00  0.00    +0.000 A 
ATOM     13  C   UNL     1      -2.395  15.922  23.839  0.00  0.00    +0.000 A 
ATOM     14  C   UNL     1      -2.113  14.602  23.401  0.00  0.00    +0.000 A 
ATOM     15  C   UNL     1      -1.079  13.983  22.676  0.00  0.00    +0.000 A 
BRANCH  12  16
ATOM     16  C   UNL     1      -4.404  16.859  25.084  0.00  0.00    +0.000 C 
ATOM     17  N   UNL     1      -5.040  17.698  25.587  0.00  0.00    +0.000 NA
ENDBRANCH  12  16
ENDBRANCH   4   7
BRANCH   1  18
ATOM     18  C   UNL     1       0.853   9.678  18.256  0.00  0.00    +0.000 C 
BRANCH  18  19
ATOM     19  C   UNL     1       2.261   9.206  17.871  0.00  0.00    +0.000 C 
BRANCH  19  20
ATOM     20  C   UNL     1       2.435   7.680  17.805  0.00  0.00    +0.000 C 
BRANCH  20  21
ATOM     21  C   UNL     1       3.900   7.233  17.777  0.00  0.00    +0.000 C 
BRANCH  21  28
ATOM     22  C   UNL     1       2.725   3.156  19.876  0.00  0.00    +0.000 A 
ATOM     23  C   UNL     1       3.155   2.045  19.146  0.00  0.00    +0.000 A 
ATOM     24  C   UNL     1       3.810   2.199  17.921  0.00  0.00    +0.000 A 
ATOM     25  C   UNL     1       4.036   3.503  17.466  0.00  0.00    +0.000 A 
ATOM     26  N   UNL     1       4.649   3.938  16.315  0.00  0.00    +0.000 N 
ATOM     27  C   UNL     1       4.680   5.304  16.283  0.00  0.00    +0.000 A 
ATOM     28  C   UNL     1       4.073   5.784  17.428  0.00  0.00    +0.000 A 
ATOM     29  C   UNL     1       3.638   4.638  18.175  0.00  0.00    +0.000 A 
ATOM     30  C   UNL     1       2.950   4.455  19.395  0.00  0.00    +0.000 A 
ATOM     31  H   UNL     1       5.024   3.330  15.600  0.00  0.00    +0.000 HD
BRANCH  22  33
ATOM     32  N   UNL     1       1.521   2.800  22.148  0.00  0.00    +0.000 NA
ATOM     33  C   UNL     1       2.065   2.966  21.135  0.00  0.00    +0.000 C 
ENDBRANCH  22  33
ENDBRANCH  21  28
ENDBRANCH  20  21
ENDBRANCH  19  20
ENDBRANCH  18  19
ENDBRANCH   1  18
TORSDOF 8
ENDMDL
MODEL 2
REMARK VINA RESULT:      -7.5      2.337      3.697
REMARK  Name = 
REMARK  8 active torsions:
REMARK  status: ('A' for Active; 'I' for Inactive)
REMARK    1  A    between atoms: C_2  and  C_3
REMARK    2  A    between atoms: C_9  and  C_10
REMARK    3  A    between atoms: C_10  and  C_11
REMARK    4  A    between atoms: C_11  and  C_12
REMARK    5  A    between atoms: C_12  and  C_13
REMARK    6  A    between atoms: C_13  and  N_14
REMARK    7  A    between atoms: N_17  and  C_18
REMARK    8  A    between atoms: C_23  and  C_24
REMARK                            x       y       z     vdW  Elec       q    Type
REMARK                         _______ _______ _______ _____ _____    ______ ____
ROOT
ATOM      1  N   UNL     1       1.546   9.270  19.647  0.00  0.00    +0.000 NA
ATOM      2  C   UNL     1       0.610   9.087  20.772  0.00  0.00    +0.000 C 
ATOM      3  C   UNL     1       0.460  10.439  21.475  0.00  0.00    +0.000 C 
ATOM      4  N   UNL     1      -0.164  11.401  20.562  0.00  0.00    +0.000 N 
ATOM      5  C   UNL     1       0.479  11.533  19.237  0.00  0.00    +0.000 C 
ATOM      6  C   UNL     1       0.895  10.146  18.645  0.00  0.00    +0.000 C 
ENDROOT
BRANCH   4   7
ATOM      7  C   UNL     1      -1.442  11.866  20.796  0.00  0.00    +0.000 A 
ATOM      8  C   UNL     1      -2.342  12.112  19.739  0.00  0.00    +0.000 A 
ATOM      9  C   UNL     1      -3.662  12.530  19.940  0.00  0.00    +0.000 A 
ATOM     10  C   UNL     1      -4.049  12.706  21.260  0.00  0.00    +0.000 A 
ATOM     11  O   UNL     1      -5.274  13.123  21.671  0.00  0.00    +0.000 OA
ATOM     12  C   UNL     1      -5.230  13.160  23.030  0.00  0.00    +0.000 A 
ATOM     13  C   UNL     1      -4.003  12.752  23.498  0.00  0.00    +0.000 A 
ATOM     14  C   UNL     1      -3.218  12.477  22.349  0.00  0.00    +0.000 A 
ATOM     15  C   UNL     1      -1.897  12.054  22.113  0.00  0.00    +0.000 A 
BRANCH  12  16
ATOM     16  C   UNL     1      -6.389  13.605  23.706  0.00  0.00    +0.000 C 
ATOM     17  N   UNL     1      -7.343  13.953  24.282  0.00  0.00    +0.000 NA
ENDBRANCH  12  16
ENDBRANCH   4   7
BRANCH   1  18
ATOM     18  C   UNL     1       2.038   7.989  19.151  0.00  0.00    +0.000 C 
BRANCH  18  19
ATOM     19  C   UNL     1       2.106   6.901  20.231  0.00  0.00    +0.000 C 
BRANCH  19  20
ATOM     20  C   UNL     1       2.042   5.460  19.700  0.00  0.00    +0.000 C 
BRANCH  20  21
ATOM     21  C   UNL     1       2.118   5.366  18.173  0.00  0.00    +0.000 C 
BRANCH  21  28
ATOM     22  C   UNL     1       6.608   6.591  17.307  0.00  0.00    +0.000 A 
ATOM     23  C   UNL     1       7.359   5.522  16.811  0.00  0.00    +0.000 A 
ATOM     24  C   UNL     1       6.791   4.254  16.658  0.00  0.00    +0.000 A 
ATOM     25  C   UNL     1       5.443   4.102  17.001  0.00  0.00    +0.000 A 
ATOM     26  N   UNL     1       4.644   2.984  16.949  0.00  0.00    +0.000 N 
ATOM     27  C   UNL     1       3.375   3.291  17.353  0.00  0.00    +0.000 A 
ATOM     28  C   UNL     1       3.331   4.632  17.683  0.00  0.00    +0.000 A 
ATOM     29  C   UNL     1       4.656   5.149  17.484  0.00  0.00    +0.000 A 
ATOM     30  C   UNL     1       5.261   6.413  17.658  0.00  0.00    +0.000 A 
ATOM     31  H   UNL     1       4.956   2.069  16.652  0.00  0.00    +0.000 HD
BRANCH  22  33
ATOM     32  N   UNL     1       7.721   8.924  17.545  0.00  0.00    +0.000 NA
ATOM     33  C   UNL     1       7.216   7.883  17.443  0.00  0.00    +0.000 C 
ENDBRANCH  22  33
ENDBRANCH  21  28
ENDBRANCH  20  21
ENDBRANCH  19  20
ENDBRANCH  18  19
ENDBRANCH   1  18
TORSDOF 8
ENDMDL
MODEL 3
REMARK VINA RESULT:      -7.5      3.516      5.364
REMARK  Name = 
REMARK  8 active torsions:
REMARK  status: ('A' for Active; 'I' for Inactive)
REMARK    1  A    between atoms: C_2  and  C_3
REMARK    2  A    between atoms: C_9  and  C_10
REMARK    3  A    between atoms: C_10  and  C_11
REMARK    4  A    between atoms: C_11  and  C_12
REMARK    5  A    between atoms: C_12  and  C_13
REMARK    6  A    between atoms: C_13  and  N_14
REMARK    7  A    between atoms: N_17  and  C_18
REMARK    8  A    between atoms: C_23  and  C_24
REMARK                            x       y       z     vdW  Elec       q    Type
REMARK                         _______ _______ _______ _____ _____    ______ ____
ROOT
ATOM      1  N   UNL     1       2.458   7.872  18.741  0.00  0.00    +0.000 NA
ATOM      2  C   UNL     1       1.348   7.790  19.710  0.00  0.00    +0.000 C 
ATOM      3  C   UNL     1       1.205   9.165  20.370  0.00  0.00    +0.000 C 
ATOM      4  N   UNL     1       0.812  10.155  19.364  0.00  0.00    +0.000 N 
ATOM      5  C   UNL     1       1.659  10.206  18.153  0.00  0.00    +0.000 C 
ATOM      6  C   UNL     1       2.043   8.778  17.644  0.00  0.00    +0.000 C 
ENDROOT
BRANCH   4   7
ATOM      7  C   UNL     1      -0.444  10.727  19.393  0.00  0.00    +0.000 A 
ATOM      8  C   UNL     1      -0.793  11.691  20.361  0.00  0.00    +0.000 A 
ATOM      9  C   UNL     1      -2.035  12.333  20.388  0.00  0.00    +0.000 A 
ATOM     10  C   UNL     1      -2.934  11.957  19.401  0.00  0.00    +0.000 A 
ATOM     11  O   UNL     1      -4.195  12.442  19.260  0.00  0.00    +0.000 OA
ATOM     12  C   UNL     1      -4.728  11.815  18.177  0.00  0.00    +0.000 A 
ATOM     13  C   UNL     1      -3.821  10.952  17.608  0.00  0.00    +0.000 A 
ATOM     14  C   UNL     1      -2.656  11.021  18.414  0.00  0.00    +0.000 A 
ATOM     15  C   UNL     1      -1.395  10.395  18.413  0.00  0.00    +0.000 A 
BRANCH  12  16
ATOM     16  C   UNL     1      -6.066  12.124  17.840  0.00  0.00    +0.000 C 
ATOM     17  N   UNL     1      -7.161  12.397  17.544  0.00  0.00    +0.000 NA
ENDBRANCH  12  16
ENDBRANCH   4   7
BRANCH   1  18
ATOM     18  C   UNL     1       2.910   6.545  18.338  0.00  0.00    +0.000 C 
BRANCH  18  19
ATOM     19  C   UNL     1       1.966   5.418  18.777  0.00  0.00    +0.000 C 
BRANCH  19  20
ATOM     20  C   UNL     1       2.153   4.090  18.026  0.00  0.00    +0.000 C 
BRANCH  20  21
ATOM     21  C   UNL     1       3.301   3.235  18.571  0.00  0.00    +0.000 C 
BRANCH  21  28
ATOM     22  C   UNL     1       5.885   4.063  14.691  0.00  0.00    +0.000 A 
ATOM     23  C   UNL     1       7.133   4.611  14.997  0.00  0.00    +0.000 A 
ATOM     24  C   UNL     1       7.488   4.897  16.318  0.00  0.00    +0.000 A 
ATOM     25  C   UNL     1       6.558   4.595  17.320  0.00  0.00    +0.000 A 
ATOM     26  N   UNL     1       6.646   4.769  18.681  0.00  0.00    +0.000 N 
ATOM     27  C   UNL     1       5.512   4.309  19.290  0.00  0.00    +0.000 A 
ATOM     28  C   UNL     1       4.656   3.828  18.318  0.00  0.00    +0.000 A 
ATOM     29  C   UNL     1       5.309   4.032  17.056  0.00  0.00    +0.000 A 
ATOM     30  C   UNL     1       4.961   3.781  15.710  0.00  0.00    +0.000 A 
ATOM     31  H   UNL     1       7.439   5.176  19.157  0.00  0.00    +0.000 HD
BRANCH  22  33
ATOM     32  N   UNL     1       5.298   3.539  12.218  0.00  0.00    +0.000 NA
ATOM     33  C   UNL     1       5.552   3.770  13.327  0.00  0.00    +0.000 C 
ENDBRANCH  22  33
ENDBRANCH  21  28
ENDBRANCH  20  21
ENDBRANCH  19  20
ENDBRANCH  18  19
ENDBRANCH   1  18
TORSDOF 8
ENDMDL
MODEL 4
REMARK VINA RESULT:      -7.5      3.813      6.206
REMARK  Name = 
REMARK  8 active torsions:
REMARK  status: ('A' for Active; 'I' for Inactive)
REMARK    1  A    between atoms: C_2  and  C_3
REMARK    2  A    between atoms: C_9  and  C_10
REMARK    3  A    between atoms: C_10  and  C_11
REMARK    4  A    between atoms: C_11  and  C_12
REMARK    5  A    between atoms: C_12  and  C_13
REMARK    6  A    between atoms: C_13  and  N_14
REMARK    7  A    between atoms: N_17  and  C_18
REMARK    8  A    between atoms: C_23  and  C_24
REMARK                            x       y       z     vdW  Elec       q    Type
REMARK                         _______ _______ _______ _____ _____    ______ ____
ROOT
ATOM      1  N   UNL     1       2.616   6.416  19.518  0.00  0.00    +0.000 NA
ATOM      2  C   UNL     1       1.600   6.839  20.501  0.00  0.00    +0.000 C 
ATOM      3  C   UNL     1       1.753   8.350  20.703  0.00  0.00    +0.000 C 
ATOM      4  N   UNL     1       1.443   9.047  19.452  0.00  0.00    +0.000 N 
ATOM      5  C   UNL     1       2.173   8.571  18.258  0.00  0.00    +0.000 C 
ATOM      6  C   UNL     1       2.263   7.010  18.207  0.00  0.00    +0.000 C 
ENDROOT
BRANCH   4   7
ATOM      7  C   UNL     1       0.310   9.828  19.344  0.00  0.00    +0.000 A 
ATOM      8  C   UNL     1       0.123  10.972  20.146  0.00  0.00    +0.000 A 
ATOM      9  C   UNL     1      -0.985  11.818  20.027  0.00  0.00    +0.000 A 
ATOM     10  C   UNL     1      -1.920  11.461  19.066  0.00  0.00    +0.000 A 
ATOM     11  O   UNL     1      -3.070  12.132  18.802  0.00  0.00    +0.000 OA
ATOM     12  C   UNL     1      -3.689  11.453  17.800  0.00  0.00    +0.000 A 
ATOM     13  C   UNL     1      -2.942  10.369  17.401  0.00  0.00    +0.000 A 
ATOM     14  C   UNL     1      -1.797  10.353  18.238  0.00  0.00    +0.000 A 
ATOM     15  C   UNL     1      -0.670   9.525  18.382  0.00  0.00    +0.000 A 
BRANCH  12  16
ATOM     16  C   UNL     1      -4.944  11.937  17.364  0.00  0.00    +0.000 C 
ATOM     17  N   UNL     1      -5.990  12.333  17.030  0.00  0.00    +0.000 NA
ENDBRANCH  12  16
ENDBRANCH   4   7
BRANCH   1  18
ATOM     18  C   UNL     1       2.799   4.969  19.534  0.00  0.00    +0.000 C 
BRANCH  18  19
ATOM     19  C   UNL     1       4.268   4.539  19.636  0.00  0.00    +0.000 C 
BRANCH  19  20
ATOM     20  C   UNL     1       4.774   3.684  18.463  0.00  0.00    +0.000 C 
BRANCH  20  21
ATOM     21  C   UNL     1       4.369   4.229  17.090  0.00  0.00    +0.000 C 
BRANCH  21  28
ATOM     22  C   UNL     1       6.103   3.515  12.743  0.00  0.00    +0.000 A 
ATOM     23  C   UNL     1       7.246   4.281  12.500  0.00  0.00    +0.000 A 
ATOM     24  C   UNL     1       7.735   5.168  13.463  0.00  0.00    +0.000 A 
ATOM     25  C   UNL     1       7.051   5.245  14.681  0.00  0.00    +0.000 A 
ATOM     26  N   UNL     1       7.310   6.020  15.787  0.00  0.00    +0.000 N 
ATOM     27  C   UNL     1       6.400   5.757  16.772  0.00  0.00    +0.000 A 
ATOM     28  C   UNL     1       5.520   4.796  16.313  0.00  0.00    +0.000 A 
ATOM     29  C   UNL     1       5.916   4.484  14.968  0.00  0.00    +0.000 A 
ATOM     30  C   UNL     1       5.424   3.617  13.968  0.00  0.00    +0.000 A 
ATOM     31  H   UNL     1       8.067   6.686  15.856  0.00  0.00    +0.000 HD
BRANCH  22  33
ATOM     32  N   UNL     1       5.234   1.874  10.930  0.00  0.00    +0.000 NA
ATOM     33  C   UNL     1       5.631   2.605  11.740  0.00  0.00    +0.000 C 
ENDBRANCH  22  33
ENDBRANCH  21  28
ENDBRANCH  20  21
ENDBRANCH  19  20
ENDBRANCH  18  19
ENDBRANCH   1  18
TORSDOF 8
ENDMDL
MODEL 5
REMARK VINA RESULT:      -7.4      3.323      4.999
REMARK  Name = 
REMARK  8 active torsions:
REMARK  status: ('A' for Active; 'I' for Inactive)
REMARK    1  A    between atoms: C_2  and  C_3
REMARK    2  A    between atoms: C_9  and  C_10
REMARK    3  A    between atoms: C_10  and  C_11
REMARK    4  A    between atoms: C_11  and  C_12
REMARK    5  A    between atoms: C_12  and  C_13
REMARK    6  A    between atoms: C_13  and  N_14
REMARK    7  A    between atoms: N_17  and  C_18
REMARK    8  A    between atoms: C_23  and  C_24
REMARK                            x       y       z     vdW  Elec       q    Type
REMARK                         _______ _______ _______ _____ _____    ______ ____
ROOT
ATOM      1  N   UNL     1       2.140   8.076  19.611  0.00  0.00    +0.000 NA
ATOM      2  C   UNL     1       1.096   8.249  20.639  0.00  0.00    +0.000 C 
ATOM      3  C   UNL     1       0.964   9.750  20.918  0.00  0.00    +0.000 C 
ATOM      4  N   UNL     1       0.484  10.433  19.713  0.00  0.00    +0.000 N 
ATOM      5  C   UNL     1       1.250  10.163  18.479  0.00  0.00    +0.000 C 
ATOM      6  C   UNL     1       1.635   8.653  18.343  0.00  0.00    +0.000 C 
ENDROOT
BRANCH   4   7
ATOM      7  C   UNL     1      -0.780  10.985  19.675  0.00  0.00    +0.000 A 
ATOM      8  C   UNL     1      -1.251  11.823  20.706  0.00  0.00    +0.000 A 
ATOM      9  C   UNL     1      -2.504  12.444  20.675  0.00  0.00    +0.000 A 
ATOM     10  C   UNL     1      -3.285  12.181  19.559  0.00  0.00    +0.000 A 
ATOM     11  O   UNL     1      -4.534  12.667  19.342  0.00  0.00    +0.000 OA
ATOM     12  C   UNL     1      -4.935  12.169  18.141  0.00  0.00    +0.000 A 
ATOM     13  C   UNL     1      -3.954  11.390  17.575  0.00  0.00    +0.000 A 
ATOM     14  C   UNL     1      -2.882  11.372  18.505  0.00  0.00    +0.000 A 
ATOM     15  C   UNL     1      -1.615  10.764  18.565  0.00  0.00    +0.000 A 
BRANCH  12  16
ATOM     16  C   UNL     1      -6.237  12.504  17.701  0.00  0.00    +0.000 C 
ATOM     17  N   UNL     1      -7.318  12.754  17.342  0.00  0.00    +0.000 NA
ENDBRANCH  12  16
ENDBRANCH   4   7
BRANCH   1  18
ATOM     18  C   UNL     1       2.596   6.692  19.545  0.00  0.00    +0.000 C 
BRANCH  18  19
ATOM     19  C   UNL     1       1.878   5.764  20.534  0.00  0.00    +0.000 C 
BRANCH  19  20
ATOM     20  C   UNL     1       2.016   4.264  20.228  0.00  0.00    +0.000 C 
BRANCH  20  21
ATOM     21  C   UNL     1       3.462   3.762  20.268  0.00  0.00    +0.000 C 
BRANCH  21  28
ATOM     22  C   UNL     1       6.795   5.865  17.644  0.00  0.00    +0.000 A 
ATOM     23  C   UNL     1       6.944   5.256  16.396  0.00  0.00    +0.000 A 
ATOM     24  C   UNL     1       6.191   4.130  16.051  0.00  0.00    +0.000 A 
ATOM     25  C   UNL     1       5.273   3.650  16.992  0.00  0.00    +0.000 A 
ATOM     26  N   UNL     1       4.416   2.578  16.916  0.00  0.00    +0.000 N 
ATOM     27  C   UNL     1       3.671   2.486  18.058  0.00  0.00    +0.000 A 
ATOM     28  C   UNL     1       4.042   3.510  18.908  0.00  0.00    +0.000 A 
ATOM     29  C   UNL     1       5.083   4.241  18.242  0.00  0.00    +0.000 A 
ATOM     30  C   UNL     1       5.877   5.360  18.579  0.00  0.00    +0.000 A 
ATOM     31  H   UNL     1       4.350   1.952  16.125  0.00  0.00    +0.000 HD
BRANCH  22  33
ATOM     32  N   UNL     1       8.205   7.961  18.242  0.00  0.00    +0.000 NA
ATOM     33  C   UNL     1       7.573   7.026  17.966  0.00  0.00    +0.000 C 
ENDBRANCH  22  33
ENDBRANCH  21  28
ENDBRANCH  20  21
ENDBRANCH  19  20
ENDBRANCH  18  19
ENDBRANCH   1  18
TORSDOF 8
ENDMDL
MODEL 6
REMARK VINA RESULT:      -7.4      4.229      6.611
REMARK  Name = 
REMARK  8 active torsions:
REMARK  status: ('A' for Active; 'I' for Inactive)
REMARK    1  A    between atoms: C_2  and  C_3
REMARK    2  A    between atoms: C_9  and  C_10
REMARK    3  A    between atoms: C_10  and  C_11
REMARK    4  A    between atoms: C_11  and  C_12
REMARK    5  A    between atoms: C_12  and  C_13
REMARK    6  A    between atoms: C_13  and  N_14
REMARK    7  A    between atoms: N_17  and  C_18
REMARK    8  A    between atoms: C_23  and  C_24
REMARK                            x       y       z     vdW  Elec       q    Type
REMARK                         _______ _______ _______ _____ _____    ______ ____
ROOT
ATOM      1  N   UNL     1       0.998   9.133  20.816  0.00  0.00    +0.000 NA
ATOM      2  C   UNL     1      -0.467   8.966  20.861  0.00  0.00    +0.000 C 
ATOM      3  C   UNL     1      -1.099  10.323  20.538  0.00  0.00    +0.000 C 
ATOM      4  N   UNL     1      -0.762  10.708  19.164  0.00  0.00    +0.000 N 
ATOM      5  C   UNL     1       0.676  10.671  18.826  0.00  0.00    +0.000 C 
ATOM      6  C   UNL     1       1.387   9.407  19.412  0.00  0.00    +0.000 C 
ENDROOT
BRANCH   4   7
ATOM      7  C   UNL     1      -1.735  10.748  18.186  0.00  0.00    +0.000 A 
ATOM      8  C   UNL     1      -2.911  11.509  18.346  0.00  0.00    +0.000 A 
ATOM      9  C   UNL     1      -3.892  11.618  17.355  0.00  0.00    +0.000 A 
ATOM     10  C   UNL     1      -3.653  10.914  16.184  0.00  0.00    +0.000 A 
ATOM     11  O   UNL     1      -4.483  10.870  15.110  0.00  0.00    +0.000 OA
ATOM     12  C   UNL     1      -3.875  10.075  14.188  0.00  0.00    +0.000 A 
ATOM     13  C   UNL     1      -2.658   9.627  14.645  0.00  0.00    +0.000 A 
ATOM     14  C   UNL     1      -2.516  10.150  15.956  0.00  0.00    +0.000 A 
ATOM     15  C   UNL     1      -1.546  10.064  16.972  0.00  0.00    +0.000 A 
BRANCH  12  16
ATOM     16  C   UNL     1      -4.567   9.837  12.978  0.00  0.00    +0.000 C 
ATOM     17  N   UNL     1      -5.117   9.626  11.971  0.00  0.00    +0.000 NA
ENDBRANCH  12  16
ENDBRANCH   4   7
BRANCH   1  18
ATOM     18  C   UNL     1       1.680   8.017  21.461  0.00  0.00    +0.000 C 
BRANCH  18  19
ATOM     19  C   UNL     1       2.202   6.966  20.473  0.00  0.00    +0.000 C 
BRANCH  19  20
ATOM     20  C   UNL     1       1.621   5.555  20.665  0.00  0.00    +0.000 C 
BRANCH  20  21
ATOM     21  C   UNL     1       2.687   4.455  20.695  0.00  0.00    +0.000 C 
BRANCH  21  28
ATOM     22  C   UNL     1       5.706   5.819  17.314  0.00  0.00    +0.000 A 
ATOM     23  C   UNL     1       5.634   5.002  16.183  0.00  0.00    +0.000 A 
ATOM     24  C   UNL     1       4.777   3.898  16.147  0.00  0.00    +0.000 A 
ATOM     25  C   UNL     1       3.983   3.656  17.274  0.00  0.00    +0.000 A 
ATOM     26  N   UNL     1       3.066   2.659  17.504  0.00  0.00    +0.000 N 
ATOM     27  C   UNL     1       2.494   2.817  18.736  0.00  0.00    +0.000 A 
ATOM     28  C   UNL     1       3.044   3.935  19.334  0.00  0.00    +0.000 A 
ATOM     29  C   UNL     1       4.014   4.460  18.415  0.00  0.00    +0.000 A 
ATOM     30  C   UNL     1       4.910   5.551  18.439  0.00  0.00    +0.000 A 
ATOM     31  H   UNL     1       2.848   1.918  16.852  0.00  0.00    +0.000 HD
BRANCH  22  33
ATOM     32  N   UNL     1       7.289   7.876  17.313  0.00  0.00    +0.000 NA
ATOM     33  C   UNL     1       6.587   6.951  17.317  0.00  0.00    +0.000 C 
ENDBRANCH  22  33
ENDBRANCH  21  28
ENDBRANCH  20  21
ENDBRANCH  19  20
ENDBRANCH  18  19
ENDBRANCH   1  18
TORSDOF 8
ENDMDL
MODEL 7
REMARK VINA RESULT:      -7.4      2.562      3.806
REMARK  Name = 
REMARK  8 active torsions:
REMARK  status: ('A' for Active; 'I' for Inactive)
REMARK    1  A    between atoms: C_2  and  C_3
REMARK    2  A    between atoms: C_9  and  C_10
REMARK    3  A    between atoms: C_10  and  C_11
REMARK    4  A    between atoms: C_11  and  C_12
REMARK    5  A    between atoms: C_12  and  C_13
REMARK    6  A    between atoms: C_13  and  N_14
REMARK    7  A    between atoms: N_17  and  C_18
REMARK    8  A    between atoms: C_23  and  C_24
REMARK                            x       y       z     vdW  Elec       q    Type
REMARK                         _______ _______ _______ _____ _____    ______ ____
ROOT
ATOM      1  N   UNL     1       1.393   9.006  20.681  0.00  0.00    +0.000 NA
ATOM      2  C   UNL     1       0.250   8.666  21.549  0.00  0.00    +0.000 C 
ATOM      3  C   UNL     1       0.114   9.777  22.595  0.00  0.00    +0.000 C 
ATOM      4  N   UNL     1      -0.225  11.038  21.930  0.00  0.00    +0.000 N 
ATOM      5  C   UNL     1       0.662  11.431  20.815  0.00  0.00    +0.000 C 
ATOM      6  C   UNL     1       1.034  10.216  19.903  0.00  0.00    +0.000 C 
ENDROOT
BRANCH   4   7
ATOM      7  C   UNL     1      -1.469  11.611  22.101  0.00  0.00    +0.000 A 
ATOM      8  C   UNL     1      -2.083  11.677  23.368  0.00  0.00    +0.000 A 
ATOM      9  C   UNL     1      -3.317  12.299  23.589  0.00  0.00    +0.000 A 
ATOM     10  C   UNL     1      -3.928  12.850  22.473  0.00  0.00    +0.000 A 
ATOM     11  O   UNL     1      -5.131  13.479  22.466  0.00  0.00    +0.000 OA
ATOM     12  C   UNL     1      -5.354  13.863  21.180  0.00  0.00    +0.000 A 
ATOM     13  C   UNL     1      -4.304  13.510  20.367  0.00  0.00    +0.000 A 
ATOM     14  C   UNL     1      -3.378  12.827  21.198  0.00  0.00    +0.000 A 
ATOM     15  C   UNL     1      -2.135  12.196  21.009  0.00  0.00    +0.000 A 
BRANCH  12  16
ATOM     16  C   UNL     1      -6.578  14.516  20.900  0.00  0.00    +0.000 C 
ATOM     17  N   UNL     1      -7.594  15.033  20.653  0.00  0.00    +0.000 NA
ENDBRANCH  12  16
ENDBRANCH   4   7
BRANCH   1  18
ATOM     18  C   UNL     1       1.831   7.853  19.903  0.00  0.00    +0.000 C 
BRANCH  18  19
ATOM     19  C   UNL     1       1.670   6.519  20.644  0.00  0.00    +0.000 C 
BRANCH  19  20
ATOM     20  C   UNL     1       2.016   5.273  19.813  0.00  0.00    +0.000 C 
BRANCH  20  21
ATOM     21  C   UNL     1       2.252   5.574  18.329  0.00  0.00    +0.000 C 
BRANCH  21  28
ATOM     22  C   UNL     1       6.756   6.662  17.358  0.00  0.00    +0.000 A 
ATOM     23  C   UNL     1       7.440   5.595  16.769  0.00  0.00    +0.000 A 
ATOM     24  C   UNL     1       6.812   4.364  16.564  0.00  0.00    +0.000 A 
ATOM     25  C   UNL     1       5.472   4.247  16.951  0.00  0.00    +0.000 A 
ATOM     26  N   UNL     1       4.623   3.168  16.865  0.00  0.00    +0.000 N 
ATOM     27  C   UNL     1       3.385   3.503  17.337  0.00  0.00    +0.000 A 
ATOM     28  C   UNL     1       3.412   4.821  17.747  0.00  0.00    +0.000 A 
ATOM     29  C   UNL     1       4.750   5.294  17.527  0.00  0.00    +0.000 A 
ATOM     30  C   UNL     1       5.416   6.519  17.752  0.00  0.00    +0.000 A 
ATOM     31  H   UNL     1       4.883   2.262  16.502  0.00  0.00    +0.000 HD
BRANCH  22  33
ATOM     32  N   UNL     1       7.963   8.932  17.715  0.00  0.00    +0.000 NA
ATOM     33  C   UNL     1       7.424   7.917  17.546  0.00  0.00    +0.000 C 
ENDBRANCH  22  33
ENDBRANCH  21  28
ENDBRANCH  20  21
ENDBRANCH  19  20
ENDBRANCH  18  19
ENDBRANCH   1  18
TORSDOF 8
ENDMDL
MODEL 8
REMARK VINA RESULT:      -7.4      2.240      3.496
REMARK  Name = 
REMARK  8 active torsions:
REMARK  status: ('A' for Active; 'I' for Inactive)
REMARK    1  A    between atoms: C_2  and  C_3
REMARK    2  A    between atoms: C_9  and  C_10
REMARK    3  A    between atoms: C_10  and  C_11
REMARK    4  A    between atoms: C_11  and  C_12
REMARK    5  A    between atoms: C_12  and  C_13
REMARK    6  A    between atoms: C_13  and  N_14
REMARK    7  A    between atoms: N_17  and  C_18
REMARK    8  A    between atoms: C_23  and  C_24
REMARK                            x       y       z     vdW  Elec       q    Type
REMARK                         _______ _______ _______ _____ _____    ______ ____
ROOT
ATOM      1  N   UNL     1       1.757   8.289  20.311  0.00  0.00    +0.000 NA
ATOM      2  C   UNL     1       0.737   8.321  21.375  0.00  0.00    +0.000 C 
ATOM      3  C   UNL     1       0.784   9.710  22.020  0.00  0.00    +0.000 C 
ATOM      4  N   UNL     1       0.395  10.723  21.035  0.00  0.00    +0.000 N 
ATOM      5  C   UNL     1       1.130  10.682  19.753  0.00  0.00    +0.000 C 
ATOM      6  C   UNL     1       1.332   9.219  19.238  0.00  0.00    +0.000 C 
ENDROOT
BRANCH   4   7
ATOM      7  C   UNL     1      -0.794  11.412  21.165  0.00  0.00    +0.000 A 
ATOM      8  C   UNL     1      -1.449  11.971  20.049  0.00  0.00    +0.000 A 
ATOM      9  C   UNL     1      -2.681  12.627  20.135  0.00  0.00    +0.000 A 
ATOM     10  C   UNL     1      -3.236  12.714  21.403  0.00  0.00    +0.000 A 
ATOM     11  O   UNL     1      -4.411  13.323  21.707  0.00  0.00    +0.000 OA
ATOM     12  C   UNL     1      -4.580  13.180  23.049  0.00  0.00    +0.000 A 
ATOM     13  C   UNL     1      -3.544  12.470  23.607  0.00  0.00    +0.000 A 
ATOM     14  C   UNL     1      -2.650  12.182  22.544  0.00  0.00    +0.000 A 
ATOM     15  C   UNL     1      -1.411  11.526  22.423  0.00  0.00    +0.000 A 
BRANCH  12  16
ATOM     16  C   UNL     1      -5.729  13.771  23.625  0.00  0.00    +0.000 C 
ATOM     17  N   UNL     1      -6.686  14.233  24.107  0.00  0.00    +0.000 NA
ENDBRANCH  12  16
ENDBRANCH   4   7
BRANCH   1  18
ATOM     18  C   UNL     1       2.045   6.921  19.893  0.00  0.00    +0.000 C 
BRANCH  18  19
ATOM     19  C   UNL     1       1.972   5.904  21.039  0.00  0.00    +0.000 C 
BRANCH  19  20
ATOM     20  C   UNL     1       1.167   4.633  20.724  0.00  0.00    +0.000 C 
BRANCH  20  21
ATOM     21  C   UNL     1       2.043   3.407  20.446  0.00  0.00    +0.000 C 
BRANCH  21  28
ATOM     22  C   UNL     1       6.024   4.866  18.339  0.00  0.00    +0.000 A 
ATOM     23  C   UNL     1       6.014   4.615  16.965  0.00  0.00    +0.000 A 
ATOM     24  C   UNL     1       4.937   3.961  16.360  0.00  0.00    +0.000 A 
ATOM     25  C   UNL     1       3.863   3.589  17.178  0.00  0.00    +0.000 A 
ATOM     26  N   UNL     1       2.693   2.945  16.852  0.00  0.00    +0.000 N 
ATOM     27  C   UNL     1       1.907   2.804  17.961  0.00  0.00    +0.000 A 
ATOM     28  C   UNL     1       2.567   3.358  19.041  0.00  0.00    +0.000 A 
ATOM     29  C   UNL     1       3.828   3.838  18.551  0.00  0.00    +0.000 A 
ATOM     30  C   UNL     1       4.943   4.471  19.143  0.00  0.00    +0.000 A 
ATOM     31  H   UNL     1       2.453   2.626  15.923  0.00  0.00    +0.000 HD
BRANCH  22  33
ATOM     32  N   UNL     1       8.034   6.101  19.420  0.00  0.00    +0.000 NA
ATOM     33  C   UNL     1       7.139   5.548  18.928  0.00  0.00    +0.000 C 
ENDBRANCH  22  33
ENDBRANCH  21  28
ENDBRANCH  20  21
ENDBRANCH  19  20
ENDBRANCH  18  19
ENDBRANCH   1  18
TORSDOF 8
ENDMDL
MODEL 9
REMARK VINA RESULT:      -7.3      2.290      2.508
REMARK  Name = 
REMARK  8 active torsions:
REMARK  status: ('A' for Active; 'I' for Inactive)
REMARK    1  A    between atoms: C_2  and  C_3
REMARK    2  A    between atoms: C_9  and  C_10
REMARK    3  A    between atoms: C_10  and  C_11
REMARK    4  A    between atoms: C_11  and  C_12
REMARK    5  A    between atoms: C_12  and  C_13
REMARK    6  A    between atoms: C_13  and  N_14
REMARK    7  A    between atoms: N_17  and  C_18
REMARK    8  A    between atoms: C_23  and  C_24
REMARK                            x       y       z     vdW  Elec       q    Type
REMARK                         _______ _______ _______ _____ _____    ______ ____
ROOT
ATOM      1  N   UNL     1       1.576   8.830  20.182  0.00  0.00    +0.000 NA
ATOM      2  C   UNL     1       0.700   8.596  21.346  0.00  0.00    +0.000 C 
ATOM      3  C   UNL     1       0.689   9.879  22.183  0.00  0.00    +0.000 C 
ATOM      4  N   UNL     1       0.080  10.965  21.410  0.00  0.00    +0.000 N 
ATOM      5  C   UNL     1       0.647  11.186  20.064  0.00  0.00    +0.000 C 
ATOM      6  C   UNL     1       0.927   9.842  19.315  0.00  0.00    +0.000 C 
ENDROOT
BRANCH   4   7
ATOM      7  C   UNL     1      -1.146  11.485  21.774  0.00  0.00    +0.000 A 
ATOM      8  C   UNL     1      -1.616  11.407  23.101  0.00  0.00    +0.000 A 
ATOM      9  C   UNL     1      -2.826  11.971  23.518  0.00  0.00    +0.000 A 
ATOM     10  C   UNL     1      -3.566  12.615  22.537  0.00  0.00    +0.000 A 
ATOM     11  O   UNL     1      -4.771  13.211  22.726  0.00  0.00    +0.000 OA
ATOM     12  C   UNL     1      -5.142  13.716  21.519  0.00  0.00    +0.000 A 
ATOM     13  C   UNL     1      -4.183  13.474  20.564  0.00  0.00    +0.000 A 
ATOM     14  C   UNL     1      -3.161  12.735  21.214  0.00  0.00    +0.000 A 
ATOM     15  C   UNL     1      -1.937  12.159  20.828  0.00  0.00    +0.000 A 
BRANCH  12  16
ATOM     16  C   UNL     1      -6.399  14.361  21.443  0.00  0.00    +0.000 C 
ATOM     17  N   UNL     1      -7.447  14.869  21.379  0.00  0.00    +0.000 NA
ENDBRANCH  12  16
ENDBRANCH   4   7
BRANCH   1  18
ATOM     18  C   UNL     1       1.943   7.576  19.534  0.00  0.00    +0.000 C 
BRANCH  18  19
ATOM     19  C   UNL     1       2.186   7.714  18.026  0.00  0.00    +0.000 C 
BRANCH  19  20
ATOM     20  C   UNL     1       3.639   8.023  17.631  0.00  0.00    +0.000 C 
BRANCH  20  21
ATOM     21  C   UNL     1       4.327   6.875  16.886  0.00  0.00    +0.000 C 
BRANCH  21  28
ATOM     22  C   UNL     1       2.516   2.938  18.790  0.00  0.00    +0.000 A 
ATOM     23  C   UNL     1       3.429   2.290  19.626  0.00  0.00    +0.000 A 
ATOM     24  C   UNL     1       4.726   2.783  19.795  0.00  0.00    +0.000 A 
ATOM     25  C   UNL     1       5.067   3.957  19.113  0.00  0.00    +0.000 A 
ATOM     26  N   UNL     1       6.253   4.652  19.099  0.00  0.00    +0.000 N 
ATOM     27  C   UNL     1       6.139   5.766  18.316  0.00  0.00    +0.000 A 
ATOM     28  C   UNL     1       4.859   5.809  17.798  0.00  0.00    +0.000 A 
ATOM     29  C   UNL     1       4.178   4.643  18.283  0.00  0.00    +0.000 A 
ATOM     30  C   UNL     1       2.883   4.107  18.105  0.00  0.00    +0.000 A 
ATOM     31  H   UNL     1       7.086   4.375  19.601  0.00  0.00    +0.000 HD
BRANCH  22  33
ATOM     32  N   UNL     1       0.114   1.995  18.513  0.00  0.00    +0.000 NA
ATOM     33  C   UNL     1       1.189   2.413  18.646  0.00  0.00    +0.000 C 
ENDBRANCH  22  33
ENDBRANCH  21  28
ENDBRANCH  20  21
ENDBRANCH  19  20
ENDBRANCH  18  19
ENDBRANCH   1  18
TORSDOF 8
ENDMDL
