MODEL 1
REMARK VINA RESULT:      -6.2      0.000      0.000
REMARK  Name = 
REMARK  12 active torsions:
REMARK  status: ('A' for Active; 'I' for Inactive)
REMARK    1  A    between atoms: C_1  and  C_2
REMARK    2  A    between atoms: C_2  and  C_3
REMARK    3  A    between atoms: C_3  and  O_4
REMARK    4  A    between atoms: C_3  and  P_17
REMARK    5  A    between atoms: O_4  and  C_5
REMARK    6  A    between atoms: C_5  and  C_7
REMARK    7  A    between atoms: C_7  and  O_8
REMARK    8  A    between atoms: O_8  and  C_9
REMARK    9  A    between atoms: P_17  and  O_19
REMARK   10  A    between atoms: P_17  and  O_21
REMARK   11  A    between atoms: O_19  and  C_20
REMARK   12  A    between atoms: O_21  and  C_22
REMARK                            x       y       z     vdW  Elec       q    Type
REMARK                         _______ _______ _______ _____ _____    ______ ____
ROOT
ATOM      1  C   UNL     1       3.899   3.314  17.805  0.00  0.00    +0.000 C 
ATOM      2  O   UNL     1       3.688   2.136  17.554  0.00  0.00    +0.000 OA
ENDROOT
BRANCH   1   3
ATOM      3  O   UNL     1       3.112   4.339  17.387  0.00  0.00    +0.000 OA
BRANCH   3   4
ATOM      4  C   UNL     1       2.405   5.137  18.366  0.00  0.00    +0.000 C 
BRANCH   4   6
ATOM      5  C   UNL     1       2.448   7.681  18.001  0.00  0.00    +0.000 C 
ATOM      6  C   UNL     1       3.102   6.478  18.662  0.00  0.00    +0.000 C 
ENDBRANCH   4   6
BRANCH   4   7
ATOM      7  P   UNL     1       2.017   4.290  19.941  0.00  0.00    +0.000 P 
ATOM      8  O   UNL     1       1.693   5.651  20.582  0.00  0.00    +0.000 OA
BRANCH   7   9
ATOM      9  O   UNL     1       0.618   3.664  19.288  0.00  0.00    +0.000 OA
ATOM     10  C   UNL     1       0.559   2.308  18.887  0.00  0.00    +0.000 C 
ENDBRANCH   7   9
BRANCH   7  11
ATOM     11  O   UNL     1       1.651   3.489  21.430  0.00  0.00    +0.000 OA
ATOM     12  C   UNL     1       2.573   2.483  21.805  0.00  0.00    +0.000 C 
ENDBRANCH   7  11
ENDBRANCH   4   7
ENDBRANCH   3   4
ENDBRANCH   1   3
BRANCH   1  13
ATOM     13  C   UNL     1       5.117   3.882  18.526  0.00  0.00    +0.000 C 
BRANCH  13  14
ATOM     14  O   UNL     1       6.128   4.269  17.612  0.00  0.00    +0.000 OA
BRANCH  14  15
ATOM     15  C   UNL     1       6.751   5.472  17.824  0.00  0.00    +0.000 A 
ATOM     16  C   UNL     1       7.711   5.711  18.816  0.00  0.00    +0.000 A 
ATOM     17  C   UNL     1       8.301   6.974  18.941  0.00  0.00    +0.000 A 
ATOM     18  C   UNL     1       7.928   8.011  18.086  0.00  0.00    +0.000 A 
ATOM     19 CL   UNL     1       8.662   9.557  18.243  0.00  0.00    +0.000 Cl
ATOM     20  C   UNL     1       6.968   7.795  17.104  0.00  0.00    +0.000 A 
ATOM     21  C   UNL     1       6.381   6.534  16.976  0.00  0.00    +0.000 A 
ATOM     22 CL   UNL     1       5.192   6.316  15.739  0.00  0.00    +0.000 Cl
ENDBRANCH  14  15
ENDBRANCH  13  14
ENDBRANCH   1  13
TORSDOF 9
ENDMDL
MODEL 2
REMARK VINA RESULT:      -6.2      3.123      4.641
REMARK  Name = 
REMARK  12 active torsions:
REMARK  status: ('A' for Active; 'I' for Inactive)
REMARK    1  A    between atoms: C_1  and  C_2
REMARK    2  A    between atoms: C_2  and  C_3
REMARK    3  A    between atoms: C_3  and  O_4
REMARK    4  A    between atoms: C_3  and  P_17
REMARK    5  A    between atoms: O_4  and  C_5
REMARK    6  A    between atoms: C_5  and  C_7
REMARK    7  A    between atoms: C_7  and  O_8
REMARK    8  A    between atoms: O_8  and  C_9
REMARK    9  A    between atoms: P_17  and  O_19
REMARK   10  A    between atoms: P_17  and  O_21
REMARK   11  A    between atoms: O_19  and  C_20
REMARK   12  A    between atoms: O_21  and  C_22
REMARK                            x       y       z     vdW  Elec       q    Type
REMARK                         _______ _______ _______ _____ _____    ______ ____
ROOT
ATOM      1  C   UNL     1       7.179   5.928  18.106  0.00  0.00    +0.000 C 
ATOM      2  O   UNL     1       7.841   6.906  18.426  0.00  0.00    +0.000 OA
ENDROOT
BRANCH   1   3
ATOM      3  O   UNL     1       6.013   5.565  18.699  0.00  0.00    +0.000 OA
BRANCH   3   4
ATOM      4  C   UNL     1       4.805   5.490  17.905  0.00  0.00    +0.000 C 
BRANCH   4   6
ATOM      5  C   UNL     1       3.077   7.374  18.166  0.00  0.00    +0.000 C 
ATOM      6  C   UNL     1       4.311   6.870  17.434  0.00  0.00    +0.000 C 
ENDBRANCH   4   6
BRANCH   4   7
ATOM      7  P   UNL     1       3.417   4.573  18.668  0.00  0.00    +0.000 P 
ATOM      8  O   UNL     1       3.282   3.732  17.386  0.00  0.00    +0.000 OA
BRANCH   7   9
ATOM      9  O   UNL     1       4.467   3.797  19.703  0.00  0.00    +0.000 OA
ATOM     10  C   UNL     1       4.346   2.407  19.937  0.00  0.00    +0.000 C 
ENDBRANCH   7   9
BRANCH   7  11
ATOM     11  O   UNL     1       2.105   3.706  19.389  0.00  0.00    +0.000 OA
ATOM     12  C   UNL     1       1.341   4.452  20.318  0.00  0.00    +0.000 C 
ENDBRANCH   7  11
ENDBRANCH   4   7
ENDBRANCH   3   4
ENDBRANCH   1   3
BRANCH   1  13
ATOM     13  C   UNL     1       7.566   4.872  17.076  0.00  0.00    +0.000 C 
BRANCH  13  14
ATOM     14  O   UNL     1       7.635   5.420  15.771  0.00  0.00    +0.000 OA
BRANCH  14  15
ATOM     15  C   UNL     1       6.971   4.759  14.768  0.00  0.00    +0.000 A 
ATOM     16  C   UNL     1       5.850   3.941  14.956  0.00  0.00    +0.000 A 
ATOM     17  C   UNL     1       5.233   3.322  13.862  0.00  0.00    +0.000 A 
ATOM     18  C   UNL     1       5.738   3.507  12.575  0.00  0.00    +0.000 A 
ATOM     19 CL   UNL     1       4.971   2.749  11.238  0.00  0.00    +0.000 Cl
ATOM     20  C   UNL     1       6.857   4.307  12.372  0.00  0.00    +0.000 A 
ATOM     21  C   UNL     1       7.471   4.927  13.463  0.00  0.00    +0.000 A 
ATOM     22 CL   UNL     1       8.861   5.910  13.158  0.00  0.00    +0.000 Cl
ENDBRANCH  14  15
ENDBRANCH  13  14
ENDBRANCH   1  13
TORSDOF 9
ENDMDL
MODEL 3
REMARK VINA RESULT:      -6.0      3.678      5.779
REMARK  Name = 
REMARK  12 active torsions:
REMARK  status: ('A' for Active; 'I' for Inactive)
REMARK    1  A    between atoms: C_1  and  C_2
REMARK    2  A    between atoms: C_2  and  C_3
REMARK    3  A    between atoms: C_3  and  O_4
REMARK    4  A    between atoms: C_3  and  P_17
REMARK    5  A    between atoms: O_4  and  C_5
REMARK    6  A    between atoms: C_5  and  C_7
REMARK    7  A    between atoms: C_7  and  O_8
REMARK    8  A    between atoms: O_8  and  C_9
REMARK    9  A    between atoms: P_17  and  O_19
REMARK   10  A    between atoms: P_17  and  O_21
REMARK   11  A    between atoms: O_19  and  C_20
REMARK   12  A    between atoms: O_21  and  C_22
REMARK                            x       y       z     vdW  Elec       q    Type
REMARK                         _______ _______ _______ _____ _____    ______ ____
ROOT
ATOM      1  C   UNL     1       7.826   7.613  17.979  0.00  0.00    +0.000 C 
ATOM      2  O   UNL     1       8.297   6.826  18.789  0.00  0.00    +0.000 OA
ENDROOT
BRANCH   1   3
ATOM      3  O   UNL     1       6.984   7.264  16.972  0.00  0.00    +0.000 OA
BRANCH   3   4
ATOM      4  C   UNL     1       6.561   5.886  16.845  0.00  0.00    +0.000 C 
BRANCH   4   6
ATOM      5  C   UNL     1       6.112   4.008  15.149  0.00  0.00    +0.000 C 
ATOM      6  C   UNL     1       6.868   5.290  15.458  0.00  0.00    +0.000 C 
ENDBRANCH   4   6
BRANCH   4   7
ATOM      7  P   UNL     1       4.814   5.556  17.278  0.00  0.00    +0.000 P 
ATOM      8  O   UNL     1       5.257   5.098  18.679  0.00  0.00    +0.000 OA
BRANCH   7   9
ATOM      9  O   UNL     1       4.493   7.190  17.331  0.00  0.00    +0.000 OA
ATOM     10  C   UNL     1       3.215   7.658  17.720  0.00  0.00    +0.000 C 
ENDBRANCH   7   9
BRANCH   7  11
ATOM     11  O   UNL     1       3.162   5.244  17.686  0.00  0.00    +0.000 OA
ATOM     12  C   UNL     1       2.935   4.008  18.336  0.00  0.00    +0.000 C 
ENDBRANCH   7  11
ENDBRANCH   4   7
ENDBRANCH   3   4
ENDBRANCH   1   3
BRANCH   1  13
ATOM     13  C   UNL     1       8.162   9.096  17.858  0.00  0.00    +0.000 C 
BRANCH  13  14
ATOM     14  O   UNL     1       8.733   9.598  19.053  0.00  0.00    +0.000 OA
BRANCH  14  15
ATOM     15  C   UNL     1       9.573  10.678  18.952  0.00  0.00    +0.000 A 
ATOM     16  C   UNL     1      10.261  11.049  17.790  0.00  0.00    +0.000 A 
ATOM     17  C   UNL     1      11.085  12.181  17.785  0.00  0.00    +0.000 A 
ATOM     18  C   UNL     1      11.234  12.945  18.942  0.00  0.00    +0.000 A 
ATOM     19 CL   UNL     1      12.242  14.337  18.925  0.00  0.00    +0.000 Cl
ATOM     20  C   UNL     1      10.567  12.585  20.107  0.00  0.00    +0.000 A 
ATOM     21  C   UNL     1       9.744  11.457  20.112  0.00  0.00    +0.000 A 
ATOM     22 CL   UNL     1       8.936  11.051  21.587  0.00  0.00    +0.000 Cl
ENDBRANCH  14  15
ENDBRANCH  13  14
ENDBRANCH   1  13
TORSDOF 9
ENDMDL
MODEL 4
REMARK VINA RESULT:      -6.0      3.363      6.007
REMARK  Name = 
REMARK  12 active torsions:
REMARK  status: ('A' for Active; 'I' for Inactive)
REMARK    1  A    between atoms: C_1  and  C_2
REMARK    2  A    between atoms: C_2  and  C_3
REMARK    3  A    between atoms: C_3  and  O_4
REMARK    4  A    between atoms: C_3  and  P_17
REMARK    5  A    between atoms: O_4  and  C_5
REMARK    6  A    between atoms: C_5  and  C_7
REMARK    7  A    between atoms: C_7  and  O_8
REMARK    8  A    between atoms: O_8  and  C_9
REMARK    9  A    between atoms: P_17  and  O_19
REMARK   10  A    between atoms: P_17  and  O_21
REMARK   11  A    between atoms: O_19  and  C_20
REMARK   12  A    between atoms: O_21  and  C_22
REMARK                            x       y       z     vdW  Elec       q    Type
REMARK                         _______ _______ _______ _____ _____    ______ ____
ROOT
ATOM      1  C   UNL     1       1.941   4.527  19.820  0.00  0.00    +0.000 C 
ATOM      2  O   UNL     1       0.915   3.949  19.489  0.00  0.00    +0.000 OA
ENDROOT
BRANCH   1   3
ATOM      3  O   UNL     1       3.194   4.064  19.578  0.00  0.00    +0.000 OA
BRANCH   3   4
ATOM      4  C   UNL     1       3.751   4.182  18.247  0.00  0.00    +0.000 C 
BRANCH   4   6
ATOM      5  C   UNL     1       3.455   1.631  18.361  0.00  0.00    +0.000 C 
ATOM      6  C   UNL     1       3.821   2.834  17.505  0.00  0.00    +0.000 C 
ENDBRANCH   4   6
BRANCH   4   7
ATOM      7  P   UNL     1       5.374   5.020  18.143  0.00  0.00    +0.000 P 
ATOM      8  O   UNL     1       5.923   4.067  19.221  0.00  0.00    +0.000 OA
BRANCH   7   9
ATOM      9  O   UNL     1       5.655   4.344  16.646  0.00  0.00    +0.000 OA
ATOM     10  C   UNL     1       6.919   4.478  16.025  0.00  0.00    +0.000 C 
ENDBRANCH   7   9
BRANCH   7  11
ATOM     11  O   UNL     1       6.909   5.812  18.046  0.00  0.00    +0.000 OA
ATOM     12  C   UNL     1       7.648   5.825  19.252  0.00  0.00    +0.000 C 
ENDBRANCH   7  11
ENDBRANCH   4   7
ENDBRANCH   3   4
ENDBRANCH   1   3
BRANCH   1  13
ATOM     13  C   UNL     1       2.032   5.803  20.652  0.00  0.00    +0.000 C 
BRANCH  13  14
ATOM     14  O   UNL     1       2.131   6.952  19.831  0.00  0.00    +0.000 OA
BRANCH  14  15
ATOM     15  C   UNL     1       1.559   8.112  20.289  0.00  0.00    +0.000 A 
ATOM     16  C   UNL     1       1.153   8.335  21.611  0.00  0.00    +0.000 A 
ATOM     17  C   UNL     1       0.593   9.563  21.983  0.00  0.00    +0.000 A 
ATOM     18  C   UNL     1       0.423  10.572  21.035  0.00  0.00    +0.000 A 
ATOM     19 CL   UNL     1      -0.260  12.078  21.502  0.00  0.00    +0.000 Cl
ATOM     20  C   UNL     1       0.810  10.364  19.717  0.00  0.00    +0.000 A 
ATOM     21  C   UNL     1       1.372   9.141  19.345  0.00  0.00    +0.000 A 
ATOM     22 CL   UNL     1       1.836   8.931  17.692  0.00  0.00    +0.000 Cl
ENDBRANCH  14  15
ENDBRANCH  13  14
ENDBRANCH   1  13
TORSDOF 9
ENDMDL
MODEL 5
REMARK VINA RESULT:      -6.0      3.187      5.933
REMARK  Name = 
REMARK  12 active torsions:
REMARK  status: ('A' for Active; 'I' for Inactive)
REMARK    1  A    between atoms: C_1  and  C_2
REMARK    2  A    between atoms: C_2  and  C_3
REMARK    3  A    between atoms: C_3  and  O_4
REMARK    4  A    between atoms: C_3  and  P_17
REMARK    5  A    between atoms: O_4  and  C_5
REMARK    6  A    between atoms: C_5  and  C_7
REMARK    7  A    between atoms: C_7  and  O_8
REMARK    8  A    between atoms: O_8  and  C_9
REMARK    9  A    between atoms: P_17  and  O_19
REMARK   10  A    between atoms: P_17  and  O_21
REMARK   11  A    between atoms: O_19  and  C_20
REMARK   12  A    between atoms: O_21  and  C_22
REMARK                            x       y       z     vdW  Elec       q    Type
REMARK                         _______ _______ _______ _____ _____    ______ ____
ROOT
ATOM      1  C   UNL     1       4.472   3.104  18.973  0.00  0.00    +0.000 C 
ATOM      2  O   UNL     1       5.173   2.735  19.905  0.00  0.00    +0.000 OA
ENDROOT
BRANCH   1   3
ATOM      3  O   UNL     1       4.896   3.917  17.972  0.00  0.00    +0.000 OA
BRANCH   3   4
ATOM      4  C   UNL     1       6.254   4.419  17.990  0.00  0.00    +0.000 C 
BRANCH   4   6
ATOM      5  C   UNL     1       7.895   5.842  19.363  0.00  0.00    +0.000 C 
ATOM      6  C   UNL     1       6.447   5.586  18.976  0.00  0.00    +0.000 C 
ENDBRANCH   4   6
BRANCH   4   7
ATOM      7  P   UNL     1       6.946   4.877  16.359  0.00  0.00    +0.000 P 
ATOM      8  O   UNL     1       5.917   3.959  15.675  0.00  0.00    +0.000 OA
BRANCH   7   9
ATOM      9  O   UNL     1       6.293   6.405  16.484  0.00  0.00    +0.000 OA
ATOM     10  C   UNL     1       5.063   6.712  15.857  0.00  0.00    +0.000 C 
ENDBRANCH   7   9
BRANCH   7  11
ATOM     11  O   UNL     1       7.601   5.310  14.818  0.00  0.00    +0.000 OA
ATOM     12  C   UNL     1       7.016   4.642  13.716  0.00  0.00    +0.000 C 
ENDBRANCH   7  11
ENDBRANCH   4   7
ENDBRANCH   3   4
ENDBRANCH   1   3
BRANCH   1  13
ATOM     13  C   UNL     1       2.981   2.832  18.798  0.00  0.00    +0.000 C 
BRANCH  13  14
ATOM     14  O   UNL     1       2.326   3.917  18.167  0.00  0.00    +0.000 OA
BRANCH  14  15
ATOM     15  C   UNL     1       2.178   5.076  18.886  0.00  0.00    +0.000 A 
ATOM     16  C   UNL     1       2.627   6.337  18.472  0.00  0.00    +0.000 A 
ATOM     17  C   UNL     1       2.413   7.464  19.274  0.00  0.00    +0.000 A 
ATOM     18  C   UNL     1       1.760   7.339  20.500  0.00  0.00    +0.000 A 
ATOM     19 CL   UNL     1       1.496   8.729  21.475  0.00  0.00    +0.000 Cl
ATOM     20  C   UNL     1       1.318   6.093  20.932  0.00  0.00    +0.000 A 
ATOM     21  C   UNL     1       1.528   4.969  20.131  0.00  0.00    +0.000 A 
ATOM     22 CL   UNL     1       0.961   3.442  20.713  0.00  0.00    +0.000 Cl
ENDBRANCH  14  15
ENDBRANCH  13  14
ENDBRANCH   1  13
TORSDOF 9
ENDMDL
MODEL 6
REMARK VINA RESULT:      -5.9      3.291      6.184
REMARK  Name = 
REMARK  12 active torsions:
REMARK  status: ('A' for Active; 'I' for Inactive)
REMARK    1  A    between atoms: C_1  and  C_2
REMARK    2  A    between atoms: C_2  and  C_3
REMARK    3  A    between atoms: C_3  and  O_4
REMARK    4  A    between atoms: C_3  and  P_17
REMARK    5  A    between atoms: O_4  and  C_5
REMARK    6  A    between atoms: C_5  and  C_7
REMARK    7  A    between atoms: C_7  and  O_8
REMARK    8  A    between atoms: O_8  and  C_9
REMARK    9  A    between atoms: P_17  and  O_19
REMARK   10  A    between atoms: P_17  and  O_21
REMARK   11  A    between atoms: O_19  and  C_20
REMARK   12  A    between atoms: O_21  and  C_22
REMARK                            x       y       z     vdW  Elec       q    Type
REMARK                         _______ _______ _______ _____ _____    ______ ____
ROOT
ATOM      1  C   UNL     1       2.716   4.608  20.369  0.00  0.00    +0.000 C 
ATOM      2  O   UNL     1       2.366   4.158  21.451  0.00  0.00    +0.000 OA
ENDROOT
BRANCH   1   3
ATOM      3  O   UNL     1       3.846   4.236  19.714  0.00  0.00    +0.000 OA
BRANCH   3   4
ATOM      4  C   UNL     1       3.840   4.166  18.269  0.00  0.00    +0.000 C 
BRANCH   4   6
ATOM      5  C   UNL     1       3.543   1.617  18.401  0.00  0.00    +0.000 C 
ATOM      6  C   UNL     1       3.119   2.915  17.733  0.00  0.00    +0.000 C 
ENDBRANCH   4   6
BRANCH   4   7
ATOM      7  P   UNL     1       5.477   4.318  17.466  0.00  0.00    +0.000 P 
ATOM      8  O   UNL     1       4.794   4.862  16.198  0.00  0.00    +0.000 OA
BRANCH   7   9
ATOM      9  O   UNL     1       5.868   5.604  18.451  0.00  0.00    +0.000 OA
ATOM     10  C   UNL     1       7.142   5.676  19.063  0.00  0.00    +0.000 C 
ENDBRANCH   7   9
BRANCH   7  11
ATOM     11  O   UNL     1       7.025   4.461  16.707  0.00  0.00    +0.000 OA
ATOM     12  C   UNL     1       6.983   4.649  15.305  0.00  0.00    +0.000 C 
ENDBRANCH   7  11
ENDBRANCH   4   7
ENDBRANCH   3   4
ENDBRANCH   1   3
BRANCH   1  13
ATOM     13  C   UNL     1       2.039   5.735  19.595  0.00  0.00    +0.000 C 
BRANCH  13  14
ATOM     14  O   UNL     1       2.578   6.999  19.942  0.00  0.00    +0.000 OA
BRANCH  14  15
ATOM     15  C   UNL     1       1.695   8.019  20.194  0.00  0.00    +0.000 A 
ATOM     16  C   UNL     1       1.010   8.202  21.402  0.00  0.00    +0.000 A 
ATOM     17  C   UNL     1       0.140   9.286  21.566  0.00  0.00    +0.000 A 
ATOM     18  C   UNL     1      -0.061  10.189  20.521  0.00  0.00    +0.000 A 
ATOM     19 CL   UNL     1      -1.126  11.520  20.733  0.00  0.00    +0.000 Cl
ATOM     20  C   UNL     1       0.603  10.015  19.312  0.00  0.00    +0.000 A 
ATOM     21  C   UNL     1       1.473   8.935  19.149  0.00  0.00    +0.000 A 
ATOM     22 CL   UNL     1       2.272   8.763  17.625  0.00  0.00    +0.000 Cl
ENDBRANCH  14  15
ENDBRANCH  13  14
ENDBRANCH   1  13
TORSDOF 9
ENDMDL
MODEL 7
REMARK VINA RESULT:      -5.9      3.647      6.714
REMARK  Name = 
REMARK  12 active torsions:
REMARK  status: ('A' for Active; 'I' for Inactive)
REMARK    1  A    between atoms: C_1  and  C_2
REMARK    2  A    between atoms: C_2  and  C_3
REMARK    3  A    between atoms: C_3  and  O_4
REMARK    4  A    between atoms: C_3  and  P_17
REMARK    5  A    between atoms: O_4  and  C_5
REMARK    6  A    between atoms: C_5  and  C_7
REMARK    7  A    between atoms: C_7  and  O_8
REMARK    8  A    between atoms: O_8  and  C_9
REMARK    9  A    between atoms: P_17  and  O_19
REMARK   10  A    between atoms: P_17  and  O_21
REMARK   11  A    between atoms: O_19  and  C_20
REMARK   12  A    between atoms: O_21  and  C_22
REMARK                            x       y       z     vdW  Elec       q    Type
REMARK                         _______ _______ _______ _____ _____    ______ ____
ROOT
ATOM      1  C   UNL     1       2.656   5.786  19.827  0.00  0.00    +0.000 C 
ATOM      2  O   UNL     1       1.946   5.402  20.747  0.00  0.00    +0.000 OA
ENDROOT
BRANCH   1   3
ATOM      3  O   UNL     1       3.946   5.404  19.645  0.00  0.00    +0.000 OA
BRANCH   3   4
ATOM      4  C   UNL     1       4.242   4.302  18.755  0.00  0.00    +0.000 C 
BRANCH   4   6
ATOM      5  C   UNL     1       3.057   2.042  19.065  0.00  0.00    +0.000 C 
ATOM      6  C   UNL     1       4.220   2.935  19.466  0.00  0.00    +0.000 C 
ENDBRANCH   4   6
BRANCH   4   7
ATOM      7  P   UNL     1       5.789   4.462  17.791  0.00  0.00    +0.000 P 
ATOM      8  O   UNL     1       5.262   5.774  17.183  0.00  0.00    +0.000 OA
BRANCH   7   9
ATOM      9  O   UNL     1       6.643   4.824  19.175  0.00  0.00    +0.000 OA
ATOM     10  C   UNL     1       7.697   5.767  19.141  0.00  0.00    +0.000 C 
ENDBRANCH   7   9
BRANCH   7  11
ATOM     11  O   UNL     1       7.252   4.613  16.879  0.00  0.00    +0.000 OA
ATOM     12  C   UNL     1       7.067   4.785  15.487  0.00  0.00    +0.000 C 
ENDBRANCH   7  11
ENDBRANCH   4   7
ENDBRANCH   3   4
ENDBRANCH   1   3
BRANCH   1  13
ATOM     13  C   UNL     1       2.292   6.833  18.779  0.00  0.00    +0.000 C 
BRANCH  13  14
ATOM     14  O   UNL     1       2.431   8.147  19.288  0.00  0.00    +0.000 OA
BRANCH  14  15
ATOM     15  C   UNL     1       1.342   8.978  19.208  0.00  0.00    +0.000 A 
ATOM     16  C   UNL     1       0.822   9.500  18.016  0.00  0.00    +0.000 A 
ATOM     17  C   UNL     1      -0.305  10.330  18.039  0.00  0.00    +0.000 A 
ATOM     18  C   UNL     1      -0.914  10.653  19.252  0.00  0.00    +0.000 A 
ATOM     19 CL   UNL     1      -2.302  11.667  19.269  0.00  0.00    +0.000 Cl
ATOM     20  C   UNL     1      -0.404  10.153  20.444  0.00  0.00    +0.000 A 
ATOM     21  C   UNL     1       0.719   9.323  20.422  0.00  0.00    +0.000 A 
ATOM     22 CL   UNL     1       1.315   8.728  21.933  0.00  0.00    +0.000 Cl
ENDBRANCH  14  15
ENDBRANCH  13  14
ENDBRANCH   1  13
TORSDOF 9
ENDMDL
MODEL 8
REMARK VINA RESULT:      -5.9      3.692      6.529
REMARK  Name = 
REMARK  12 active torsions:
REMARK  status: ('A' for Active; 'I' for Inactive)
REMARK    1  A    between atoms: C_1  and  C_2
REMARK    2  A    between atoms: C_2  and  C_3
REMARK    3  A    between atoms: C_3  and  O_4
REMARK    4  A    between atoms: C_3  and  P_17
REMARK    5  A    between atoms: O_4  and  C_5
REMARK    6  A    between atoms: C_5  and  C_7
REMARK    7  A    between atoms: C_7  and  O_8
REMARK    8  A    between atoms: O_8  and  C_9
REMARK    9  A    between atoms: P_17  and  O_19
REMARK   10  A    between atoms: P_17  and  O_21
REMARK   11  A    between atoms: O_19  and  C_20
REMARK   12  A    between atoms: O_21  and  C_22
REMARK                            x       y       z     vdW  Elec       q    Type
REMARK                         _______ _______ _______ _____ _____    ______ ____
ROOT
ATOM      1  C   UNL     1       2.349   5.439  20.053  0.00  0.00    +0.000 C 
ATOM      2  O   UNL     1       1.394   4.875  20.570  0.00  0.00    +0.000 OA
ENDROOT
BRANCH   1   3
ATOM      3  O   UNL     1       3.557   4.857  19.838  0.00  0.00    +0.000 OA
BRANCH   3   4
ATOM      4  C   UNL     1       3.958   4.531  18.486  0.00  0.00    +0.000 C 
BRANCH   4   6
ATOM      5  C   UNL     1       2.451   2.653  17.588  0.00  0.00    +0.000 C 
ATOM      6  C   UNL     1       3.806   3.033  18.162  0.00  0.00    +0.000 C 
ENDBRANCH   4   6
BRANCH   4   7
ATOM      7  P   UNL     1       5.631   5.093  18.004  0.00  0.00    +0.000 P 
ATOM      8  O   UNL     1       6.203   4.458  19.284  0.00  0.00    +0.000 OA
BRANCH   7   9
ATOM      9  O   UNL     1       5.685   3.962  16.781  0.00  0.00    +0.000 OA
ATOM     10  C   UNL     1       5.988   4.354  15.456  0.00  0.00    +0.000 C 
ENDBRANCH   7   9
BRANCH   7  11
ATOM     11  O   UNL     1       7.213   5.624  17.548  0.00  0.00    +0.000 OA
ATOM     12  C   UNL     1       7.424   7.019  17.654  0.00  0.00    +0.000 C 
ENDBRANCH   7  11
ENDBRANCH   4   7
ENDBRANCH   3   4
ENDBRANCH   1   3
BRANCH   1  13
ATOM     13  C   UNL     1       2.424   6.909  19.654  0.00  0.00    +0.000 C 
BRANCH  13  14
ATOM     14  O   UNL     1       1.647   7.721  20.515  0.00  0.00    +0.000 OA
BRANCH  14  15
ATOM     15  C   UNL     1       1.087   8.857  19.985  0.00  0.00    +0.000 A 
ATOM     16  C   UNL     1       1.418   9.404  18.739  0.00  0.00    +0.000 A 
ATOM     17  C   UNL     1       0.776  10.560  18.280  0.00  0.00    +0.000 A 
ATOM     18  C   UNL     1      -0.192  11.185  19.067  0.00  0.00    +0.000 A 
ATOM     19 CL   UNL     1      -0.979  12.600  18.493  0.00  0.00    +0.000 Cl
ATOM     20  C   UNL     1      -0.524  10.661  20.311  0.00  0.00    +0.000 A 
ATOM     21  C   UNL     1       0.114   9.506  20.769  0.00  0.00    +0.000 A 
ATOM     22 CL   UNL     1      -0.334   8.896  22.324  0.00  0.00    +0.000 Cl
ENDBRANCH  14  15
ENDBRANCH  13  14
ENDBRANCH   1  13
TORSDOF 9
ENDMDL
MODEL 9
REMARK VINA RESULT:      -5.9      2.942      5.847
REMARK  Name = 
REMARK  12 active torsions:
REMARK  status: ('A' for Active; 'I' for Inactive)
REMARK    1  A    between atoms: C_1  and  C_2
REMARK    2  A    between atoms: C_2  and  C_3
REMARK    3  A    between atoms: C_3  and  O_4
REMARK    4  A    between atoms: C_3  and  P_17
REMARK    5  A    between atoms: O_4  and  C_5
REMARK    6  A    between atoms: C_5  and  C_7
REMARK    7  A    between atoms: C_7  and  O_8
REMARK    8  A    between atoms: O_8  and  C_9
REMARK    9  A    between atoms: P_17  and  O_19
REMARK   10  A    between atoms: P_17  and  O_21
REMARK   11  A    between atoms: O_19  and  C_20
REMARK   12  A    between atoms: O_21  and  C_22
REMARK                            x       y       z     vdW  Elec       q    Type
REMARK                         _______ _______ _______ _____ _____    ______ ____
ROOT
ATOM      1  C   UNL     1       3.724   2.065  17.927  0.00  0.00    +0.000 C 
ATOM      2  O   UNL     1       4.046   1.333  18.852  0.00  0.00    +0.000 OA
ENDROOT
BRANCH   1   3
ATOM      3  O   UNL     1       4.559   2.948  17.322  0.00  0.00    +0.000 OA
BRANCH   3   4
ATOM      4  C   UNL     1       5.571   3.622  18.108  0.00  0.00    +0.000 C 
BRANCH   4   6
ATOM      5  C   UNL     1       5.119   5.742  19.490  0.00  0.00    +0.000 C 
ATOM      6  C   UNL     1       5.013   4.227  19.410  0.00  0.00    +0.000 C 
ENDBRANCH   4   6
BRANCH   4   7
ATOM      7  P   UNL     1       6.547   4.888  17.217  0.00  0.00    +0.000 P 
ATOM      8  O   UNL     1       7.816   4.406  17.943  0.00  0.00    +0.000 OA
BRANCH   7   9
ATOM      9  O   UNL     1       6.395   4.037  15.793  0.00  0.00    +0.000 OA
ATOM     10  C   UNL     1       6.724   4.643  14.557  0.00  0.00    +0.000 C 
ENDBRANCH   7   9
BRANCH   7  11
ATOM     11  O   UNL     1       7.469   6.085  16.375  0.00  0.00    +0.000 OA
ATOM     12  C   UNL     1       7.609   7.315  17.058  0.00  0.00    +0.000 C 
ENDBRANCH   7  11
ENDBRANCH   4   7
ENDBRANCH   3   4
ENDBRANCH   1   3
BRANCH   1  13
ATOM     13  C   UNL     1       2.323   2.222  17.343  0.00  0.00    +0.000 C 
BRANCH  13  14
ATOM     14  O   UNL     1       1.402   2.675  18.319  0.00  0.00    +0.000 OA
BRANCH  14  15
ATOM     15  C   UNL     1       1.538   3.963  18.772  0.00  0.00    +0.000 A 
ATOM     16  C   UNL     1       1.769   5.078  17.955  0.00  0.00    +0.000 A 
ATOM     17  C   UNL     1       1.877   6.356  18.515  0.00  0.00    +0.000 A 
ATOM     18  C   UNL     1       1.767   6.529  19.895  0.00  0.00    +0.000 A 
ATOM     19 CL   UNL     1       1.895   8.103  20.573  0.00  0.00    +0.000 Cl
ATOM     20  C   UNL     1       1.549   5.433  20.721  0.00  0.00    +0.000 A 
ATOM     21  C   UNL     1       1.438   4.158  20.163  0.00  0.00    +0.000 A 
ATOM     22 CL   UNL     1       1.169   2.826  21.234  0.00  0.00    +0.000 Cl
ENDBRANCH  14  15
ENDBRANCH  13  14
ENDBRANCH   1  13
TORSDOF 9
ENDMDL
