MODEL 1
REMARK VINA RESULT:      -7.3      0.000      0.000
REMARK  Name = 
REMARK  5 active torsions:
REMARK  status: ('A' for Active; 'I' for Inactive)
REMARK    1  A    between atoms: N_6  and  C_7
REMARK    2  A    between atoms: N_10  and  C_11
REMARK    3  A    between atoms: C_11  and  C_12
REMARK    4  A    between atoms: C_12  and  O_13
REMARK    5  A    between atoms: O_13  and  C_14
REMARK                            x       y       z     vdW  Elec       q    Type
REMARK                         _______ _______ _______ _____ _____    ______ ____
ROOT
ATOM      1  C   UNL     1       1.960   4.664  17.891  0.00  0.00    +0.000 C 
ATOM      2  C   UNL     1       2.733   3.612  17.098  0.00  0.00    +0.000 C 
ATOM      3  C   UNL     1       4.211   3.556  17.462  0.00  0.00    +0.000 C 
ATOM      4  N   UNL     1       4.873   4.865  17.341  0.00  0.00    +0.000 NA
ATOM      5  C   UNL     1       4.218   5.873  18.192  0.00  0.00    +0.000 C 
ATOM      6  C   UNL     1       2.716   5.992  17.936  0.00  0.00    +0.000 C 
ENDROOT
BRANCH   1  12
ATOM      7  O   UNL     1       1.737   5.929  20.694  0.00  0.00    +0.000 OA
ATOM      8  C   UNL     1       1.592   4.749  20.422  0.00  0.00    +0.000 C 
ATOM      9  N   UNL     1       1.611   3.748  21.390  0.00  0.00    +0.000 N 
ATOM     10  C   UNL     1       1.850   2.476  20.769  0.00  0.00    +0.000 C 
ATOM     11  C   UNL     1       1.341   2.696  19.359  0.00  0.00    +0.000 C 
ATOM     12  N   UNL     1       1.492   4.133  19.177  0.00  0.00    +0.000 N 
ATOM     13  H   UNL     1       1.956   4.010  22.305  0.00  0.00    +0.000 HD
ENDBRANCH   1  12
BRANCH   4  14
ATOM     14  C   UNL     1       6.310   4.765  17.714  0.00  0.00    +0.000 C 
BRANCH  14  15
ATOM     15  C   UNL     1       7.211   4.673  16.475  0.00  0.00    +0.000 C 
BRANCH  15  16
ATOM     16  O   UNL     1       6.761   5.512  15.403  0.00  0.00    +0.000 OA
BRANCH  16  17
ATOM     17  C   UNL     1       6.540   4.808  14.235  0.00  0.00    +0.000 A 
ATOM     18  C   UNL     1       5.409   3.998  14.047  0.00  0.00    +0.000 A 
ATOM     19  C   UNL     1       5.218   3.295  12.857  0.00  0.00    +0.000 A 
ATOM     20  C   UNL     1       6.145   3.411  11.827  0.00  0.00    +0.000 A 
ATOM     21  C   UNL     1       7.261   4.230  11.987  0.00  0.00    +0.000 A 
ATOM     22  C   UNL     1       7.460   4.929  13.186  0.00  0.00    +0.000 A 
ATOM     23 CL   UNL     1       8.880   5.903  13.330  0.00  0.00    +0.000 Cl
ENDBRANCH  16  17
ENDBRANCH  15  16
ENDBRANCH  14  15
ENDBRANCH   4  14
TORSDOF 5
ENDMDL
MODEL 2
REMARK VINA RESULT:      -7.1      1.361      1.530
REMARK  Name = 
REMARK  5 active torsions:
REMARK  status: ('A' for Active; 'I' for Inactive)
REMARK    1  A    between atoms: N_6  and  C_7
REMARK    2  A    between atoms: N_10  and  C_11
REMARK    3  A    between atoms: C_11  and  C_12
REMARK    4  A    between atoms: C_12  and  O_13
REMARK    5  A    between atoms: O_13  and  C_14
REMARK                            x       y       z     vdW  Elec       q    Type
REMARK                         _______ _______ _______ _____ _____    ______ ____
ROOT
ATOM      1  C   UNL     1       2.209   4.573  18.206  0.00  0.00    +0.000 C 
ATOM      2  C   UNL     1       3.014   3.966  17.059  0.00  0.00    +0.000 C 
ATOM      3  C   UNL     1       4.437   4.504  16.977  0.00  0.00    +0.000 C 
ATOM      4  N   UNL     1       4.481   5.973  16.900  0.00  0.00    +0.000 NA
ATOM      5  C   UNL     1       3.814   6.587  18.061  0.00  0.00    +0.000 C 
ATOM      6  C   UNL     1       2.383   6.091  18.264  0.00  0.00    +0.000 C 
ENDROOT
BRANCH   1  12
ATOM      7  O   UNL     1       2.369   1.560  18.843  0.00  0.00    +0.000 OA
ATOM      8  C   UNL     1       2.310   2.467  19.657  0.00  0.00    +0.000 C 
ATOM      9  N   UNL     1       1.991   2.255  20.996  0.00  0.00    +0.000 N 
ATOM     10  C   UNL     1       1.578   3.489  21.599  0.00  0.00    +0.000 C 
ATOM     11  C   UNL     1       2.270   4.526  20.737  0.00  0.00    +0.000 C 
ATOM     12  N   UNL     1       2.423   3.842  19.461  0.00  0.00    +0.000 N 
ATOM     13  H   UNL     1       1.607   1.347  21.231  0.00  0.00    +0.000 HD
ENDBRANCH   1  12
BRANCH   4  14
ATOM     14  C   UNL     1       5.887   6.455  16.831  0.00  0.00    +0.000 C 
BRANCH  14  15
ATOM     15  C   UNL     1       6.853   5.324  16.450  0.00  0.00    +0.000 C 
BRANCH  15  16
ATOM     16  O   UNL     1       7.587   5.605  15.252  0.00  0.00    +0.000 OA
BRANCH  16  17
ATOM     17  C   UNL     1       7.117   4.896  14.164  0.00  0.00    +0.000 A 
ATOM     18  C   UNL     1       6.017   4.028  14.248  0.00  0.00    +0.000 A 
ATOM     19  C   UNL     1       5.571   3.323  13.130  0.00  0.00    +0.000 A 
ATOM     20  C   UNL     1       6.204   3.492  11.904  0.00  0.00    +0.000 A 
ATOM     21  C   UNL     1       7.282   4.369  11.796  0.00  0.00    +0.000 A 
ATOM     22  C   UNL     1       7.739   5.071  12.920  0.00  0.00    +0.000 A 
ATOM     23 CL   UNL     1       9.099   6.119  12.725  0.00  0.00    +0.000 Cl
ENDBRANCH  16  17
ENDBRANCH  15  16
ENDBRANCH  14  15
ENDBRANCH   4  14
TORSDOF 5
ENDMDL
MODEL 3
REMARK VINA RESULT:      -7.1      1.528      2.049
REMARK  Name = 
REMARK  5 active torsions:
REMARK  status: ('A' for Active; 'I' for Inactive)
REMARK    1  A    between atoms: N_6  and  C_7
REMARK    2  A    between atoms: N_10  and  C_11
REMARK    3  A    between atoms: C_11  and  C_12
REMARK    4  A    between atoms: C_12  and  O_13
REMARK    5  A    between atoms: O_13  and  C_14
REMARK                            x       y       z     vdW  Elec       q    Type
REMARK                         _______ _______ _______ _____ _____    ______ ____
ROOT
ATOM      1  C   UNL     1       3.283   2.030  19.070  0.00  0.00    +0.000 C 
ATOM      2  C   UNL     1       4.629   2.403  19.688  0.00  0.00    +0.000 C 
ATOM      3  C   UNL     1       5.167   3.737  19.187  0.00  0.00    +0.000 C 
ATOM      4  N   UNL     1       5.253   3.796  17.719  0.00  0.00    +0.000 NA
ATOM      5  C   UNL     1       3.939   3.558  17.099  0.00  0.00    +0.000 C 
ATOM      6  C   UNL     1       3.285   2.256  17.557  0.00  0.00    +0.000 C 
ENDROOT
BRANCH   1  12
ATOM      7  O   UNL     1       0.251   2.138  18.516  0.00  0.00    +0.000 OA
ATOM      8  C   UNL     1       0.847   2.749  19.387  0.00  0.00    +0.000 C 
ATOM      9  N   UNL     1       0.287   3.830  20.062  0.00  0.00    +0.000 N 
ATOM     10  C   UNL     1       1.322   4.600  20.690  0.00  0.00    +0.000 C 
ATOM     11  C   UNL     1       2.425   3.580  20.879  0.00  0.00    +0.000 C 
ATOM     12  N   UNL     1       2.165   2.616  19.819  0.00  0.00    +0.000 N 
ATOM     13  H   UNL     1      -0.557   4.224  19.664  0.00  0.00    +0.000 HD
ENDBRANCH   1  12
BRANCH   4  14
ATOM     14  C   UNL     1       5.774   5.118  17.274  0.00  0.00    +0.000 C 
BRANCH  14  15
ATOM     15  C   UNL     1       7.116   4.979  16.543  0.00  0.00    +0.000 C 
BRANCH  15  16
ATOM     16  O   UNL     1       7.153   5.714  15.313  0.00  0.00    +0.000 OA
BRANCH  16  17
ATOM     17  C   UNL     1       6.821   4.936  14.221  0.00  0.00    +0.000 A 
ATOM     18  C   UNL     1       5.683   4.114  14.200  0.00  0.00    +0.000 A 
ATOM     19  C   UNL     1       5.379   3.337  13.082  0.00  0.00    +0.000 A 
ATOM     20  C   UNL     1       6.195   3.388  11.958  0.00  0.00    +0.000 A 
ATOM     21  C   UNL     1       7.315   4.217  11.952  0.00  0.00    +0.000 A 
ATOM     22  C   UNL     1       7.629   4.992  13.078  0.00  0.00    +0.000 A 
ATOM     23 CL   UNL     1       9.048   5.975  13.016  0.00  0.00    +0.000 Cl
ENDBRANCH  16  17
ENDBRANCH  15  16
ENDBRANCH  14  15
ENDBRANCH   4  14
TORSDOF 5
ENDMDL
MODEL 4
REMARK VINA RESULT:      -7.1      3.342      7.489
REMARK  Name = 
REMARK  5 active torsions:
REMARK  status: ('A' for Active; 'I' for Inactive)
REMARK    1  A    between atoms: N_6  and  C_7
REMARK    2  A    between atoms: N_10  and  C_11
REMARK    3  A    between atoms: C_11  and  C_12
REMARK    4  A    between atoms: C_12  and  O_13
REMARK    5  A    between atoms: O_13  and  C_14
REMARK                            x       y       z     vdW  Elec       q    Type
REMARK                         _______ _______ _______ _____ _____    ______ ____
ROOT
ATOM      1  C   UNL     1       4.363   3.136  17.717  0.00  0.00    +0.000 C 
ATOM      2  C   UNL     1       3.022   3.486  17.075  0.00  0.00    +0.000 C 
ATOM      3  C   UNL     1       2.190   4.445  17.917  0.00  0.00    +0.000 C 
ATOM      4  N   UNL     1       1.979   3.955  19.289  0.00  0.00    +0.000 NA
ATOM      5  C   UNL     1       3.262   3.723  19.973  0.00  0.00    +0.000 C 
ATOM      6  C   UNL     1       4.199   2.797  19.199  0.00  0.00    +0.000 C 
ENDROOT
BRANCH   1  12
ATOM      7  O   UNL     1       5.965   3.660  15.134  0.00  0.00    +0.000 OA
ATOM      8  C   UNL     1       6.174   4.161  16.226  0.00  0.00    +0.000 C 
ATOM      9  N   UNL     1       7.365   4.811  16.538  0.00  0.00    +0.000 N 
ATOM     10  C   UNL     1       7.505   4.911  17.963  0.00  0.00    +0.000 C 
ATOM     11  C   UNL     1       6.068   4.862  18.441  0.00  0.00    +0.000 C 
ATOM     12  N   UNL     1       5.395   4.124  17.381  0.00  0.00    +0.000 N 
ATOM     13  H   UNL     1       8.136   4.674  15.897  0.00  0.00    +0.000 HD
ENDBRANCH   1  12
BRANCH   4  14
ATOM     14  C   UNL     1       1.171   4.925  20.076  0.00  0.00    +0.000 C 
BRANCH  14  15
ATOM     15  C   UNL     1       2.051   6.015  20.705  0.00  0.00    +0.000 C 
BRANCH  15  16
ATOM     16  O   UNL     1       2.195   7.163  19.859  0.00  0.00    +0.000 OA
BRANCH  16  17
ATOM     17  C   UNL     1       1.489   8.255  20.322  0.00  0.00    +0.000 A 
ATOM     18  C   UNL     1       1.093   8.383  21.663  0.00  0.00    +0.000 A 
ATOM     19  C   UNL     1       0.375   9.498  22.097  0.00  0.00    +0.000 A 
ATOM     20  C   UNL     1       0.061  10.514  21.201  0.00  0.00    +0.000 A 
ATOM     21  C   UNL     1       0.467  10.415  19.871  0.00  0.00    +0.000 A 
ATOM     22  C   UNL     1       1.180   9.291  19.430  0.00  0.00    +0.000 A 
ATOM     23 CL   UNL     1       1.627   9.217  17.763  0.00  0.00    +0.000 Cl
ENDBRANCH  16  17
ENDBRANCH  15  16
ENDBRANCH  14  15
ENDBRANCH   4  14
TORSDOF 5
ENDMDL
MODEL 5
REMARK VINA RESULT:      -6.9      2.245      3.121
REMARK  Name = 
REMARK  5 active torsions:
REMARK  status: ('A' for Active; 'I' for Inactive)
REMARK    1  A    between atoms: N_6  and  C_7
REMARK    2  A    between atoms: N_10  and  C_11
REMARK    3  A    between atoms: C_11  and  C_12
REMARK    4  A    between atoms: C_12  and  O_13
REMARK    5  A    between atoms: O_13  and  C_14
REMARK                            x       y       z     vdW  Elec       q    Type
REMARK                         _______ _______ _______ _____ _____    ______ ____
ROOT
ATOM      1  C   UNL     1       1.243   3.595  19.512  0.00  0.00    +0.000 C 
ATOM      2  C   UNL     1       1.376   3.903  18.022  0.00  0.00    +0.000 C 
ATOM      3  C   UNL     1       2.368   5.021  17.730  0.00  0.00    +0.000 C 
ATOM      4  N   UNL     1       2.065   6.254  18.473  0.00  0.00    +0.000 NA
ATOM      5  C   UNL     1       2.049   6.009  19.925  0.00  0.00    +0.000 C 
ATOM      6  C   UNL     1       1.108   4.877  20.334  0.00  0.00    +0.000 C 
ENDROOT
BRANCH   1  12
ATOM      7  O   UNL     1       2.422   2.969  22.291  0.00  0.00    +0.000 OA
ATOM      8  C   UNL     1       2.838   2.555  21.223  0.00  0.00    +0.000 C 
ATOM      9  N   UNL     1       4.100   1.985  21.077  0.00  0.00    +0.000 N 
ATOM     10  C   UNL     1       4.480   1.991  19.694  0.00  0.00    +0.000 C 
ATOM     11  C   UNL     1       3.141   2.005  18.984  0.00  0.00    +0.000 C 
ATOM     12  N   UNL     1       2.261   2.635  19.957  0.00  0.00    +0.000 N 
ATOM     13  H   UNL     1       4.745   2.113  21.848  0.00  0.00    +0.000 HD
ENDBRANCH   1  12
BRANCH   4  14
ATOM     14  C   UNL     1       3.062   7.315  18.165  0.00  0.00    +0.000 C 
BRANCH  14  15
ATOM     15  C   UNL     1       4.499   6.820  18.384  0.00  0.00    +0.000 C 
BRANCH  15  16
ATOM     16  O   UNL     1       5.390   7.234  17.341  0.00  0.00    +0.000 OA
BRANCH  16  17
ATOM     17  C   UNL     1       5.802   6.182  16.547  0.00  0.00    +0.000 A 
ATOM     18  C   UNL     1       5.166   5.856  15.338  0.00  0.00    +0.000 A 
ATOM     19  C   UNL     1       5.604   4.783  14.562  0.00  0.00    +0.000 A 
ATOM     20  C   UNL     1       6.701   4.033  14.970  0.00  0.00    +0.000 A 
ATOM     21  C   UNL     1       7.361   4.358  16.154  0.00  0.00    +0.000 A 
ATOM     22  C   UNL     1       6.916   5.429  16.941  0.00  0.00    +0.000 A 
ATOM     23 CL   UNL     1       7.760   5.759  18.413  0.00  0.00    +0.000 Cl
ENDBRANCH  16  17
ENDBRANCH  15  16
ENDBRANCH  14  15
ENDBRANCH   4  14
TORSDOF 5
ENDMDL
MODEL 6
REMARK VINA RESULT:      -6.9      4.193      7.913
REMARK  Name = 
REMARK  5 active torsions:
REMARK  status: ('A' for Active; 'I' for Inactive)
REMARK    1  A    between atoms: N_6  and  C_7
REMARK    2  A    between atoms: N_10  and  C_11
REMARK    3  A    between atoms: C_11  and  C_12
REMARK    4  A    between atoms: C_12  and  O_13
REMARK    5  A    between atoms: O_13  and  C_14
REMARK                            x       y       z     vdW  Elec       q    Type
REMARK                         _______ _______ _______ _____ _____    ______ ____
ROOT
ATOM      1  C   UNL     1       4.710   3.851  17.559  0.00  0.00    +0.000 C 
ATOM      2  C   UNL     1       3.233   3.883  17.172  0.00  0.00    +0.000 C 
ATOM      3  C   UNL     1       2.411   4.835  18.031  0.00  0.00    +0.000 C 
ATOM      4  N   UNL     1       2.548   4.559  19.470  0.00  0.00    +0.000 NA
ATOM      5  C   UNL     1       3.956   4.641  19.895  0.00  0.00    +0.000 C 
ATOM      6  C   UNL     1       4.885   3.747  19.075  0.00  0.00    +0.000 C 
ENDROOT
BRANCH   1  12
ATOM      7  O   UNL     1       6.395   3.866  14.977  0.00  0.00    +0.000 OA
ATOM      8  C   UNL     1       6.334   4.761  15.802  0.00  0.00    +0.000 C 
ATOM      9  N   UNL     1       7.261   5.799  15.855  0.00  0.00    +0.000 N 
ATOM     10  C   UNL     1       7.205   6.436  17.140  0.00  0.00    +0.000 C 
ATOM     11  C   UNL     1       5.790   6.141  17.594  0.00  0.00    +0.000 C 
ATOM     12  N   UNL     1       5.468   4.911  16.884  0.00  0.00    +0.000 N 
ATOM     13  H   UNL     1       8.109   5.675  15.315  0.00  0.00    +0.000 HD
ENDBRANCH   1  12
BRANCH   4  14
ATOM     14  C   UNL     1       1.737   5.517  20.270  0.00  0.00    +0.000 C 
BRANCH  14  15
ATOM     15  C   UNL     1       2.163   6.969  20.013  0.00  0.00    +0.000 C 
BRANCH  15  16
ATOM     16  O   UNL     1       1.611   7.883  20.969  0.00  0.00    +0.000 OA
BRANCH  16  17
ATOM     17  C   UNL     1       0.991   8.964  20.374  0.00  0.00    +0.000 A 
ATOM     18  C   UNL     1       1.239   9.335  19.043  0.00  0.00    +0.000 A 
ATOM     19  C   UNL     1       0.599  10.436  18.474  0.00  0.00    +0.000 A 
ATOM     20  C   UNL     1      -0.317  11.170  19.219  0.00  0.00    +0.000 A 
ATOM     21  C   UNL     1      -0.593  10.801  20.535  0.00  0.00    +0.000 A 
ATOM     22  C   UNL     1       0.056   9.701  21.113  0.00  0.00    +0.000 A 
ATOM     23 CL   UNL     1      -0.310   9.315  22.757  0.00  0.00    +0.000 Cl
ENDBRANCH  16  17
ENDBRANCH  15  16
ENDBRANCH  14  15
ENDBRANCH   4  14
TORSDOF 5
ENDMDL
MODEL 7
REMARK VINA RESULT:      -6.8      1.507      2.093
REMARK  Name = 
REMARK  5 active torsions:
REMARK  status: ('A' for Active; 'I' for Inactive)
REMARK    1  A    between atoms: N_6  and  C_7
REMARK    2  A    between atoms: N_10  and  C_11
REMARK    3  A    between atoms: C_11  and  C_12
REMARK    4  A    between atoms: C_12  and  O_13
REMARK    5  A    between atoms: O_13  and  C_14
REMARK                            x       y       z     vdW  Elec       q    Type
REMARK                         _______ _______ _______ _____ _____    ______ ____
ROOT
ATOM      1  C   UNL     1       3.445   4.879  19.459  0.00  0.00    +0.000 C 
ATOM      2  C   UNL     1       3.069   6.189  18.770  0.00  0.00    +0.000 C 
ATOM      3  C   UNL     1       4.040   6.582  17.665  0.00  0.00    +0.000 C 
ATOM      4  N   UNL     1       5.434   6.641  18.132  0.00  0.00    +0.000 NA
ATOM      5  C   UNL     1       5.862   5.349  18.693  0.00  0.00    +0.000 C 
ATOM      6  C   UNL     1       4.936   4.836  19.795  0.00  0.00    +0.000 C 
ENDROOT
BRANCH   1  12
ATOM      7  O   UNL     1       0.743   3.406  19.657  0.00  0.00    +0.000 OA
ATOM      8  C   UNL     1       1.723   3.033  19.035  0.00  0.00    +0.000 C 
ATOM      9  N   UNL     1       1.867   1.727  18.573  0.00  0.00    +0.000 N 
ATOM     10  C   UNL     1       3.247   1.467  18.275  0.00  0.00    +0.000 C 
ATOM     11  C   UNL     1       3.789   2.851  17.982  0.00  0.00    +0.000 C 
ATOM     12  N   UNL     1       2.901   3.718  18.744  0.00  0.00    +0.000 N 
ATOM     13  H   UNL     1       1.225   1.041  18.950  0.00  0.00    +0.000 HD
ENDBRANCH   1  12
BRANCH   4  14
ATOM     14  C   UNL     1       6.347   7.020  17.019  0.00  0.00    +0.000 C 
BRANCH  14  15
ATOM     15  C   UNL     1       6.018   6.251  15.732  0.00  0.00    +0.000 C 
BRANCH  15  16
ATOM     16  O   UNL     1       7.161   5.588  15.178  0.00  0.00    +0.000 OA
BRANCH  16  17
ATOM     17  C   UNL     1       6.847   4.828  14.068  0.00  0.00    +0.000 A 
ATOM     18  C   UNL     1       5.758   3.942  14.046  0.00  0.00    +0.000 A 
ATOM     19  C   UNL     1       5.472   3.184  12.910  0.00  0.00    +0.000 A 
ATOM     20  C   UNL     1       6.257   3.317  11.770  0.00  0.00    +0.000 A 
ATOM     21  C   UNL     1       7.327   4.210  11.766  0.00  0.00    +0.000 A 
ATOM     22  C   UNL     1       7.623   4.966  12.910  0.00  0.00    +0.000 A 
ATOM     23 CL   UNL     1       8.981   6.032  12.848  0.00  0.00    +0.000 Cl
ENDBRANCH  16  17
ENDBRANCH  15  16
ENDBRANCH  14  15
ENDBRANCH   4  14
TORSDOF 5
ENDMDL
MODEL 8
REMARK VINA RESULT:      -6.7      3.558      7.179
REMARK  Name = 
REMARK  5 active torsions:
REMARK  status: ('A' for Active; 'I' for Inactive)
REMARK    1  A    between atoms: N_6  and  C_7
REMARK    2  A    between atoms: N_10  and  C_11
REMARK    3  A    between atoms: C_11  and  C_12
REMARK    4  A    between atoms: C_12  and  O_13
REMARK    5  A    between atoms: O_13  and  C_14
REMARK                            x       y       z     vdW  Elec       q    Type
REMARK                         _______ _______ _______ _____ _____    ______ ____
ROOT
ATOM      1  C   UNL     1       4.147   3.385  17.235  0.00  0.00    +0.000 C 
ATOM      2  C   UNL     1       2.621   3.353  17.300  0.00  0.00    +0.000 C 
ATOM      3  C   UNL     1       2.058   4.110  18.496  0.00  0.00    +0.000 C 
ATOM      4  N   UNL     1       2.626   3.651  19.773  0.00  0.00    +0.000 NA
ATOM      5  C   UNL     1       4.092   3.785  19.782  0.00  0.00    +0.000 C 
ATOM      6  C   UNL     1       4.767   3.089  18.601  0.00  0.00    +0.000 C 
ENDROOT
BRANCH   1  12
ATOM      7  O   UNL     1       6.027   3.762  14.820  0.00  0.00    +0.000 OA
ATOM      8  C   UNL     1       5.617   4.642  15.558  0.00  0.00    +0.000 C 
ATOM      9  N   UNL     1       6.189   5.911  15.605  0.00  0.00    +0.000 N 
ATOM     10  C   UNL     1       5.809   6.571  16.821  0.00  0.00    +0.000 C 
ATOM     11  C   UNL     1       4.501   5.892  17.171  0.00  0.00    +0.000 C 
ATOM     12  N   UNL     1       4.631   4.585  16.542  0.00  0.00    +0.000 N 
ATOM     13  H   UNL     1       7.090   6.017  15.155  0.00  0.00    +0.000 HD
ENDBRANCH   1  12
BRANCH   4  14
ATOM     14  C   UNL     1       2.055   4.423  20.911  0.00  0.00    +0.000 C 
BRANCH  14  15
ATOM     15  C   UNL     1       1.306   5.672  20.426  0.00  0.00    +0.000 C 
BRANCH  15  16
ATOM     16  O   UNL     1       1.887   6.887  20.915  0.00  0.00    +0.000 OA
BRANCH  16  17
ATOM     17  C   UNL     1       1.692   7.951  20.055  0.00  0.00    +0.000 A 
ATOM     18  C   UNL     1       2.167   7.948  18.734  0.00  0.00    +0.000 A 
ATOM     19  C   UNL     1       1.959   9.042  17.893  0.00  0.00    +0.000 A 
ATOM     20  C   UNL     1       1.251  10.147  18.354  0.00  0.00    +0.000 A 
ATOM     21  C   UNL     1       0.751  10.156  19.655  0.00  0.00    +0.000 A 
ATOM     22  C   UNL     1       0.968   9.063  20.505  0.00  0.00    +0.000 A 
ATOM     23 CL   UNL     1       0.347   9.152  22.115  0.00  0.00    +0.000 Cl
ENDBRANCH  16  17
ENDBRANCH  15  16
ENDBRANCH  14  15
ENDBRANCH   4  14
TORSDOF 5
ENDMDL
MODEL 9
REMARK VINA RESULT:      -6.7      3.208      7.660
REMARK  Name = 
REMARK  5 active torsions:
REMARK  status: ('A' for Active; 'I' for Inactive)
REMARK    1  A    between atoms: N_6  and  C_7
REMARK    2  A    between atoms: N_10  and  C_11
REMARK    3  A    between atoms: C_11  and  C_12
REMARK    4  A    between atoms: C_12  and  O_13
REMARK    5  A    between atoms: O_13  and  C_14
REMARK                            x       y       z     vdW  Elec       q    Type
REMARK                         _______ _______ _______ _____ _____    ______ ____
ROOT
ATOM      1  C   UNL     1       6.849   5.666  16.280  0.00  0.00    +0.000 C 
ATOM      2  C   UNL     1       7.064   4.917  17.594  0.00  0.00    +0.000 C 
ATOM      3  C   UNL     1       5.776   4.344  18.172  0.00  0.00    +0.000 C 
ATOM      4  N   UNL     1       4.729   5.365  18.340  0.00  0.00    +0.000 NA
ATOM      5  C   UNL     1       4.416   6.020  17.059  0.00  0.00    +0.000 C 
ATOM      6  C   UNL     1       5.646   6.606  16.367  0.00  0.00    +0.000 C 
ENDROOT
BRANCH   1  12
ATOM      7  O   UNL     1       8.356   5.789  13.593  0.00  0.00    +0.000 OA
ATOM      8  C   UNL     1       7.479   4.996  13.891  0.00  0.00    +0.000 C 
ATOM      9  N   UNL     1       6.810   4.225  12.944  0.00  0.00    +0.000 N 
ATOM     10  C   UNL     1       5.583   3.730  13.498  0.00  0.00    +0.000 C 
ATOM     11  C   UNL     1       5.872   3.720  14.985  0.00  0.00    +0.000 C 
ATOM     12  N   UNL     1       6.887   4.755  15.129  0.00  0.00    +0.000 N 
ATOM     13  H   UNL     1       6.933   4.493  11.975  0.00  0.00    +0.000 HD
ENDBRANCH   1  12
BRANCH   4  14
ATOM     14  C   UNL     1       3.489   4.760  18.898  0.00  0.00    +0.000 C 
BRANCH  14  15
ATOM     15  C   UNL     1       2.382   5.808  19.081  0.00  0.00    +0.000 C 
BRANCH  15  16
ATOM     16  O   UNL     1       2.826   6.956  19.814  0.00  0.00    +0.000 OA
BRANCH  16  17
ATOM     17  C   UNL     1       1.808   7.859  20.053  0.00  0.00    +0.000 A 
ATOM     18  C   UNL     1       1.072   7.864  21.249  0.00  0.00    +0.000 A 
ATOM     19  C   UNL     1       0.046   8.787  21.456  0.00  0.00    +0.000 A 
ATOM     20  C   UNL     1      -0.245   9.734  20.480  0.00  0.00    +0.000 A 
ATOM     21  C   UNL     1       0.492   9.759  19.297  0.00  0.00    +0.000 A 
ATOM     22  C   UNL     1       1.517   8.826  19.082  0.00  0.00    +0.000 A 
ATOM     23 CL   UNL     1       2.372   8.893  17.582  0.00  0.00    +0.000 Cl
ENDBRANCH  16  17
ENDBRANCH  15  16
ENDBRANCH  14  15
ENDBRANCH   4  14
TORSDOF 5
ENDMDL
