MODEL 1
REMARK VINA RESULT:      -8.4      0.000      0.000
REMARK  Name = 
REMARK  3 active torsions:
REMARK  status: ('A' for Active; 'I' for Inactive)
REMARK    1  A    between atoms: C_1  and  C_2
REMARK    2  A    between atoms: N_14  and  C_15
REMARK    3  A    between atoms: C_21  and  C_22
REMARK                            x       y       z     vdW  Elec       q    Type
REMARK                         _______ _______ _______ _____ _____    ______ ____
ROOT
ATOM      1  C   UNL     1       1.184   9.285  17.783  0.00  0.00    +0.000 C 
ATOM      2  C   UNL     1       0.406   9.916  18.900  0.00  0.00    +0.000 A 
ATOM      3  C   UNL     1      -0.592  10.858  18.630  0.00  0.00    +0.000 A 
ATOM      4  C   UNL     1      -1.317  11.472  19.655  0.00  0.00    +0.000 A 
ATOM      5  C   UNL     1      -0.996  11.118  20.973  0.00  0.00    +0.000 A 
ATOM      6  C   UNL     1       0.004  10.197  21.275  0.00  0.00    +0.000 A 
ATOM      7  C   UNL     1       0.701   9.570  20.231  0.00  0.00    +0.000 A 
ATOM      8  N   UNL     1       0.171  10.066  22.630  0.00  0.00    +0.000 NA
ATOM      9  C   UNL     1      -0.679  10.918  23.156  0.00  0.00    +0.000 A 
ATOM     10  N   UNL     1      -1.441  11.562  22.207  0.00  0.00    +0.000 N 
ATOM     11  C   UNL     1      -2.450  12.502  22.489  0.00  0.00    +0.000 A 
ATOM     12  N   UNL     1      -2.372  13.229  23.674  0.00  0.00    +0.000 NA
ATOM     13  C   UNL     1      -3.290  14.114  23.940  0.00  0.00    +0.000 A 
ATOM     14  N   UNL     1      -3.285  14.953  25.041  0.00  0.00    +0.000 N 
ATOM     15  N   UNL     1      -4.364  14.228  23.052  0.00  0.00    +0.000 N 
ATOM     16  N   UNL     1      -5.423  15.050  23.238  0.00  0.00    +0.000 NA
ATOM     17  C   UNL     1      -6.200  14.763  22.186  0.00  0.00    +0.000 A 
ATOM     18  C   UNL     1      -5.609  13.828  21.302  0.00  0.00    +0.000 A 
ATOM     19  C   UNL     1      -4.418  13.485  21.905  0.00  0.00    +0.000 A 
ATOM     20  N   UNL     1      -3.405  12.632  21.607  0.00  0.00    +0.000 NA
ATOM     21  H   UNL     1      -4.037  15.643  25.039  0.00  0.00    +0.000 HD
ENDROOT
BRANCH  18  22
ATOM     22  C   UNL     1      -6.080  13.291  20.067  0.00  0.00    +0.000 C 
ATOM     23  C   UNL     1      -6.504  12.041  19.847  0.00  0.00    +0.000 C 
ATOM     24  N   UNL     1      -6.601  11.008  20.730  0.00  0.00    +0.000 N 
ATOM     25  C   UNL     1      -7.160   9.906  20.110  0.00  0.00    +0.000 C 
ATOM     26  O   UNL     1      -7.410   8.841  20.646  0.00  0.00    +0.000 OA
ATOM     27  N   UNL     1      -7.397  10.237  18.805  0.00  0.00    +0.000 N 
ATOM     28  C   UNL     1      -7.038  11.530  18.543  0.00  0.00    +0.000 C 
ATOM     29  O   UNL     1      -7.140  12.138  17.497  0.00  0.00    +0.000 OA
ATOM     30  H   UNL     1      -6.390  11.020  21.715  0.00  0.00    +0.000 HD
ATOM     31  H   UNL     1      -7.824   9.617  18.140  0.00  0.00    +0.000 HD
ENDBRANCH  18  22
BRANCH  14  32
ATOM     32  C   UNL     1      -2.009  15.285  25.674  0.00  0.00    +0.000 C 
ATOM     33  C   UNL     1      -0.947  16.073  24.958  0.00  0.00    +0.000 C 
ATOM     34  C   UNL     1      -1.710  16.698  26.088  0.00  0.00    +0.000 C 
ENDBRANCH  14  32
TORSDOF 2
ENDMDL
MODEL 2
REMARK VINA RESULT:      -7.8      3.346      5.873
REMARK  Name = 
REMARK  3 active torsions:
REMARK  status: ('A' for Active; 'I' for Inactive)
REMARK    1  A    between atoms: C_1  and  C_2
REMARK    2  A    between atoms: N_14  and  C_15
REMARK    3  A    between atoms: C_21  and  C_22
REMARK                            x       y       z     vdW  Elec       q    Type
REMARK                         _______ _______ _______ _____ _____    ______ ____
ROOT
ATOM      1  C   UNL     1      -2.979   9.748  14.931  0.00  0.00    +0.000 C 
ATOM      2  C   UNL     1      -3.301  10.535  16.168  0.00  0.00    +0.000 A 
ATOM      3  C   UNL     1      -2.384  10.613  17.221  0.00  0.00    +0.000 A 
ATOM      4  C   UNL     1      -2.670  11.325  18.390  0.00  0.00    +0.000 A 
ATOM      5  C   UNL     1      -3.922  11.950  18.475  0.00  0.00    +0.000 A 
ATOM      6  C   UNL     1      -4.862  11.876  17.451  0.00  0.00    +0.000 A 
ATOM      7  C   UNL     1      -4.546  11.181  16.274  0.00  0.00    +0.000 A 
ATOM      8  N   UNL     1      -6.028  12.512  17.795  0.00  0.00    +0.000 NA
ATOM      9  C   UNL     1      -5.827  12.938  19.021  0.00  0.00    +0.000 A 
ATOM     10  N   UNL     1      -4.559  12.659  19.479  0.00  0.00    +0.000 N 
ATOM     11  C   UNL     1      -4.063  13.026  20.745  0.00  0.00    +0.000 A 
ATOM     12  N   UNL     1      -4.966  13.202  21.790  0.00  0.00    +0.000 NA
ATOM     13  C   UNL     1      -4.519  13.526  22.969  0.00  0.00    +0.000 A 
ATOM     14  N   UNL     1      -5.302  13.654  24.105  0.00  0.00    +0.000 N 
ATOM     15  N   UNL     1      -3.148  13.765  23.106  0.00  0.00    +0.000 N 
ATOM     16  N   UNL     1      -2.557  14.177  24.251  0.00  0.00    +0.000 NA
ATOM     17  C   UNL     1      -1.280  14.331  23.878  0.00  0.00    +0.000 A 
ATOM     18  C   UNL     1      -1.048  13.948  22.534  0.00  0.00    +0.000 A 
ATOM     19  C   UNL     1      -2.291  13.599  22.053  0.00  0.00    +0.000 A 
ATOM     20  N   UNL     1      -2.770  13.177  20.855  0.00  0.00    +0.000 NA
ATOM     21  H   UNL     1      -4.769  13.825  24.958  0.00  0.00    +0.000 HD
ENDROOT
BRANCH  18  22
ATOM     22  C   UNL     1       0.157  13.923  21.770  0.00  0.00    +0.000 C 
ATOM     23  C   UNL     1       0.590  12.926  20.990  0.00  0.00    +0.000 C 
ATOM     24  N   UNL     1      -0.006  11.729  20.729  0.00  0.00    +0.000 N 
ATOM     25  C   UNL     1       0.740  11.019  19.808  0.00  0.00    +0.000 C 
ATOM     26  O   UNL     1       0.448   9.930  19.348  0.00  0.00    +0.000 OA
ATOM     27  N   UNL     1       1.843  11.766  19.499  0.00  0.00    +0.000 N 
ATOM     28  C   UNL     1       1.840  12.960  20.165  0.00  0.00    +0.000 C 
ATOM     29  O   UNL     1       2.656  13.857  20.095  0.00  0.00    +0.000 OA
ATOM     30  H   UNL     1      -0.898  11.400  21.066  0.00  0.00    +0.000 HD
ATOM     31  H   UNL     1       2.538  11.485  18.831  0.00  0.00    +0.000 HD
ENDBRANCH  18  22
BRANCH  14  32
ATOM     32  C   UNL     1      -6.563  12.918  24.183  0.00  0.00    +0.000 C 
ATOM     33  C   UNL     1      -7.874  13.610  24.434  0.00  0.00    +0.000 C 
ATOM     34  C   UNL     1      -7.579  13.032  23.082  0.00  0.00    +0.000 C 
ENDBRANCH  14  32
TORSDOF 2
ENDMDL
MODEL 3
REMARK VINA RESULT:      -7.6      3.725      6.210
REMARK  Name = 
REMARK  3 active torsions:
REMARK  status: ('A' for Active; 'I' for Inactive)
REMARK    1  A    between atoms: C_1  and  C_2
REMARK    2  A    between atoms: N_14  and  C_15
REMARK    3  A    between atoms: C_21  and  C_22
REMARK                            x       y       z     vdW  Elec       q    Type
REMARK                         _______ _______ _______ _____ _____    ______ ____
ROOT
ATOM      1  C   UNL     1      -2.735   9.674  14.875  0.00  0.00    +0.000 C 
ATOM      2  C   UNL     1      -3.085  10.452  16.109  0.00  0.00    +0.000 A 
ATOM      3  C   UNL     1      -2.174  10.561  17.165  0.00  0.00    +0.000 A 
ATOM      4  C   UNL     1      -2.486  11.265  18.332  0.00  0.00    +0.000 A 
ATOM      5  C   UNL     1      -3.757  11.851  18.412  0.00  0.00    +0.000 A 
ATOM      6  C   UNL     1      -4.692  11.745  17.386  0.00  0.00    +0.000 A 
ATOM      7  C   UNL     1      -4.350  11.058  16.210  0.00  0.00    +0.000 A 
ATOM      8  N   UNL     1      -5.877  12.345  17.726  0.00  0.00    +0.000 NA
ATOM      9  C   UNL     1      -5.694  12.779  18.952  0.00  0.00    +0.000 A 
ATOM     10  N   UNL     1      -4.419  12.541  19.414  0.00  0.00    +0.000 N 
ATOM     11  C   UNL     1      -3.938  12.925  20.680  0.00  0.00    +0.000 A 
ATOM     12  N   UNL     1      -4.849  13.074  21.722  0.00  0.00    +0.000 NA
ATOM     13  C   UNL     1      -4.416  13.413  22.902  0.00  0.00    +0.000 A 
ATOM     14  N   UNL     1      -5.205  13.518  24.035  0.00  0.00    +0.000 N 
ATOM     15  N   UNL     1      -3.053  13.696  23.042  0.00  0.00    +0.000 N 
ATOM     16  N   UNL     1      -2.479  14.128  24.189  0.00  0.00    +0.000 NA
ATOM     17  C   UNL     1      -1.207  14.322  23.819  0.00  0.00    +0.000 A 
ATOM     18  C   UNL     1      -0.958  13.944  22.476  0.00  0.00    +0.000 A 
ATOM     19  C   UNL     1      -2.189  13.556  21.992  0.00  0.00    +0.000 A 
ATOM     20  N   UNL     1      -2.650  13.117  20.793  0.00  0.00    +0.000 NA
ATOM     21  H   UNL     1      -4.680  13.707  24.890  0.00  0.00    +0.000 HD
ENDROOT
BRANCH  18  22
ATOM     22  C   UNL     1       0.249  13.956  21.716  0.00  0.00    +0.000 C 
ATOM     23  C   UNL     1       0.470  14.620  20.576  0.00  0.00    +0.000 C 
ATOM     24  N   UNL     1      -0.375  15.438  19.889  0.00  0.00    +0.000 N 
ATOM     25  C   UNL     1       0.275  15.986  18.800  0.00  0.00    +0.000 C 
ATOM     26  O   UNL     1      -0.205  16.785  18.016  0.00  0.00    +0.000 OA
ATOM     27  N   UNL     1       1.547  15.485  18.779  0.00  0.00    +0.000 N 
ATOM     28  C   UNL     1       1.772  14.644  19.833  0.00  0.00    +0.000 C 
ATOM     29  O   UNL     1       2.797  14.058  20.118  0.00  0.00    +0.000 OA
ATOM     30  H   UNL     1      -1.315  15.703  20.143  0.00  0.00    +0.000 HD
ATOM     31  H   UNL     1       2.239  15.745  18.097  0.00  0.00    +0.000 HD
ENDBRANCH  18  22
BRANCH  14  32
ATOM     32  C   UNL     1      -6.443  12.743  24.111  0.00  0.00    +0.000 C 
ATOM     33  C   UNL     1      -7.782  13.399  24.313  0.00  0.00    +0.000 C 
ATOM     34  C   UNL     1      -7.438  12.788  22.986  0.00  0.00    +0.000 C 
ENDBRANCH  14  32
TORSDOF 2
ENDMDL
MODEL 4
REMARK VINA RESULT:      -7.3      1.691      2.370
REMARK  Name = 
REMARK  3 active torsions:
REMARK  status: ('A' for Active; 'I' for Inactive)
REMARK    1  A    between atoms: C_1  and  C_2
REMARK    2  A    between atoms: N_14  and  C_15
REMARK    3  A    between atoms: C_21  and  C_22
REMARK                            x       y       z     vdW  Elec       q    Type
REMARK                         _______ _______ _______ _____ _____    ______ ____
ROOT
ATOM      1  C   UNL     1       1.362   9.335  17.826  0.00  0.00    +0.000 C 
ATOM      2  C   UNL     1       0.530   9.948  18.914  0.00  0.00    +0.000 A 
ATOM      3  C   UNL     1      -0.463  10.885  18.609  0.00  0.00    +0.000 A 
ATOM      4  C   UNL     1      -1.238  11.482  19.608  0.00  0.00    +0.000 A 
ATOM      5  C   UNL     1      -0.973  11.117  20.935  0.00  0.00    +0.000 A 
ATOM      6  C   UNL     1       0.021  10.202  21.271  0.00  0.00    +0.000 A 
ATOM      7  C   UNL     1       0.769   9.591  20.253  0.00  0.00    +0.000 A 
ATOM      8  N   UNL     1       0.129  10.058  22.631  0.00  0.00    +0.000 NA
ATOM      9  C   UNL     1      -0.751  10.897  23.127  0.00  0.00    +0.000 A 
ATOM     10  N   UNL     1      -1.476  11.545  22.152  0.00  0.00    +0.000 N 
ATOM     11  C   UNL     1      -2.505  12.474  22.399  0.00  0.00    +0.000 A 
ATOM     12  N   UNL     1      -2.485  13.189  23.593  0.00  0.00    +0.000 NA
ATOM     13  C   UNL     1      -3.422  14.063  23.826  0.00  0.00    +0.000 A 
ATOM     14  N   UNL     1      -3.473  14.891  24.935  0.00  0.00    +0.000 N 
ATOM     15  N   UNL     1      -4.457  14.178  22.893  0.00  0.00    +0.000 N 
ATOM     16  N   UNL     1      -5.529  14.990  23.040  0.00  0.00    +0.000 NA
ATOM     17  C   UNL     1      -6.257  14.707  21.952  0.00  0.00    +0.000 A 
ATOM     18  C   UNL     1      -5.619  13.786  21.086  0.00  0.00    +0.000 A 
ATOM     19  C   UNL     1      -4.453  13.446  21.738  0.00  0.00    +0.000 A 
ATOM     20  N   UNL     1      -3.421  12.605  21.476  0.00  0.00    +0.000 NA
ATOM     21  H   UNL     1      -4.230  15.575  24.907  0.00  0.00    +0.000 HD
ENDROOT
BRANCH  18  22
ATOM     22  C   UNL     1      -6.030  13.257  19.825  0.00  0.00    +0.000 C 
ATOM     23  C   UNL     1      -6.397  13.956  18.746  0.00  0.00    +0.000 C 
ATOM     24  N   UNL     1      -6.451  15.308  18.584  0.00  0.00    +0.000 N 
ATOM     25  C   UNL     1      -6.809  15.617  17.286  0.00  0.00    +0.000 C 
ATOM     26  O   UNL     1      -6.906  16.740  16.825  0.00  0.00    +0.000 OA
ATOM     27  N   UNL     1      -7.013  14.441  16.619  0.00  0.00    +0.000 N 
ATOM     28  C   UNL     1      -6.776  13.361  17.423  0.00  0.00    +0.000 C 
ATOM     29  O   UNL     1      -6.841  12.184  17.134  0.00  0.00    +0.000 OA
ATOM     30  H   UNL     1      -6.196  16.017  19.254  0.00  0.00    +0.000 HD
ATOM     31  H   UNL     1      -7.260  14.386  15.646  0.00  0.00    +0.000 HD
ENDBRANCH  18  22
BRANCH  14  32
ATOM     32  C   UNL     1      -2.229  15.227  25.627  0.00  0.00    +0.000 C 
ATOM     33  C   UNL     1      -1.095  15.927  24.931  0.00  0.00    +0.000 C 
ATOM     34  C   UNL     1      -1.906  16.656  25.960  0.00  0.00    +0.000 C 
ENDBRANCH  14  32
TORSDOF 2
ENDMDL
MODEL 5
REMARK VINA RESULT:      -7.2      2.802      6.259
REMARK  Name = 
REMARK  3 active torsions:
REMARK  status: ('A' for Active; 'I' for Inactive)
REMARK    1  A    between atoms: C_1  and  C_2
REMARK    2  A    between atoms: N_14  and  C_15
REMARK    3  A    between atoms: C_21  and  C_22
REMARK                            x       y       z     vdW  Elec       q    Type
REMARK                         _______ _______ _______ _____ _____    ______ ____
ROOT
ATOM      1  C   UNL     1      -2.553  16.490  24.543  0.00  0.00    +0.000 C 
ATOM      2  C   UNL     1      -2.077  15.656  23.389  0.00  0.00    +0.000 A 
ATOM      3  C   UNL     1      -2.927  14.724  22.785  0.00  0.00    +0.000 A 
ATOM      4  C   UNL     1      -2.499  13.924  21.722  0.00  0.00    +0.000 A 
ATOM      5  C   UNL     1      -1.175  14.081  21.288  0.00  0.00    +0.000 A 
ATOM      6  C   UNL     1      -0.300  14.988  21.881  0.00  0.00    +0.000 A 
ATOM      7  C   UNL     1      -0.757  15.802  22.928  0.00  0.00    +0.000 A 
ATOM      8  N   UNL     1       0.951  14.912  21.324  0.00  0.00    +0.000 NA
ATOM      9  C   UNL     1       0.864  13.951  20.434  0.00  0.00    +0.000 A 
ATOM     10  N   UNL     1      -0.406  13.429  20.338  0.00  0.00    +0.000 N 
ATOM     11  C   UNL     1      -0.793  12.411  19.446  0.00  0.00    +0.000 A 
ATOM     12  N   UNL     1       0.173  11.511  19.002  0.00  0.00    +0.000 NA
ATOM     13  C   UNL     1      -0.174  10.555  18.189  0.00  0.00    +0.000 A 
ATOM     14  N   UNL     1       0.670   9.554  17.738  0.00  0.00    +0.000 N 
ATOM     15  N   UNL     1      -1.496  10.533  17.732  0.00  0.00    +0.000 N 
ATOM     16  N   UNL     1      -1.976   9.644  16.832  0.00  0.00    +0.000 NA
ATOM     17  C   UNL     1      -3.239  10.057  16.664  0.00  0.00    +0.000 A 
ATOM     18  C   UNL     1      -3.580  11.145  17.503  0.00  0.00    +0.000 A 
ATOM     19  C   UNL     1      -2.415  11.443  18.176  0.00  0.00    +0.000 A 
ATOM     20  N   UNL     1      -2.050  12.378  19.090  0.00  0.00    +0.000 NA
ATOM     21  H   UNL     1       0.203   8.839  17.179  0.00  0.00    +0.000 HD
ENDROOT
BRANCH  18  22
ATOM     22  C   UNL     1      -4.813  11.848  17.659  0.00  0.00    +0.000 C 
ATOM     23  C   UNL     1      -5.419  12.155  18.812  0.00  0.00    +0.000 C 
ATOM     24  N   UNL     1      -5.010  11.892  20.085  0.00  0.00    +0.000 N 
ATOM     25  C   UNL     1      -5.893  12.449  20.990  0.00  0.00    +0.000 C 
ATOM     26  O   UNL     1      -5.780  12.417  22.202  0.00  0.00    +0.000 OA
ATOM     27  N   UNL     1      -6.893  13.053  20.280  0.00  0.00    +0.000 N 
ATOM     28  C   UNL     1      -6.691  12.938  18.933  0.00  0.00    +0.000 C 
ATOM     29  O   UNL     1      -7.375  13.381  18.033  0.00  0.00    +0.000 OA
ATOM     30  H   UNL     1      -4.159  11.437  20.375  0.00  0.00    +0.000 HD
ATOM     31  H   UNL     1      -7.653  13.556  20.703  0.00  0.00    +0.000 HD
ENDBRANCH  18  22
BRANCH  14  32
ATOM     32  C   UNL     1       1.829   9.186  18.549  0.00  0.00    +0.000 C 
ATOM     33  C   UNL     1       1.750   8.130  19.618  0.00  0.00    +0.000 C 
ATOM     34  C   UNL     1       2.506   7.859  18.350  0.00  0.00    +0.000 C 
ENDBRANCH  14  32
TORSDOF 2
ENDMDL
MODEL 6
REMARK VINA RESULT:      -7.2      3.294      7.334
REMARK  Name = 
REMARK  3 active torsions:
REMARK  status: ('A' for Active; 'I' for Inactive)
REMARK    1  A    between atoms: C_1  and  C_2
REMARK    2  A    between atoms: N_14  and  C_15
REMARK    3  A    between atoms: C_21  and  C_22
REMARK                            x       y       z     vdW  Elec       q    Type
REMARK                         _______ _______ _______ _____ _____    ______ ____
ROOT
ATOM      1  C   UNL     1      -0.697  15.836  24.825  0.00  0.00    +0.000 C 
ATOM      2  C   UNL     1      -1.607  15.170  23.834  0.00  0.00    +0.000 A 
ATOM      3  C   UNL     1      -1.103  14.671  22.628  0.00  0.00    +0.000 A 
ATOM      4  C   UNL     1      -1.934  14.063  21.683  0.00  0.00    +0.000 A 
ATOM      5  C   UNL     1      -3.301  13.984  21.982  0.00  0.00    +0.000 A 
ATOM      6  C   UNL     1      -3.835  14.488  23.165  0.00  0.00    +0.000 A 
ATOM      7  C   UNL     1      -2.981  15.069  24.115  0.00  0.00    +0.000 A 
ATOM      8  N   UNL     1      -5.199  14.349  23.198  0.00  0.00    +0.000 NA
ATOM      9  C   UNL     1      -5.508  13.806  22.042  0.00  0.00    +0.000 A 
ATOM     10  N   UNL     1      -4.401  13.529  21.273  0.00  0.00    +0.000 N 
ATOM     11  C   UNL     1      -4.435  12.920  20.004  0.00  0.00    +0.000 A 
ATOM     12  N   UNL     1      -5.584  13.056  19.230  0.00  0.00    +0.000 NA
ATOM     13  C   UNL     1      -5.623  12.512  18.048  0.00  0.00    +0.000 A 
ATOM     14  N   UNL     1      -6.672  12.639  17.152  0.00  0.00    +0.000 N 
ATOM     15  N   UNL     1      -4.528  11.739  17.647  0.00  0.00    +0.000 N 
ATOM     16  N   UNL     1      -4.463  11.057  16.480  0.00  0.00    +0.000 NA
ATOM     17  C   UNL     1      -3.284  10.431  16.577  0.00  0.00    +0.000 A 
ATOM     18  C   UNL     1      -2.574  10.769  17.756  0.00  0.00    +0.000 A 
ATOM     19  C   UNL     1      -3.422  11.612  18.441  0.00  0.00    +0.000 A 
ATOM     20  N   UNL     1      -3.370  12.260  19.632  0.00  0.00    +0.000 NA
ATOM     21  H   UNL     1      -6.490  12.219  16.240  0.00  0.00    +0.000 HD
ENDROOT
BRANCH  18  22
ATOM     22  C   UNL     1      -1.287  10.358  18.216  0.00  0.00    +0.000 C 
ATOM     23  C   UNL     1      -0.235  11.146  18.460  0.00  0.00    +0.000 C 
ATOM     24  N   UNL     1      -0.141  12.501  18.346  0.00  0.00    +0.000 N 
ATOM     25  C   UNL     1       1.103  12.927  18.770  0.00  0.00    +0.000 C 
ATOM     26  O   UNL     1       1.476  14.086  18.822  0.00  0.00    +0.000 OA
ATOM     27  N   UNL     1       1.821  11.822  19.134  0.00  0.00    +0.000 N 
ATOM     28  C   UNL     1       1.086  10.678  18.991  0.00  0.00    +0.000 C 
ATOM     29  O   UNL     1       1.418   9.539  19.248  0.00  0.00    +0.000 OA
ATOM     30  H   UNL     1      -0.868  13.146  18.078  0.00  0.00    +0.000 HD
ATOM     31  H   UNL     1       2.755  11.859  19.503  0.00  0.00    +0.000 HD
ENDBRANCH  18  22
BRANCH  14  32
ATOM     32  C   UNL     1      -7.543  13.810  17.242  0.00  0.00    +0.000 C 
ATOM     33  C   UNL     1      -7.006  15.211  17.134  0.00  0.00    +0.000 C 
ATOM     34  C   UNL     1      -7.833  14.637  16.021  0.00  0.00    +0.000 C 
ENDBRANCH  14  32
TORSDOF 2
ENDMDL
MODEL 7
REMARK VINA RESULT:      -7.0      3.632      5.034
REMARK  Name = 
REMARK  3 active torsions:
REMARK  status: ('A' for Active; 'I' for Inactive)
REMARK    1  A    between atoms: C_1  and  C_2
REMARK    2  A    between atoms: N_14  and  C_15
REMARK    3  A    between atoms: C_21  and  C_22
REMARK                            x       y       z     vdW  Elec       q    Type
REMARK                         _______ _______ _______ _____ _____    ______ ____
ROOT
ATOM      1  C   UNL     1      -3.048   9.729  15.754  0.00  0.00    +0.000 C 
ATOM      2  C   UNL     1      -2.232  10.335  16.859  0.00  0.00    +0.000 A 
ATOM      3  C   UNL     1      -2.561  11.590  17.381  0.00  0.00    +0.000 A 
ATOM      4  C   UNL     1      -1.805  12.181  18.397  0.00  0.00    +0.000 A 
ATOM      5  C   UNL     1      -0.690  11.473  18.867  0.00  0.00    +0.000 A 
ATOM      6  C   UNL     1      -0.326  10.231  18.354  0.00  0.00    +0.000 A 
ATOM      7  C   UNL     1      -1.115   9.640  17.355  0.00  0.00    +0.000 A 
ATOM      8  N   UNL     1       0.831   9.772  18.929  0.00  0.00    +0.000 NA
ATOM      9  C   UNL     1       1.198  10.728  19.752  0.00  0.00    +0.000 A 
ATOM     10  N   UNL     1       0.302  11.772  19.786  0.00  0.00    +0.000 N 
ATOM     11  C   UNL     1       0.428  12.914  20.600  0.00  0.00    +0.000 A 
ATOM     12  N   UNL     1       1.702  13.309  21.002  0.00  0.00    +0.000 NA
ATOM     13  C   UNL     1       1.834  14.372  21.742  0.00  0.00    +0.000 A 
ATOM     14  N   UNL     1       3.045  14.912  22.142  0.00  0.00    +0.000 N 
ATOM     15  N   UNL     1       0.671  15.020  22.170  0.00  0.00    +0.000 N 
ATOM     16  N   UNL     1       0.655  16.090  22.998  0.00  0.00    +0.000 NA
ATOM     17  C   UNL     1      -0.655  16.304  23.168  0.00  0.00    +0.000 A 
ATOM     18  C   UNL     1      -1.462  15.432  22.397  0.00  0.00    +0.000 A 
ATOM     19  C   UNL     1      -0.566  14.595  21.769  0.00  0.00    +0.000 A 
ATOM     20  N   UNL     1      -0.674  13.535  20.927  0.00  0.00    +0.000 NA
ATOM     21  H   UNL     1       2.958  15.798  22.642  0.00  0.00    +0.000 HD
ENDROOT
BRANCH  18  22
ATOM     22  C   UNL     1      -2.881  15.353  22.263  0.00  0.00    +0.000 C 
ATOM     23  C   UNL     1      -3.693  14.473  22.859  0.00  0.00    +0.000 C 
ATOM     24  N   UNL     1      -3.374  13.472  23.728  0.00  0.00    +0.000 N 
ATOM     25  C   UNL     1      -4.523  12.843  24.167  0.00  0.00    +0.000 C 
ATOM     26  O   UNL     1      -4.567  11.934  24.978  0.00  0.00    +0.000 OA
ATOM     27  N   UNL     1      -5.587  13.435  23.547  0.00  0.00    +0.000 N 
ATOM     28  C   UNL     1      -5.186  14.455  22.729  0.00  0.00    +0.000 C 
ATOM     29  O   UNL     1      -5.879  15.194  22.059  0.00  0.00    +0.000 OA
ATOM     30  H   UNL     1      -2.462  13.242  24.091  0.00  0.00    +0.000 HD
ATOM     31  H   UNL     1      -6.545  13.178  23.712  0.00  0.00    +0.000 HD
ENDBRANCH  18  22
BRANCH  14  32
ATOM     32  C   UNL     1       4.236  14.661  21.332  0.00  0.00    +0.000 C 
ATOM     33  C   UNL     1       5.400  15.613  21.310  0.00  0.00    +0.000 C 
ATOM     34  C   UNL     1       5.534  14.280  21.985  0.00  0.00    +0.000 C 
ENDBRANCH  14  32
TORSDOF 2
ENDMDL
MODEL 8
REMARK VINA RESULT:      -7.0      2.561      3.806
REMARK  Name = 
REMARK  3 active torsions:
REMARK  status: ('A' for Active; 'I' for Inactive)
REMARK    1  A    between atoms: C_1  and  C_2
REMARK    2  A    between atoms: N_14  and  C_15
REMARK    3  A    between atoms: C_21  and  C_22
REMARK                            x       y       z     vdW  Elec       q    Type
REMARK                         _______ _______ _______ _____ _____    ______ ____
ROOT
ATOM      1  C   UNL     1      -3.379   9.768  16.268  0.00  0.00    +0.000 C 
ATOM      2  C   UNL     1      -2.793  10.486  17.448  0.00  0.00    +0.000 A 
ATOM      3  C   UNL     1      -3.608  11.231  18.306  0.00  0.00    +0.000 A 
ATOM      4  C   UNL     1      -3.081  11.923  19.400  0.00  0.00    +0.000 A 
ATOM      5  C   UNL     1      -1.696  11.854  19.600  0.00  0.00    +0.000 A 
ATOM      6  C   UNL     1      -0.856  11.136  18.753  0.00  0.00    +0.000 A 
ATOM      7  C   UNL     1      -1.407  10.424  17.677  0.00  0.00    +0.000 A 
ATOM      8  N   UNL     1       0.459  11.273  19.119  0.00  0.00    +0.000 NA
ATOM      9  C   UNL     1       0.437  12.091  20.146  0.00  0.00    +0.000 A 
ATOM     10  N   UNL     1      -0.840  12.454  20.509  0.00  0.00    +0.000 N 
ATOM     11  C   UNL     1      -1.161  13.295  21.592  0.00  0.00    +0.000 A 
ATOM     12  N   UNL     1      -0.216  14.227  22.014  0.00  0.00    +0.000 NA
ATOM     13  C   UNL     1      -0.505  15.022  23.004  0.00  0.00    +0.000 A 
ATOM     14  N   UNL     1       0.312  16.039  23.467  0.00  0.00    +0.000 N 
ATOM     15  N   UNL     1      -1.731  14.838  23.654  0.00  0.00    +0.000 N 
ATOM     16  N   UNL     1      -2.131  15.541  24.739  0.00  0.00    +0.000 NA
ATOM     17  C   UNL     1      -3.307  14.975  25.032  0.00  0.00    +0.000 A 
ATOM     18  C   UNL     1      -3.688  13.977  24.101  0.00  0.00    +0.000 A 
ATOM     19  C   UNL     1      -2.628  13.901  23.223  0.00  0.00    +0.000 A 
ATOM     20  N   UNL     1      -2.340  13.142  22.135  0.00  0.00    +0.000 NA
ATOM     21  H   UNL     1      -0.116  16.618  24.191  0.00  0.00    +0.000 HD
ENDROOT
BRANCH  18  22
ATOM     22  C   UNL     1      -4.864  13.172  24.029  0.00  0.00    +0.000 C 
ATOM     23  C   UNL     1      -5.928  13.378  23.245  0.00  0.00    +0.000 C 
ATOM     24  N   UNL     1      -6.137  14.371  22.337  0.00  0.00    +0.000 N 
ATOM     25  C   UNL     1      -7.339  14.171  21.684  0.00  0.00    +0.000 C 
ATOM     26  O   UNL     1      -7.786  14.869  20.792  0.00  0.00    +0.000 OA
ATOM     27  N   UNL     1      -7.915  13.047  22.207  0.00  0.00    +0.000 N 
ATOM     28  C   UNL     1      -7.124  12.478  23.166  0.00  0.00    +0.000 C 
ATOM     29  O   UNL     1      -7.331  11.465  23.802  0.00  0.00    +0.000 OA
ATOM     30  H   UNL     1      -5.505  15.114  22.082  0.00  0.00    +0.000 HD
ATOM     31  H   UNL     1      -8.789  12.667  21.887  0.00  0.00    +0.000 HD
ENDBRANCH  18  22
BRANCH  14  32
ATOM     32  C   UNL     1       1.286  16.637  22.555  0.00  0.00    +0.000 C 
ATOM     33  C   UNL     1       2.210  17.741  22.989  0.00  0.00    +0.000 C 
ATOM     34  C   UNL     1       2.754  16.368  22.726  0.00  0.00    +0.000 C 
ENDBRANCH  14  32
TORSDOF 2
ENDMDL
MODEL 9
REMARK VINA RESULT:      -7.0      4.195      6.299
REMARK  Name = 
REMARK  3 active torsions:
REMARK  status: ('A' for Active; 'I' for Inactive)
REMARK    1  A    between atoms: C_1  and  C_2
REMARK    2  A    between atoms: N_14  and  C_15
REMARK    3  A    between atoms: C_21  and  C_22
REMARK                            x       y       z     vdW  Elec       q    Type
REMARK                         _______ _______ _______ _____ _____    ______ ____
ROOT
ATOM      1  C   UNL     1       2.315   8.739  17.786  0.00  0.00    +0.000 C 
ATOM      2  C   UNL     1       1.126   9.583  18.140  0.00  0.00    +0.000 A 
ATOM      3  C   UNL     1       1.238  10.613  19.080  0.00  0.00    +0.000 A 
ATOM      4  C   UNL     1       0.139  11.399  19.439  0.00  0.00    +0.000 A 
ATOM      5  C   UNL     1      -1.089  11.108  18.829  0.00  0.00    +0.000 A 
ATOM      6  C   UNL     1      -1.236  10.079  17.904  0.00  0.00    +0.000 A 
ATOM      7  C   UNL     1      -0.115   9.319  17.535  0.00  0.00    +0.000 A 
ATOM      8  N   UNL     1      -2.540   9.952  17.499  0.00  0.00    +0.000 NA
ATOM      9  C   UNL     1      -3.194  10.858  18.190  0.00  0.00    +0.000 A 
ATOM     10  N   UNL     1      -2.368  11.615  18.989  0.00  0.00    +0.000 N 
ATOM     11  C   UNL     1      -2.795  12.675  19.812  0.00  0.00    +0.000 A 
ATOM     12  N   UNL     1      -4.108  12.670  20.277  0.00  0.00    +0.000 NA
ATOM     13  C   UNL     1      -4.511  13.636  21.052  0.00  0.00    +0.000 A 
ATOM     14  N   UNL     1      -5.762  13.707  21.642  0.00  0.00    +0.000 N 
ATOM     15  N   UNL     1      -3.621  14.683  21.309  0.00  0.00    +0.000 N 
ATOM     16  N   UNL     1      -3.928  15.784  22.035  0.00  0.00    +0.000 NA
ATOM     17  C   UNL     1      -2.807  16.510  21.945  0.00  0.00    +0.000 A 
ATOM     18  C   UNL     1      -1.774  15.848  21.238  0.00  0.00    +0.000 A 
ATOM     19  C   UNL     1      -2.344  14.664  20.821  0.00  0.00    +0.000 A 
ATOM     20  N   UNL     1      -1.919  13.604  20.087  0.00  0.00    +0.000 NA
ATOM     21  H   UNL     1      -5.871  14.489  22.289  0.00  0.00    +0.000 HD
ENDROOT
BRANCH  18  22
ATOM     22  C   UNL     1      -0.435  16.251  20.954  0.00  0.00    +0.000 C 
ATOM     23  C   UNL     1       0.011  16.803  19.819  0.00  0.00    +0.000 C 
ATOM     24  N   UNL     1      -0.689  17.118  18.693  0.00  0.00    +0.000 N 
ATOM     25  C   UNL     1       0.140  17.743  17.781  0.00  0.00    +0.000 C 
ATOM     26  O   UNL     1      -0.202  18.177  16.695  0.00  0.00    +0.000 OA
ATOM     27  N   UNL     1       1.393  17.799  18.324  0.00  0.00    +0.000 N 
ATOM     28  C   UNL     1       1.419  17.257  19.579  0.00  0.00    +0.000 C 
ATOM     29  O   UNL     1       2.362  17.175  20.339  0.00  0.00    +0.000 OA
ATOM     30  H   UNL     1      -1.679  17.011  18.535  0.00  0.00    +0.000 HD
ATOM     31  H   UNL     1       2.179  18.229  17.871  0.00  0.00    +0.000 HD
ENDBRANCH  18  22
BRANCH  14  32
ATOM     32  C   UNL     1      -6.504  12.470  21.882  0.00  0.00    +0.000 C 
ATOM     33  C   UNL     1      -7.916  12.477  22.400  0.00  0.00    +0.000 C 
ATOM     34  C   UNL     1      -7.641  12.078  20.980  0.00  0.00    +0.000 C 
ENDBRANCH  14  32
TORSDOF 2
ENDMDL
