MODEL 1
REMARK VINA RESULT:      -8.0      0.000      0.000
REMARK  Name = 
REMARK  2 active torsions:
REMARK  status: ('A' for Active; 'I' for Inactive)
REMARK    1  A    between atoms: C_2  and  C_3
REMARK    2  A    between atoms: C_6  and  N_7
REMARK                            x       y       z     vdW  Elec       q    Type
REMARK                         _______ _______ _______ _____ _____    ______ ____
ROOT
ATOM      1  O   UNL     1       4.298   6.207  18.239  0.00  0.00    +0.000 OA
ATOM      2  C   UNL     1       3.296   6.157  18.948  0.00  0.00    +0.000 C 
ATOM      3  N   UNL     1       2.935   5.027  19.696  0.00  0.00    +0.000 N 
ATOM      4  C   UNL     1       3.883   3.908  19.770  0.00  0.00    +0.000 C 
ATOM      5  C   UNL     1       3.224   2.517  19.664  0.00  0.00    +0.000 C 
ATOM      6  C   UNL     1       2.710   2.215  18.246  0.00  0.00    +0.000 C 
ATOM      7  N   UNL     1       1.644   3.117  17.814  0.00  0.00    +0.000 NA
ATOM      8  C   UNL     1       0.559   3.239  18.784  0.00  0.00    +0.000 C 
ATOM      9  C   UNL     1       1.033   3.470  20.233  0.00  0.00    +0.000 C 
ATOM     10  C   UNL     1       2.052   2.413  20.640  0.00  0.00    +0.000 C 
ATOM     11  C   UNL     1       1.664   4.855  20.407  0.00  0.00    +0.000 C 
ATOM     12  H   UNL     1       1.286   2.833  16.904  0.00  0.00    +0.000 HD
ENDROOT
BRANCH   2  13
ATOM     13  C   UNL     1       2.447   7.379  19.005  0.00  0.00    +0.000 A 
ATOM     14  C   UNL     1       2.203   8.104  17.835  0.00  0.00    +0.000 A 
ATOM     15  C   UNL     1       1.378   9.242  17.866  0.00  0.00    +0.000 A 
ATOM     16  C   UNL     1       0.777   9.648  19.065  0.00  0.00    +0.000 A 
ATOM     17  C   UNL     1       1.051   8.935  20.239  0.00  0.00    +0.000 A 
ATOM     18  C   UNL     1       1.921   7.846  20.212  0.00  0.00    +0.000 A 
BRANCH  16  19
ATOM     19  N   UNL     1      -0.090  10.778  19.109  0.00  0.00    +0.000 N 
ATOM     20  C   UNL     1       0.061  11.926  19.857  0.00  0.00    +0.000 A 
ATOM     21  C   UNL     1      -1.028  12.717  19.570  0.00  0.00    +0.000 A 
ATOM     22  N   UNL     1      -1.851  12.107  18.671  0.00  0.00    +0.000 NA
ATOM     23  C   UNL     1      -1.267  10.958  18.410  0.00  0.00    +0.000 A 
ENDBRANCH  16  19
ENDBRANCH   2  13
TORSDOF 2
ENDMDL
MODEL 2
REMARK VINA RESULT:      -7.9      0.390      1.100
REMARK  Name = 
REMARK  2 active torsions:
REMARK  status: ('A' for Active; 'I' for Inactive)
REMARK    1  A    between atoms: C_2  and  C_3
REMARK    2  A    between atoms: C_6  and  N_7
REMARK                            x       y       z     vdW  Elec       q    Type
REMARK                         _______ _______ _______ _____ _____    ______ ____
ROOT
ATOM      1  O   UNL     1       4.297   6.215  18.239  0.00  0.00    +0.000 OA
ATOM      2  C   UNL     1       3.291   6.167  18.942  0.00  0.00    +0.000 C 
ATOM      3  N   UNL     1       2.934   5.047  19.705  0.00  0.00    +0.000 N 
ATOM      4  C   UNL     1       3.891   3.937  19.803  0.00  0.00    +0.000 C 
ATOM      5  C   UNL     1       3.245   2.539  19.715  0.00  0.00    +0.000 C 
ATOM      6  C   UNL     1       2.744   2.210  18.298  0.00  0.00    +0.000 C 
ATOM      7  N   UNL     1       1.673   3.095  17.845  0.00  0.00    +0.000 NA
ATOM      8  C   UNL     1       0.580   3.223  18.805  0.00  0.00    +0.000 C 
ATOM      9  C   UNL     1       1.042   3.481  20.253  0.00  0.00    +0.000 C 
ATOM     10  C   UNL     1       2.068   2.440  20.684  0.00  0.00    +0.000 C 
ATOM     11  C   UNL     1       1.660   4.874  20.410  0.00  0.00    +0.000 C 
ATOM     12  H   UNL     1       1.324   2.794  16.937  0.00  0.00    +0.000 HD
ENDROOT
BRANCH   2  13
ATOM     13  C   UNL     1       2.431   7.383  18.974  0.00  0.00    +0.000 A 
ATOM     14  C   UNL     1       1.882   7.807  20.188  0.00  0.00    +0.000 A 
ATOM     15  C   UNL     1       1.094   8.970  20.241  0.00  0.00    +0.000 A 
ATOM     16  C   UNL     1       0.869   9.726  19.082  0.00  0.00    +0.000 A 
ATOM     17  C   UNL     1       1.397   9.279  17.865  0.00  0.00    +0.000 A 
ATOM     18  C   UNL     1       2.123   8.089  17.809  0.00  0.00    +0.000 A 
BRANCH  16  19
ATOM     19  N   UNL     1       0.102  10.927  19.124  0.00  0.00    +0.000 N 
ATOM     20  C   UNL     1       0.548  12.217  18.927  0.00  0.00    +0.000 A 
ATOM     21  C   UNL     1      -0.554  13.028  19.076  0.00  0.00    +0.000 A 
ATOM     22  N   UNL     1      -1.668  12.295  19.356  0.00  0.00    +0.000 NA
ATOM     23  C   UNL     1      -1.250  11.048  19.374  0.00  0.00    +0.000 A 
ENDBRANCH  16  19
ENDBRANCH   2  13
TORSDOF 2
ENDMDL
MODEL 3
REMARK VINA RESULT:      -7.9      4.206      7.107
REMARK  Name = 
REMARK  2 active torsions:
REMARK  status: ('A' for Active; 'I' for Inactive)
REMARK    1  A    between atoms: C_2  and  C_3
REMARK    2  A    between atoms: C_6  and  N_7
REMARK                            x       y       z     vdW  Elec       q    Type
REMARK                         _______ _______ _______ _____ _____    ______ ____
ROOT
ATOM      1  O   UNL     1       4.712   5.846  19.676  0.00  0.00    +0.000 OA
ATOM      2  C   UNL     1       4.065   5.267  18.806  0.00  0.00    +0.000 C 
ATOM      3  N   UNL     1       2.756   4.802  18.998  0.00  0.00    +0.000 N 
ATOM      4  C   UNL     1       2.062   5.168  20.239  0.00  0.00    +0.000 C 
ATOM      5  C   UNL     1       1.239   4.021  20.861  0.00  0.00    +0.000 C 
ATOM      6  C   UNL     1       2.127   2.925  21.476  0.00  0.00    +0.000 C 
ATOM      7  N   UNL     1       2.958   2.236  20.491  0.00  0.00    +0.000 NA
ATOM      8  C   UNL     1       2.209   1.758  19.332  0.00  0.00    +0.000 C 
ATOM      9  C   UNL     1       1.251   2.804  18.728  0.00  0.00    +0.000 C 
ATOM     10  C   UNL     1       0.339   3.383  19.803  0.00  0.00    +0.000 C 
ATOM     11  C   UNL     1       2.016   3.952  18.061  0.00  0.00    +0.000 C 
ATOM     12  H   UNL     1       3.471   1.474  20.931  0.00  0.00    +0.000 HD
ENDROOT
BRANCH   2  13
ATOM     13  C   UNL     1       4.728   5.076  17.486  0.00  0.00    +0.000 A 
ATOM     14  C   UNL     1       5.293   3.837  17.172  0.00  0.00    +0.000 A 
ATOM     15  C   UNL     1       5.894   3.630  15.918  0.00  0.00    +0.000 A 
ATOM     16  C   UNL     1       5.914   4.657  14.964  0.00  0.00    +0.000 A 
ATOM     17  C   UNL     1       5.372   5.905  15.297  0.00  0.00    +0.000 A 
ATOM     18  C   UNL     1       4.836   6.122  16.566  0.00  0.00    +0.000 A 
BRANCH  16  19
ATOM     19  N   UNL     1       6.487   4.455  13.676  0.00  0.00    +0.000 N 
ATOM     20  C   UNL     1       6.139   3.504  12.739  0.00  0.00    +0.000 A 
ATOM     21  C   UNL     1       6.978   3.699  11.666  0.00  0.00    +0.000 A 
ATOM     22  N   UNL     1       7.834   4.734  11.895  0.00  0.00    +0.000 NA
ATOM     23  C   UNL     1       7.517   5.169  13.096  0.00  0.00    +0.000 A 
ENDBRANCH  16  19
ENDBRANCH   2  13
TORSDOF 2
ENDMDL
MODEL 4
REMARK VINA RESULT:      -7.9      4.290      7.132
REMARK  Name = 
REMARK  2 active torsions:
REMARK  status: ('A' for Active; 'I' for Inactive)
REMARK    1  A    between atoms: C_2  and  C_3
REMARK    2  A    between atoms: C_6  and  N_7
REMARK                            x       y       z     vdW  Elec       q    Type
REMARK                         _______ _______ _______ _____ _____    ______ ____
ROOT
ATOM      1  O   UNL     1       5.233   5.553  19.687  0.00  0.00    +0.000 OA
ATOM      2  C   UNL     1       4.420   5.150  18.858  0.00  0.00    +0.000 C 
ATOM      3  N   UNL     1       3.073   4.897  19.156  0.00  0.00    +0.000 N 
ATOM      4  C   UNL     1       2.567   5.289  20.477  0.00  0.00    +0.000 C 
ATOM      5  C   UNL     1       1.618   4.256  21.119  0.00  0.00    +0.000 C 
ATOM      6  C   UNL     1       2.355   2.990  21.586  0.00  0.00    +0.000 C 
ATOM      7  N   UNL     1       2.964   2.239  20.490  0.00  0.00    +0.000 NA
ATOM      8  C   UNL     1       2.043   1.971  19.388  0.00  0.00    +0.000 C 
ATOM      9  C   UNL     1       1.229   3.200  18.936  0.00  0.00    +0.000 C 
ATOM     10  C   UNL     1       0.530   3.849  20.125  0.00  0.00    +0.000 C 
ATOM     11  C   UNL     1       2.116   4.247  18.255  0.00  0.00    +0.000 C 
ATOM     12  H   UNL     1       3.375   1.374  20.837  0.00  0.00    +0.000 HD
ENDROOT
BRANCH   2  13
ATOM     13  C   UNL     1       4.918   4.940  17.470  0.00  0.00    +0.000 A 
ATOM     14  C   UNL     1       4.946   6.016  16.578  0.00  0.00    +0.000 A 
ATOM     15  C   UNL     1       5.443   5.842  15.275  0.00  0.00    +0.000 A 
ATOM     16  C   UNL     1       5.934   4.594  14.864  0.00  0.00    +0.000 A 
ATOM     17  C   UNL     1       5.874   3.514  15.753  0.00  0.00    +0.000 A 
ATOM     18  C   UNL     1       5.320   3.679  17.023  0.00  0.00    +0.000 A 
BRANCH  16  19
ATOM     19  N   UNL     1       6.473   4.408  13.559  0.00  0.00    +0.000 N 
ATOM     20  C   UNL     1       6.147   3.428  12.645  0.00  0.00    +0.000 A 
ATOM     21  C   UNL     1       6.936   3.657  11.541  0.00  0.00    +0.000 A 
ATOM     22  N   UNL     1       7.740   4.741  11.729  0.00  0.00    +0.000 NA
ATOM     23  C   UNL     1       7.441   5.172  12.936  0.00  0.00    +0.000 A 
ENDBRANCH  16  19
ENDBRANCH   2  13
TORSDOF 2
ENDMDL
MODEL 5
REMARK VINA RESULT:      -7.6      3.153      4.680
REMARK  Name = 
REMARK  2 active torsions:
REMARK  status: ('A' for Active; 'I' for Inactive)
REMARK    1  A    between atoms: C_2  and  C_3
REMARK    2  A    between atoms: C_6  and  N_7
REMARK                            x       y       z     vdW  Elec       q    Type
REMARK                         _______ _______ _______ _____ _____    ______ ____
ROOT
ATOM      1  O   UNL     1       3.107   4.160  17.340  0.00  0.00    +0.000 OA
ATOM      2  C   UNL     1       3.566   5.271  17.596  0.00  0.00    +0.000 C 
ATOM      3  N   UNL     1       4.720   5.788  16.990  0.00  0.00    +0.000 N 
ATOM      4  C   UNL     1       5.317   5.040  15.877  0.00  0.00    +0.000 C 
ATOM      5  C   UNL     1       6.859   4.986  15.910  0.00  0.00    +0.000 C 
ATOM      6  C   UNL     1       7.392   4.079  17.032  0.00  0.00    +0.000 C 
ATOM      7  N   UNL     1       7.051   4.556  18.371  0.00  0.00    +0.000 NA
ATOM      8  C   UNL     1       7.384   5.962  18.587  0.00  0.00    +0.000 C 
ATOM      9  C   UNL     1       6.931   6.898  17.449  0.00  0.00    +0.000 C 
ATOM     10  C   UNL     1       7.433   6.389  16.103  0.00  0.00    +0.000 C 
ATOM     11  C   UNL     1       5.405   7.021  17.392  0.00  0.00    +0.000 C 
ATOM     12  H   UNL     1       7.486   3.968  19.079  0.00  0.00    +0.000 HD
ENDROOT
BRANCH   2  13
ATOM     13  C   UNL     1       2.830   6.092  18.596  0.00  0.00    +0.000 A 
ATOM     14  C   UNL     1       2.451   5.518  19.814  0.00  0.00    +0.000 A 
ATOM     15  C   UNL     1       1.783   6.288  20.782  0.00  0.00    +0.000 A 
ATOM     16  C   UNL     1       1.509   7.643  20.544  0.00  0.00    +0.000 A 
ATOM     17  C   UNL     1       1.864   8.202  19.310  0.00  0.00    +0.000 A 
ATOM     18  C   UNL     1       2.468   7.415  18.330  0.00  0.00    +0.000 A 
BRANCH  16  19
ATOM     19  N   UNL     1       0.864   8.447  21.527  0.00  0.00    +0.000 N 
ATOM     20  C   UNL     1      -0.490   8.638  21.703  0.00  0.00    +0.000 A 
ATOM     21  C   UNL     1      -0.621   9.500  22.768  0.00  0.00    +0.000 A 
ATOM     22  N   UNL     1       0.598   9.853  23.264  0.00  0.00    +0.000 NA
ATOM     23  C   UNL     1       1.464   9.209  22.511  0.00  0.00    +0.000 A 
ENDBRANCH  16  19
ENDBRANCH   2  13
TORSDOF 2
ENDMDL
MODEL 6
REMARK VINA RESULT:      -7.4      1.655      1.884
REMARK  Name = 
REMARK  2 active torsions:
REMARK  status: ('A' for Active; 'I' for Inactive)
REMARK    1  A    between atoms: C_2  and  C_3
REMARK    2  A    between atoms: C_6  and  N_7
REMARK                            x       y       z     vdW  Elec       q    Type
REMARK                         _______ _______ _______ _____ _____    ______ ____
ROOT
ATOM      1  O   UNL     1       3.406   7.186  17.531  0.00  0.00    +0.000 OA
ATOM      2  C   UNL     1       2.943   6.814  18.606  0.00  0.00    +0.000 C 
ATOM      3  N   UNL     1       3.181   5.544  19.152  0.00  0.00    +0.000 N 
ATOM      4  C   UNL     1       4.163   4.675  18.491  0.00  0.00    +0.000 C 
ATOM      5  C   UNL     1       3.736   3.195  18.405  0.00  0.00    +0.000 C 
ATOM      6  C   UNL     1       2.598   2.969  17.395  0.00  0.00    +0.000 C 
ATOM      7  N   UNL     1       1.357   3.647  17.763  0.00  0.00    +0.000 NA
ATOM      8  C   UNL     1       0.939   3.388  19.138  0.00  0.00    +0.000 C 
ATOM      9  C   UNL     1       2.069   3.533  20.177  0.00  0.00    +0.000 C 
ATOM     10  C   UNL     1       3.278   2.697  19.776  0.00  0.00    +0.000 C 
ATOM     11  C   UNL     1       2.510   4.992  20.333  0.00  0.00    +0.000 C 
ATOM     12  H   UNL     1       0.615   3.409  17.107  0.00  0.00    +0.000 HD
ENDROOT
BRANCH   2  13
ATOM     13  C   UNL     1       2.100   7.789  19.352  0.00  0.00    +0.000 A 
ATOM     14  C   UNL     1       1.613   8.923  18.696  0.00  0.00    +0.000 A 
ATOM     15  C   UNL     1       0.790   9.837  19.377  0.00  0.00    +0.000 A 
ATOM     16  C   UNL     1       0.432   9.609  20.713  0.00  0.00    +0.000 A 
ATOM     17  C   UNL     1       0.949   8.487  21.373  0.00  0.00    +0.000 A 
ATOM     18  C   UNL     1       1.817   7.619  20.710  0.00  0.00    +0.000 A 
BRANCH  16  19
ATOM     19  N   UNL     1      -0.429  10.505  21.408  0.00  0.00    +0.000 N 
ATOM     20  C   UNL     1      -1.111  11.587  20.892  0.00  0.00    +0.000 A 
ATOM     21  C   UNL     1      -1.798  12.144  21.946  0.00  0.00    +0.000 A 
ATOM     22  N   UNL     1      -1.573  11.452  23.098  0.00  0.00    +0.000 NA
ATOM     23  C   UNL     1      -0.759  10.479  22.749  0.00  0.00    +0.000 A 
ENDBRANCH  16  19
ENDBRANCH   2  13
TORSDOF 2
ENDMDL
MODEL 7
REMARK VINA RESULT:      -7.4      1.545      1.982
REMARK  Name = 
REMARK  2 active torsions:
REMARK  status: ('A' for Active; 'I' for Inactive)
REMARK    1  A    between atoms: C_2  and  C_3
REMARK    2  A    between atoms: C_6  and  N_7
REMARK                            x       y       z     vdW  Elec       q    Type
REMARK                         _______ _______ _______ _____ _____    ______ ____
ROOT
ATOM      1  O   UNL     1       3.557   6.934  17.615  0.00  0.00    +0.000 OA
ATOM      2  C   UNL     1       3.050   6.580  18.678  0.00  0.00    +0.000 C 
ATOM      3  N   UNL     1       3.266   5.321  19.256  0.00  0.00    +0.000 N 
ATOM      4  C   UNL     1       4.273   4.441  18.651  0.00  0.00    +0.000 C 
ATOM      5  C   UNL     1       3.850   2.959  18.575  0.00  0.00    +0.000 C 
ATOM      6  C   UNL     1       2.754   2.714  17.524  0.00  0.00    +0.000 C 
ATOM      7  N   UNL     1       1.499   3.399  17.828  0.00  0.00    +0.000 NA
ATOM      8  C   UNL     1       1.025   3.164  19.189  0.00  0.00    +0.000 C 
ATOM      9  C   UNL     1       2.112   3.329  20.270  0.00  0.00    +0.000 C 
ATOM     10  C   UNL     1       3.336   2.486  19.935  0.00  0.00    +0.000 C 
ATOM     11  C   UNL     1       2.546   4.790  20.418  0.00  0.00    +0.000 C 
ATOM     12  H   UNL     1       0.784   3.148  17.147  0.00  0.00    +0.000 HD
ENDROOT
BRANCH   2  13
ATOM     13  C   UNL     1       2.178   7.568  19.371  0.00  0.00    +0.000 A 
ATOM     14  C   UNL     1       1.838   7.366  20.712  0.00  0.00    +0.000 A 
ATOM     15  C   UNL     1       1.042   8.305  21.390  0.00  0.00    +0.000 A 
ATOM     16  C   UNL     1       0.598   9.462  20.735  0.00  0.00    +0.000 A 
ATOM     17  C   UNL     1       0.916   9.642  19.383  0.00  0.00    +0.000 A 
ATOM     18  C   UNL     1       1.652   8.675  18.700  0.00  0.00    +0.000 A 
BRANCH  16  19
ATOM     19  N   UNL     1      -0.181  10.442  21.416  0.00  0.00    +0.000 N 
ATOM     20  C   UNL     1      -0.559  10.443  22.742  0.00  0.00    +0.000 A 
ATOM     21  C   UNL     1      -1.305  11.585  22.926  0.00  0.00    +0.000 A 
ATOM     22  N   UNL     1      -1.406  12.295  21.768  0.00  0.00    +0.000 NA
ATOM     23  C   UNL     1      -0.724  11.596  20.887  0.00  0.00    +0.000 A 
ENDBRANCH  16  19
ENDBRANCH   2  13
TORSDOF 2
ENDMDL
MODEL 8
REMARK VINA RESULT:      -7.3      2.857      4.139
REMARK  Name = 
REMARK  2 active torsions:
REMARK  status: ('A' for Active; 'I' for Inactive)
REMARK    1  A    between atoms: C_2  and  C_3
REMARK    2  A    between atoms: C_6  and  N_7
REMARK                            x       y       z     vdW  Elec       q    Type
REMARK                         _______ _______ _______ _____ _____    ______ ____
ROOT
ATOM      1  O   UNL     1       2.670   4.671  17.524  0.00  0.00    +0.000 OA
ATOM      2  C   UNL     1       3.263   5.732  17.707  0.00  0.00    +0.000 C 
ATOM      3  N   UNL     1       4.483   6.051  17.095  0.00  0.00    +0.000 N 
ATOM      4  C   UNL     1       4.999   5.148  16.059  0.00  0.00    +0.000 C 
ATOM      5  C   UNL     1       6.520   4.902  16.138  0.00  0.00    +0.000 C 
ATOM      6  C   UNL     1       6.914   4.027  17.340  0.00  0.00    +0.000 C 
ATOM      7  N   UNL     1       6.614   4.648  18.629  0.00  0.00    +0.000 NA
ATOM      8  C   UNL     1       7.119   6.013  18.746  0.00  0.00    +0.000 C 
ATOM      9  C   UNL     1       6.810   6.906  17.528  0.00  0.00    +0.000 C 
ATOM     10  C   UNL     1       7.265   6.233  16.239  0.00  0.00    +0.000 C 
ATOM     11  C   UNL     1       5.313   7.215  17.420  0.00  0.00    +0.000 C 
ATOM     12  H   UNL     1       6.958   4.067  19.391  0.00  0.00    +0.000 HD
ENDROOT
BRANCH   2  13
ATOM     13  C   UNL     1       2.620   6.716  18.622  0.00  0.00    +0.000 A 
ATOM     14  C   UNL     1       2.256   7.975  18.134  0.00  0.00    +0.000 A 
ATOM     15  C   UNL     1       1.620   8.904  18.976  0.00  0.00    +0.000 A 
ATOM     16  C   UNL     1       1.325   8.569  20.305  0.00  0.00    +0.000 A 
ATOM     17  C   UNL     1       1.719   7.318  20.794  0.00  0.00    +0.000 A 
ATOM     18  C   UNL     1       2.408   6.427  19.972  0.00  0.00    +0.000 A 
BRANCH  16  19
ATOM     19  N   UNL     1       0.649   9.485  21.162  0.00  0.00    +0.000 N 
ATOM     20  C   UNL     1      -0.210   9.189  22.199  0.00  0.00    +0.000 A 
ATOM     21  C   UNL     1      -0.613  10.398  22.719  0.00  0.00    +0.000 A 
ATOM     22  N   UNL     1      -0.037  11.435  22.048  0.00  0.00    +0.000 NA
ATOM     23  C   UNL     1       0.712  10.864  21.131  0.00  0.00    +0.000 A 
ENDBRANCH  16  19
ENDBRANCH   2  13
TORSDOF 2
ENDMDL
MODEL 9
REMARK VINA RESULT:      -7.2      2.735      4.131
REMARK  Name = 
REMARK  2 active torsions:
REMARK  status: ('A' for Active; 'I' for Inactive)
REMARK    1  A    between atoms: C_2  and  C_3
REMARK    2  A    between atoms: C_6  and  N_7
REMARK                            x       y       z     vdW  Elec       q    Type
REMARK                         _______ _______ _______ _____ _____    ______ ____
ROOT
ATOM      1  O   UNL     1       2.782   4.395  18.052  0.00  0.00    +0.000 OA
ATOM      2  C   UNL     1       3.279   5.511  17.917  0.00  0.00    +0.000 C 
ATOM      3  N   UNL     1       4.417   5.761  17.138  0.00  0.00    +0.000 N 
ATOM      4  C   UNL     1       4.947   4.670  16.310  0.00  0.00    +0.000 C 
ATOM      5  C   UNL     1       6.487   4.572  16.308  0.00  0.00    +0.000 C 
ATOM      6  C   UNL     1       7.046   4.060  17.647  0.00  0.00    +0.000 C 
ATOM      7  N   UNL     1       6.775   4.959  18.767  0.00  0.00    +0.000 NA
ATOM      8  C   UNL     1       7.151   6.345  18.502  0.00  0.00    +0.000 C 
ATOM      9  C   UNL     1       6.672   6.877  17.137  0.00  0.00    +0.000 C 
ATOM     10  C   UNL     1       7.103   5.940  16.014  0.00  0.00    +0.000 C 
ATOM     11  C   UNL     1       5.149   7.031  17.093  0.00  0.00    +0.000 C 
ATOM     12  H   UNL     1       7.226   4.616  19.613  0.00  0.00    +0.000 HD
ENDROOT
BRANCH   2  13
ATOM     13  C   UNL     1       2.606   6.639  18.619  0.00  0.00    +0.000 A 
ATOM     14  C   UNL     1       2.288   6.516  19.975  0.00  0.00    +0.000 A 
ATOM     15  C   UNL     1       1.682   7.583  20.660  0.00  0.00    +0.000 A 
ATOM     16  C   UNL     1       1.409   8.788  19.996  0.00  0.00    +0.000 A 
ATOM     17  C   UNL     1       1.703   8.893  18.631  0.00  0.00    +0.000 A 
ATOM     18  C   UNL     1       2.244   7.807  17.943  0.00  0.00    +0.000 A 
BRANCH  16  19
ATOM     19  N   UNL     1       0.827   9.892  20.683  0.00  0.00    +0.000 N 
ATOM     20  C   UNL     1       0.573  11.153  20.186  0.00  0.00    +0.000 A 
ATOM     21  C   UNL     1       0.018  11.868  21.222  0.00  0.00    +0.000 A 
ATOM     22  N   UNL     1      -0.086  11.102  22.345  0.00  0.00    +0.000 NA
ATOM     23  C   UNL     1       0.398   9.930  21.995  0.00  0.00    +0.000 A 
ENDBRANCH  16  19
ENDBRANCH   2  13
TORSDOF 2
ENDMDL
