MODEL 1
REMARK VINA RESULT:      -7.5      0.000      0.000
REMARK  Name = 
REMARK  7 active torsions:
REMARK  status: ('A' for Active; 'I' for Inactive)
REMARK    1  A    between atoms: C_1  and  O_2
REMARK    2  A    between atoms: O_2  and  C_3
REMARK    3  A    between atoms: C_3  and  C_5
REMARK    4  A    between atoms: C_7  and  S_8
REMARK    5  A    between atoms: S_8  and  N_11
REMARK    6  A    between atoms: N_11  and  C_12
REMARK    7  A    between atoms: C_18  and  C_19
REMARK                            x       y       z     vdW  Elec       q    Type
REMARK                         _______ _______ _______ _____ _____    ______ ____
ROOT
ATOM      1  S   UNL     1       5.754   4.883  19.098  0.00  0.00    +0.000 S 
ATOM      2  O   UNL     1       6.871   5.043  20.008  0.00  0.00    +0.000 OA
ATOM      3  O   UNL     1       4.607   5.767  19.163  0.00  0.00    +0.000 OA
ENDROOT
BRANCH   1   6
ATOM      4  C   UNL     1       6.864   5.087  15.318  0.00  0.00    +0.000 A 
ATOM      5  C   UNL     1       6.133   4.484  16.332  0.00  0.00    +0.000 A 
ATOM      6  C   UNL     1       6.432   5.178  17.538  0.00  0.00    +0.000 A 
ATOM      7  C   UNL     1       7.320   6.186  17.226  0.00  0.00    +0.000 A 
ATOM      8  N   UNL     1       7.582   6.112  15.889  0.00  0.00    +0.000 N 
ATOM      9  H   UNL     1       8.188   6.736  15.369  0.00  0.00    +0.000 HD
BRANCH   4  10
ATOM     10  C   UNL     1       6.944   4.824  13.898  0.00  0.00    +0.000 C 
ATOM     11  O   UNL     1       7.754   5.350  13.152  0.00  0.00    +0.000 OA
BRANCH  10  13
ATOM     12  C   UNL     1       6.278   3.276  12.282  0.00  0.00    +0.000 C 
ATOM     13  O   UNL     1       5.999   3.919  13.525  0.00  0.00    +0.000 OA
ENDBRANCH  10  13
ENDBRANCH   4  10
ENDBRANCH   1   6
BRANCH   1  14
ATOM     14  N   UNL     1       5.236   3.267  19.243  0.00  0.00    +0.000 N 
ATOM     15  H   UNL     1       5.958   2.752  19.751  0.00  0.00    +0.000 HD
BRANCH  14  16
ATOM     16  C   UNL     1       3.898   3.033  19.717  0.00  0.00    +0.000 A 
ATOM     17  C   UNL     1       3.729   2.955  21.107  0.00  0.00    +0.000 A 
ATOM     18  C   UNL     1       2.482   2.668  21.660  0.00  0.00    +0.000 A 
ATOM     19  C   UNL     1       1.386   2.475  20.827  0.00  0.00    +0.000 A 
ATOM     20  C   UNL     1       1.537   2.571  19.442  0.00  0.00    +0.000 A 
ATOM     21 CL   UNL     1       0.103   2.335  18.499  0.00  0.00    +0.000 Cl
ATOM     22  C   UNL     1       2.796   2.829  18.857  0.00  0.00    +0.000 A 
ATOM     23  C   UNL     1       2.931   2.920  17.362  0.00  0.00    +0.000 C 
ENDBRANCH  14  16
ENDBRANCH   1  14
TORSDOF 5
ENDMDL
MODEL 2
REMARK VINA RESULT:      -7.4      3.061      3.479
REMARK  Name = 
REMARK  7 active torsions:
REMARK  status: ('A' for Active; 'I' for Inactive)
REMARK    1  A    between atoms: C_1  and  O_2
REMARK    2  A    between atoms: O_2  and  C_3
REMARK    3  A    between atoms: C_3  and  C_5
REMARK    4  A    between atoms: C_7  and  S_8
REMARK    5  A    between atoms: S_8  and  N_11
REMARK    6  A    between atoms: N_11  and  C_12
REMARK    7  A    between atoms: C_18  and  C_19
REMARK                            x       y       z     vdW  Elec       q    Type
REMARK                         _______ _______ _______ _____ _____    ______ ____
ROOT
ATOM      1  S   UNL     1       4.979   4.361  18.931  0.00  0.00    +0.000 S 
ATOM      2  O   UNL     1       5.059   2.988  19.389  0.00  0.00    +0.000 OA
ATOM      3  O   UNL     1       5.468   5.451  19.753  0.00  0.00    +0.000 OA
ENDROOT
BRANCH   1   6
ATOM      4  C   UNL     1       6.694   4.438  15.378  0.00  0.00    +0.000 A 
ATOM      5  C   UNL     1       5.562   4.305  16.172  0.00  0.00    +0.000 A 
ATOM      6  C   UNL     1       5.984   4.400  17.528  0.00  0.00    +0.000 A 
ATOM      7  C   UNL     1       7.348   4.601  17.524  0.00  0.00    +0.000 A 
ATOM      8  N   UNL     1       7.765   4.608  16.224  0.00  0.00    +0.000 N 
ATOM      9  H   UNL     1       8.717   4.752  15.908  0.00  0.00    +0.000 HD
BRANCH   4  10
ATOM     10  C   UNL     1       6.871   4.442  13.943  0.00  0.00    +0.000 C 
ATOM     11  O   UNL     1       7.434   5.334  13.329  0.00  0.00    +0.000 OA
BRANCH  10  13
ATOM     12  C   UNL     1       5.478   3.592  12.273  0.00  0.00    +0.000 C 
ATOM     13  O   UNL     1       6.326   3.325  13.390  0.00  0.00    +0.000 OA
ENDBRANCH  10  13
ENDBRANCH   4  10
ENDBRANCH   1   6
BRANCH   1  14
ATOM     14  N   UNL     1       3.349   4.644  18.523  0.00  0.00    +0.000 N 
ATOM     15  H   UNL     1       2.789   3.898  18.940  0.00  0.00    +0.000 HD
BRANCH  14  16
ATOM     16  C   UNL     1       2.826   5.967  18.736  0.00  0.00    +0.000 A 
ATOM     17  C   UNL     1       3.076   6.911  17.730  0.00  0.00    +0.000 A 
ATOM     18  C   UNL     1       2.665   8.236  17.875  0.00  0.00    +0.000 A 
ATOM     19  C   UNL     1       1.983   8.624  19.022  0.00  0.00    +0.000 A 
ATOM     20  C   UNL     1       1.709   7.689  20.022  0.00  0.00    +0.000 A 
ATOM     21 CL   UNL     1       0.834   8.274  21.396  0.00  0.00    +0.000 Cl
ATOM     22  C   UNL     1       2.143   6.350  19.912  0.00  0.00    +0.000 A 
ATOM     23  C   UNL     1       1.840   5.365  21.007  0.00  0.00    +0.000 C 
ENDBRANCH  14  16
ENDBRANCH   1  14
TORSDOF 5
ENDMDL
MODEL 3
REMARK VINA RESULT:      -7.2      1.116      1.217
REMARK  Name = 
REMARK  7 active torsions:
REMARK  status: ('A' for Active; 'I' for Inactive)
REMARK    1  A    between atoms: C_1  and  O_2
REMARK    2  A    between atoms: O_2  and  C_3
REMARK    3  A    between atoms: C_3  and  C_5
REMARK    4  A    between atoms: C_7  and  S_8
REMARK    5  A    between atoms: S_8  and  N_11
REMARK    6  A    between atoms: N_11  and  C_12
REMARK    7  A    between atoms: C_18  and  C_19
REMARK                            x       y       z     vdW  Elec       q    Type
REMARK                         _______ _______ _______ _____ _____    ______ ____
ROOT
ATOM      1  S   UNL     1       5.643   4.833  19.207  0.00  0.00    +0.000 S 
ATOM      2  O   UNL     1       5.477   3.393  19.181  0.00  0.00    +0.000 OA
ATOM      3  O   UNL     1       6.679   5.449  20.014  0.00  0.00    +0.000 OA
ENDROOT
BRANCH   1   6
ATOM      4  C   UNL     1       6.601   5.094  15.389  0.00  0.00    +0.000 A 
ATOM      5  C   UNL     1       6.372   4.335  16.528  0.00  0.00    +0.000 A 
ATOM      6  C   UNL     1       6.068   5.240  17.584  0.00  0.00    +0.000 A 
ATOM      7  C   UNL     1       6.106   6.515  17.060  0.00  0.00    +0.000 A 
ATOM      8  N   UNL     1       6.441   6.414  15.741  0.00  0.00    +0.000 N 
ATOM      9  H   UNL     1       6.529   7.187  15.091  0.00  0.00    +0.000 HD
BRANCH   4  10
ATOM     10  C   UNL     1       6.926   4.721  14.030  0.00  0.00    +0.000 C 
ATOM     11  O   UNL     1       7.584   5.415  13.272  0.00  0.00    +0.000 OA
BRANCH  10  13
ATOM     12  C   UNL     1       5.927   3.398  12.386  0.00  0.00    +0.000 C 
ATOM     13  O   UNL     1       6.399   3.503  13.729  0.00  0.00    +0.000 OA
ENDBRANCH  10  13
ENDBRANCH   4  10
ENDBRANCH   1   6
BRANCH   1  14
ATOM     14  N   UNL     1       4.129   5.491  19.626  0.00  0.00    +0.000 N 
ATOM     15  H   UNL     1       3.871   6.164  18.901  0.00  0.00    +0.000 HD
BRANCH  14  16
ATOM     16  C   UNL     1       3.079   4.578  19.987  0.00  0.00    +0.000 A 
ATOM     17  C   UNL     1       2.914   4.319  21.355  0.00  0.00    +0.000 A 
ATOM     18  C   UNL     1       1.966   3.399  21.800  0.00  0.00    +0.000 A 
ATOM     19  C   UNL     1       1.159   2.742  20.878  0.00  0.00    +0.000 A 
ATOM     20  C   UNL     1       1.298   3.005  19.515  0.00  0.00    +0.000 A 
ATOM     21 CL   UNL     1       0.227   2.149  18.457  0.00  0.00    +0.000 Cl
ATOM     22  C   UNL     1       2.273   3.909  19.038  0.00  0.00    +0.000 A 
ATOM     23  C   UNL     1       2.406   4.169  17.563  0.00  0.00    +0.000 C 
ENDBRANCH  14  16
ENDBRANCH   1  14
TORSDOF 5
ENDMDL
MODEL 4
REMARK VINA RESULT:      -7.2      1.682      2.212
REMARK  Name = 
REMARK  7 active torsions:
REMARK  status: ('A' for Active; 'I' for Inactive)
REMARK    1  A    between atoms: C_1  and  O_2
REMARK    2  A    between atoms: O_2  and  C_3
REMARK    3  A    between atoms: C_3  and  C_5
REMARK    4  A    between atoms: C_7  and  S_8
REMARK    5  A    between atoms: S_8  and  N_11
REMARK    6  A    between atoms: N_11  and  C_12
REMARK    7  A    between atoms: C_18  and  C_19
REMARK                            x       y       z     vdW  Elec       q    Type
REMARK                         _______ _______ _______ _____ _____    ______ ____
ROOT
ATOM      1  S   UNL     1       4.750   6.125  17.902  0.00  0.00    +0.000 S 
ATOM      2  O   UNL     1       5.216   5.567  19.156  0.00  0.00    +0.000 OA
ATOM      3  O   UNL     1       4.801   7.553  17.656  0.00  0.00    +0.000 OA
ENDROOT
BRANCH   1   6
ATOM      4  C   UNL     1       6.763   4.879  14.745  0.00  0.00    +0.000 A 
ATOM      5  C   UNL     1       5.651   5.494  15.305  0.00  0.00    +0.000 A 
ATOM      6  C   UNL     1       5.812   5.451  16.718  0.00  0.00    +0.000 A 
ATOM      7  C   UNL     1       7.013   4.828  16.980  0.00  0.00    +0.000 A 
ATOM      8  N   UNL     1       7.570   4.477  15.784  0.00  0.00    +0.000 N 
ATOM      9  H   UNL     1       8.464   4.017  15.659  0.00  0.00    +0.000 HD
BRANCH   4  10
ATOM     10  C   UNL     1       7.151   4.651  13.370  0.00  0.00    +0.000 C 
ATOM     11  O   UNL     1       7.812   5.436  12.711  0.00  0.00    +0.000 OA
BRANCH  10  13
ATOM     12  C   UNL     1       5.440   3.551  12.225  0.00  0.00    +0.000 C 
ATOM     13  O   UNL     1       6.676   3.454  12.932  0.00  0.00    +0.000 OA
ENDBRANCH  10  13
ENDBRANCH   4  10
ENDBRANCH   1   6
BRANCH   1  14
ATOM     14  N   UNL     1       3.156   5.566  17.681  0.00  0.00    +0.000 N 
ATOM     15  H   UNL     1       2.939   5.629  16.685  0.00  0.00    +0.000 HD
BRANCH  14  16
ATOM     16  C   UNL     1       2.797   4.313  18.288  0.00  0.00    +0.000 A 
ATOM     17  C   UNL     1       3.005   3.160  17.518  0.00  0.00    +0.000 A 
ATOM     18  C   UNL     1       2.628   1.904  17.994  0.00  0.00    +0.000 A 
ATOM     19  C   UNL     1       2.056   1.790  19.255  0.00  0.00    +0.000 A 
ATOM     20  C   UNL     1       1.862   2.927  20.041  0.00  0.00    +0.000 A 
ATOM     21 CL   UNL     1       1.163   2.667  21.604  0.00  0.00    +0.000 Cl
ATOM     22  C   UNL     1       2.206   4.213  19.568  0.00  0.00    +0.000 A 
ATOM     23  C   UNL     1       1.980   5.422  20.432  0.00  0.00    +0.000 C 
ENDBRANCH  14  16
ENDBRANCH   1  14
TORSDOF 5
ENDMDL
MODEL 5
REMARK VINA RESULT:      -7.1      2.889      4.338
REMARK  Name = 
REMARK  7 active torsions:
REMARK  status: ('A' for Active; 'I' for Inactive)
REMARK    1  A    between atoms: C_1  and  O_2
REMARK    2  A    between atoms: O_2  and  C_3
REMARK    3  A    between atoms: C_3  and  C_5
REMARK    4  A    between atoms: C_7  and  S_8
REMARK    5  A    between atoms: S_8  and  N_11
REMARK    6  A    between atoms: N_11  and  C_12
REMARK    7  A    between atoms: C_18  and  C_19
REMARK                            x       y       z     vdW  Elec       q    Type
REMARK                         _______ _______ _______ _____ _____    ______ ____
ROOT
ATOM      1  S   UNL     1       6.074   4.849  17.172  0.00  0.00    +0.000 S 
ATOM      2  O   UNL     1       4.917   5.541  16.639  0.00  0.00    +0.000 OA
ATOM      3  O   UNL     1       6.958   4.096  16.303  0.00  0.00    +0.000 OA
ENDROOT
BRANCH   1   6
ATOM      4  C   UNL     1       8.012   8.132  18.188  0.00  0.00    +0.000 A 
ATOM      5  C   UNL     1       7.117   7.462  17.365  0.00  0.00    +0.000 A 
ATOM      6  C   UNL     1       7.070   6.110  17.805  0.00  0.00    +0.000 A 
ATOM      7  C   UNL     1       7.919   5.995  18.885  0.00  0.00    +0.000 A 
ATOM      8  N   UNL     1       8.490   7.217  19.097  0.00  0.00    +0.000 N 
ATOM      9  H   UNL     1       9.147   7.444  19.835  0.00  0.00    +0.000 HD
BRANCH   4  10
ATOM     10  C   UNL     1       8.441   9.513  18.226  0.00  0.00    +0.000 C 
ATOM     11  O   UNL     1       8.056  10.367  17.445  0.00  0.00    +0.000 OA
BRANCH  10  13
ATOM     12  C   UNL     1       9.945  10.996  19.220  0.00  0.00    +0.000 C 
ATOM     13  O   UNL     1       9.322   9.712  19.243  0.00  0.00    +0.000 OA
ENDBRANCH  10  13
ENDBRANCH   4  10
ENDBRANCH   1   6
BRANCH   1  14
ATOM     14  N   UNL     1       5.505   3.836  18.418  0.00  0.00    +0.000 N 
ATOM     15  H   UNL     1       6.203   3.839  19.165  0.00  0.00    +0.000 HD
BRANCH  14  16
ATOM     16  C   UNL     1       4.153   4.027  18.870  0.00  0.00    +0.000 A 
ATOM     17  C   UNL     1       3.900   5.179  19.627  0.00  0.00    +0.000 A 
ATOM     18  C   UNL     1       2.636   5.419  20.164  0.00  0.00    +0.000 A 
ATOM     19  C   UNL     1       1.606   4.515  19.931  0.00  0.00    +0.000 A 
ATOM     20  C   UNL     1       1.839   3.374  19.162  0.00  0.00    +0.000 A 
ATOM     21 CL   UNL     1       0.481   2.327  18.916  0.00  0.00    +0.000 Cl
ATOM     22  C   UNL     1       3.118   3.093  18.635  0.00  0.00    +0.000 A 
ATOM     23  C   UNL     1       3.343   1.853  17.815  0.00  0.00    +0.000 C 
ENDBRANCH  14  16
ENDBRANCH   1  14
TORSDOF 5
ENDMDL
MODEL 6
REMARK VINA RESULT:      -7.1      1.682      1.828
REMARK  Name = 
REMARK  7 active torsions:
REMARK  status: ('A' for Active; 'I' for Inactive)
REMARK    1  A    between atoms: C_1  and  O_2
REMARK    2  A    between atoms: O_2  and  C_3
REMARK    3  A    between atoms: C_3  and  C_5
REMARK    4  A    between atoms: C_7  and  S_8
REMARK    5  A    between atoms: S_8  and  N_11
REMARK    6  A    between atoms: N_11  and  C_12
REMARK    7  A    between atoms: C_18  and  C_19
REMARK                            x       y       z     vdW  Elec       q    Type
REMARK                         _______ _______ _______ _____ _____    ______ ____
ROOT
ATOM      1  S   UNL     1       5.632   5.126  18.075  0.00  0.00    +0.000 S 
ATOM      2  O   UNL     1       5.562   3.825  18.711  0.00  0.00    +0.000 OA
ATOM      3  O   UNL     1       6.536   6.149  18.566  0.00  0.00    +0.000 OA
ENDROOT
BRANCH   1   6
ATOM      4  C   UNL     1       6.274   4.196  14.295  0.00  0.00    +0.000 A 
ATOM      5  C   UNL     1       5.439   4.245  15.403  0.00  0.00    +0.000 A 
ATOM      6  C   UNL     1       6.196   4.789  16.478  0.00  0.00    +0.000 A 
ATOM      7  C   UNL     1       7.457   5.069  15.997  0.00  0.00    +0.000 A 
ATOM      8  N   UNL     1       7.495   4.695  14.685  0.00  0.00    +0.000 N 
ATOM      9  H   UNL     1       8.289   4.795  14.063  0.00  0.00    +0.000 HD
BRANCH   4  10
ATOM     10  C   UNL     1       6.048   3.761  12.934  0.00  0.00    +0.000 C 
ATOM     11  O   UNL     1       6.941   3.497  12.146  0.00  0.00    +0.000 OA
BRANCH  10  13
ATOM     12  C   UNL     1       4.410   3.081  11.416  0.00  0.00    +0.000 C 
ATOM     13  O   UNL     1       4.715   3.692  12.670  0.00  0.00    +0.000 OA
ENDBRANCH  10  13
ENDBRANCH   4  10
ENDBRANCH   1   6
BRANCH   1  14
ATOM     14  N   UNL     1       4.043   5.740  18.045  0.00  0.00    +0.000 N 
ATOM     15  H   UNL     1       3.773   5.859  17.067  0.00  0.00    +0.000 HD
BRANCH  14  16
ATOM     16  C   UNL     1       3.056   5.079  18.856  0.00  0.00    +0.000 A 
ATOM     17  C   UNL     1       2.885   5.566  20.160  0.00  0.00    +0.000 A 
ATOM     18  C   UNL     1       1.998   4.951  21.042  0.00  0.00    +0.000 A 
ATOM     19  C   UNL     1       1.258   3.853  20.621  0.00  0.00    +0.000 A 
ATOM     20  C   UNL     1       1.403   3.371  19.319  0.00  0.00    +0.000 A 
ATOM     21 CL   UNL     1       0.416   2.013  18.892  0.00  0.00    +0.000 Cl
ATOM     22  C   UNL     1       2.318   3.957  18.417  0.00  0.00    +0.000 A 
ATOM     23  C   UNL     1       2.458   3.414  17.022  0.00  0.00    +0.000 C 
ENDBRANCH  14  16
ENDBRANCH   1  14
TORSDOF 5
ENDMDL
MODEL 7
REMARK VINA RESULT:      -7.1      1.546      2.270
REMARK  Name = 
REMARK  7 active torsions:
REMARK  status: ('A' for Active; 'I' for Inactive)
REMARK    1  A    between atoms: C_1  and  O_2
REMARK    2  A    between atoms: O_2  and  C_3
REMARK    3  A    between atoms: C_3  and  C_5
REMARK    4  A    between atoms: C_7  and  S_8
REMARK    5  A    between atoms: S_8  and  N_11
REMARK    6  A    between atoms: N_11  and  C_12
REMARK    7  A    between atoms: C_18  and  C_19
REMARK                            x       y       z     vdW  Elec       q    Type
REMARK                         _______ _______ _______ _____ _____    ______ ____
ROOT
ATOM      1  S   UNL     1       6.256   4.636  17.848  0.00  0.00    +0.000 S 
ATOM      2  O   UNL     1       7.594   4.535  18.395  0.00  0.00    +0.000 OA
ATOM      3  O   UNL     1       5.442   5.814  18.081  0.00  0.00    +0.000 OA
ENDROOT
BRANCH   1   6
ATOM      4  C   UNL     1       6.328   4.088  13.942  0.00  0.00    +0.000 A 
ATOM      5  C   UNL     1       5.905   3.708  15.208  0.00  0.00    +0.000 A 
ATOM      6  C   UNL     1       6.492   4.611  16.138  0.00  0.00    +0.000 A 
ATOM      7  C   UNL     1       7.239   5.520  15.418  0.00  0.00    +0.000 A 
ATOM      8  N   UNL     1       7.142   5.186  14.098  0.00  0.00    +0.000 N 
ATOM      9  H   UNL     1       7.573   5.684  13.328  0.00  0.00    +0.000 HD
BRANCH   4  10
ATOM     10  C   UNL     1       6.039   3.557  12.628  0.00  0.00    +0.000 C 
ATOM     11  O   UNL     1       6.845   2.941  11.950  0.00  0.00    +0.000 OA
BRANCH  10  13
ATOM     12  C   UNL     1       4.235   2.970  11.267  0.00  0.00    +0.000 C 
ATOM     13  O   UNL     1       4.758   3.843  12.268  0.00  0.00    +0.000 OA
ENDBRANCH  10  13
ENDBRANCH   4  10
ENDBRANCH   1   6
BRANCH   1  14
ATOM     14  N   UNL     1       5.411   3.251  18.368  0.00  0.00    +0.000 N 
ATOM     15  H   UNL     1       5.941   2.833  19.136  0.00  0.00    +0.000 HD
BRANCH  14  16
ATOM     16  C   UNL     1       4.002   3.383  18.624  0.00  0.00    +0.000 A 
ATOM     17  C   UNL     1       3.235   3.986  17.617  0.00  0.00    +0.000 A 
ATOM     18  C   UNL     1       1.872   4.216  17.798  0.00  0.00    +0.000 A 
ATOM     19  C   UNL     1       1.259   3.827  18.983  0.00  0.00    +0.000 A 
ATOM     20  C   UNL     1       2.007   3.207  19.986  0.00  0.00    +0.000 A 
ATOM     21 CL   UNL     1       1.140   2.743  21.411  0.00  0.00    +0.000 Cl
ATOM     22  C   UNL     1       3.395   2.992  19.839  0.00  0.00    +0.000 A 
ATOM     23  C   UNL     1       4.178   2.327  20.937  0.00  0.00    +0.000 C 
ENDBRANCH  14  16
ENDBRANCH   1  14
TORSDOF 5
ENDMDL
MODEL 8
REMARK VINA RESULT:      -7.1      3.813      6.554
REMARK  Name = 
REMARK  7 active torsions:
REMARK  status: ('A' for Active; 'I' for Inactive)
REMARK    1  A    between atoms: C_1  and  O_2
REMARK    2  A    between atoms: O_2  and  C_3
REMARK    3  A    between atoms: C_3  and  C_5
REMARK    4  A    between atoms: C_7  and  S_8
REMARK    5  A    between atoms: S_8  and  N_11
REMARK    6  A    between atoms: N_11  and  C_12
REMARK    7  A    between atoms: C_18  and  C_19
REMARK                            x       y       z     vdW  Elec       q    Type
REMARK                         _______ _______ _______ _____ _____    ______ ____
ROOT
ATOM      1  S   UNL     1       2.970   3.106  18.297  0.00  0.00    +0.000 S 
ATOM      2  O   UNL     1       2.644   2.042  19.226  0.00  0.00    +0.000 OA
ATOM      3  O   UNL     1       2.233   3.268  17.059  0.00  0.00    +0.000 OA
ENDROOT
BRANCH   1   6
ATOM      4  C   UNL     1       2.155   6.702  19.702  0.00  0.00    +0.000 A 
ATOM      5  C   UNL     1       2.436   5.854  18.639  0.00  0.00    +0.000 A 
ATOM      6  C   UNL     1       2.645   4.555  19.180  0.00  0.00    +0.000 A 
ATOM      7  C   UNL     1       2.473   4.641  20.545  0.00  0.00    +0.000 A 
ATOM      8  N   UNL     1       2.191   5.941  20.848  0.00  0.00    +0.000 N 
ATOM      9  H   UNL     1       1.999   6.305  21.774  0.00  0.00    +0.000 HD
BRANCH   4  10
ATOM     10  C   UNL     1       1.842   8.113  19.755  0.00  0.00    +0.000 C 
ATOM     11  O   UNL     1       1.392   8.674  20.741  0.00  0.00    +0.000 OA
BRANCH  10  13
ATOM     12  C   UNL     1       1.093   9.595  18.114  0.00  0.00    +0.000 C 
ATOM     13  O   UNL     1       2.118   8.709  18.564  0.00  0.00    +0.000 OA
ENDBRANCH  10  13
ENDBRANCH   4  10
ENDBRANCH   1   6
BRANCH   1  14
ATOM     14  N   UNL     1       4.632   2.960  17.954  0.00  0.00    +0.000 N 
ATOM     15  H   UNL     1       4.794   2.020  17.588  0.00  0.00    +0.000 HD
BRANCH  14  16
ATOM     16  C   UNL     1       5.252   4.008  17.187  0.00  0.00    +0.000 A 
ATOM     17  C   UNL     1       5.117   3.931  15.794  0.00  0.00    +0.000 A 
ATOM     18  C   UNL     1       5.736   4.864  14.963  0.00  0.00    +0.000 A 
ATOM     19  C   UNL     1       6.481   5.895  15.521  0.00  0.00    +0.000 A 
ATOM     20  C   UNL     1       6.606   5.996  16.907  0.00  0.00    +0.000 A 
ATOM     21 CL   UNL     1       7.538   7.332  17.496  0.00  0.00    +0.000 Cl
ATOM     22  C   UNL     1       6.016   5.046  17.768  0.00  0.00    +0.000 A 
ATOM     23  C   UNL     1       6.171   5.174  19.258  0.00  0.00    +0.000 C 
ENDBRANCH  14  16
ENDBRANCH   1  14
TORSDOF 5
ENDMDL
MODEL 9
REMARK VINA RESULT:      -7.0      2.163      2.367
REMARK  Name = 
REMARK  7 active torsions:
REMARK  status: ('A' for Active; 'I' for Inactive)
REMARK    1  A    between atoms: C_1  and  O_2
REMARK    2  A    between atoms: O_2  and  C_3
REMARK    3  A    between atoms: C_3  and  C_5
REMARK    4  A    between atoms: C_7  and  S_8
REMARK    5  A    between atoms: S_8  and  N_11
REMARK    6  A    between atoms: N_11  and  C_12
REMARK    7  A    between atoms: C_18  and  C_19
REMARK                            x       y       z     vdW  Elec       q    Type
REMARK                         _______ _______ _______ _____ _____    ______ ____
ROOT
ATOM      1  S   UNL     1       5.222   6.163  17.544  0.00  0.00    +0.000 S 
ATOM      2  O   UNL     1       5.495   5.438  18.769  0.00  0.00    +0.000 OA
ATOM      3  O   UNL     1       5.950   7.374  17.217  0.00  0.00    +0.000 OA
ENDROOT
BRANCH   1   6
ATOM      4  C   UNL     1       6.134   4.165  14.266  0.00  0.00    +0.000 A 
ATOM      5  C   UNL     1       5.682   5.319  14.893  0.00  0.00    +0.000 A 
ATOM      6  C   UNL     1       5.651   5.055  16.291  0.00  0.00    +0.000 A 
ATOM      7  C   UNL     1       6.094   3.764  16.479  0.00  0.00    +0.000 A 
ATOM      8  N   UNL     1       6.369   3.234  15.251  0.00  0.00    +0.000 N 
ATOM      9  H   UNL     1       6.729   2.304  15.074  0.00  0.00    +0.000 HD
BRANCH   4  10
ATOM     10  C   UNL     1       6.383   3.856  12.876  0.00  0.00    +0.000 C 
ATOM     11  O   UNL     1       7.228   4.415  12.195  0.00  0.00    +0.000 OA
BRANCH  10  13
ATOM     12  C   UNL     1       4.514   3.327  11.581  0.00  0.00    +0.000 C 
ATOM     13  O   UNL     1       5.550   2.869  12.448  0.00  0.00    +0.000 OA
ENDBRANCH  10  13
ENDBRANCH   4  10
ENDBRANCH   1   6
BRANCH   1  14
ATOM     14  N   UNL     1       3.549   6.484  17.530  0.00  0.00    +0.000 N 
ATOM     15  H   UNL     1       3.226   6.411  16.563  0.00  0.00    +0.000 HD
BRANCH  14  16
ATOM     16  C   UNL     1       2.727   5.790  18.484  0.00  0.00    +0.000 A 
ATOM     17  C   UNL     1       2.473   6.452  19.694  0.00  0.00    +0.000 A 
ATOM     18  C   UNL     1       1.740   5.834  20.706  0.00  0.00    +0.000 A 
ATOM     19  C   UNL     1       1.237   4.554  20.509  0.00  0.00    +0.000 A 
ATOM     20  C   UNL     1       1.464   3.892  19.301  0.00  0.00    +0.000 A 
ATOM     21 CL   UNL     1       0.773   2.311  19.154  0.00  0.00    +0.000 Cl
ATOM     22  C   UNL     1       2.231   4.484  18.274  0.00  0.00    +0.000 A 
ATOM     23  C   UNL     1       2.466   3.746  16.985  0.00  0.00    +0.000 C 
ENDBRANCH  14  16
ENDBRANCH   1  14
TORSDOF 5
ENDMDL
