MODEL 1
REMARK VINA RESULT:      -8.7      0.000      0.000
REMARK  Name = 
REMARK  6 active torsions:
REMARK  status: ('A' for Active; 'I' for Inactive)
REMARK    1  A    between atoms: C_1  and  O_2
REMARK    2  A    between atoms: O_2  and  C_3
REMARK    3  A    between atoms: C_12  and  O_13
REMARK    4  A    between atoms: O_13  and  C_14
REMARK    5  A    between atoms: C_14  and  C_15
REMARK    6  A    between atoms: C_15  and  N_16
REMARK                            x       y       z     vdW  Elec       q    Type
REMARK                         _______ _______ _______ _____ _____    ______ ____
ROOT
ATOM      1  C   UNL     1      -1.221  11.664  22.391  0.00  0.00    +0.000 A 
ATOM      2  C   UNL     1      -1.079  10.613  23.299  0.00  0.00    +0.000 A 
ATOM      3  C   UNL     1      -0.387   9.459  22.987  0.00  0.00    +0.000 A 
ATOM      4  C   UNL     1       0.226   9.374  21.743  0.00  0.00    +0.000 A 
ATOM      5  C   UNL     1       0.856   8.194  21.405  0.00  0.00    +0.000 A 
ATOM      6  C   UNL     1       1.503   8.064  20.175  0.00  0.00    +0.000 A 
ATOM      7  N   UNL     1       1.517   9.131  19.321  0.00  0.00    +0.000 N 
ATOM      8  C   UNL     1       0.896  10.284  19.638  0.00  0.00    +0.000 A 
ATOM      9  C   UNL     1       0.193  10.451  20.843  0.00  0.00    +0.000 A 
ATOM     10  C   UNL     1      -0.509  11.630  21.170  0.00  0.00    +0.000 A 
ATOM     11  C   UNL     1       2.289   9.090  18.056  0.00  0.00    +0.000 C 
ATOM     12  C   UNL     1       2.171   7.731  17.389  0.00  0.00    +0.000 C 
ATOM     13  C   UNL     1       2.490   6.639  18.363  0.00  0.00    +0.000 A 
ATOM     14  C   UNL     1       3.047   5.423  17.903  0.00  0.00    +0.000 A 
ATOM     15  C   UNL     1       3.227   4.409  18.815  0.00  0.00    +0.000 A 
ATOM     16  C   UNL     1       2.892   4.564  20.130  0.00  0.00    +0.000 A 
ATOM     17  C   UNL     1       2.368   5.742  20.617  0.00  0.00    +0.000 A 
ATOM     18  C   UNL     1       2.143   6.814  19.728  0.00  0.00    +0.000 A 
ATOM     19  O   UNL     1       3.109   3.439  20.865  0.00  0.00    +0.000 OA
ATOM     20  C   UNL     1       3.562   2.533  19.839  0.00  0.00    +0.000 C 
ATOM     21  O   UNL     1       3.713   3.168  18.549  0.00  0.00    +0.000 OA
ENDROOT
BRANCH   1  23
ATOM     22  C   UNL     1      -1.487  13.689  23.556  0.00  0.00    +0.000 C 
ATOM     23  O   UNL     1      -2.060  12.709  22.683  0.00  0.00    +0.000 OA
ENDBRANCH   1  23
BRANCH  10  24
ATOM     24  O   UNL     1      -0.458  12.620  20.204  0.00  0.00    +0.000 OA
BRANCH  24  25
ATOM     25  C   UNL     1      -1.732  13.146  19.801  0.00  0.00    +0.000 C 
BRANCH  25  26
ATOM     26  C   UNL     1      -2.753  12.053  19.379  0.00  0.00    +0.000 C 
BRANCH  26  27
ATOM     27  N   UNL     1      -2.632  11.578  17.972  0.00  0.00    +0.000 NA
ATOM     28  C   UNL     1      -2.051  10.222  17.930  0.00  0.00    +0.000 C 
ATOM     29  C   UNL     1      -1.886   9.730  16.493  0.00  0.00    +0.000 C 
ATOM     30  C   UNL     1      -3.212   9.741  15.746  0.00  0.00    +0.000 C 
ATOM     31  C   UNL     1      -3.848  11.121  15.837  0.00  0.00    +0.000 C 
ATOM     32  C   UNL     1      -3.945  11.589  17.295  0.00  0.00    +0.000 C 
ENDBRANCH  26  27
ENDBRANCH  25  26
ENDBRANCH  24  25
ENDBRANCH  10  24
TORSDOF 5
ENDMDL
MODEL 2
REMARK VINA RESULT:      -8.7      3.042      8.768
REMARK  Name = 
REMARK  6 active torsions:
REMARK  status: ('A' for Active; 'I' for Inactive)
REMARK    1  A    between atoms: C_1  and  O_2
REMARK    2  A    between atoms: O_2  and  C_3
REMARK    3  A    between atoms: C_12  and  O_13
REMARK    4  A    between atoms: O_13  and  C_14
REMARK    5  A    between atoms: C_14  and  C_15
REMARK    6  A    between atoms: C_15  and  N_16
REMARK                            x       y       z     vdW  Elec       q    Type
REMARK                         _______ _______ _______ _____ _____    ______ ____
ROOT
ATOM      1  C   UNL     1       3.552   4.165  19.150  0.00  0.00    +0.000 A 
ATOM      2  C   UNL     1       2.821   4.094  20.337  0.00  0.00    +0.000 A 
ATOM      3  C   UNL     1       2.105   5.169  20.827  0.00  0.00    +0.000 A 
ATOM      4  C   UNL     1       2.078   6.338  20.076  0.00  0.00    +0.000 A 
ATOM      5  C   UNL     1       1.421   7.434  20.600  0.00  0.00    +0.000 A 
ATOM      6  C   UNL     1       1.347   8.627  19.878  0.00  0.00    +0.000 A 
ATOM      7  N   UNL     1       1.921   8.683  18.638  0.00  0.00    +0.000 N 
ATOM      8  C   UNL     1       2.572   7.623  18.123  0.00  0.00    +0.000 A 
ATOM      9  C   UNL     1       2.713   6.415  18.827  0.00  0.00    +0.000 A 
ATOM     10  C   UNL     1       3.437   5.312  18.329  0.00  0.00    +0.000 A 
ATOM     11  C   UNL     1       1.771   9.883  17.780  0.00  0.00    +0.000 C 
ATOM     12  C   UNL     1       1.877  11.157  18.598  0.00  0.00    +0.000 C 
ATOM     13  C   UNL     1       0.953  11.101  19.777  0.00  0.00    +0.000 A 
ATOM     14  C   UNL     1       0.406  12.294  20.302  0.00  0.00    +0.000 A 
ATOM     15  C   UNL     1      -0.351  12.209  21.448  0.00  0.00    +0.000 A 
ATOM     16  C   UNL     1      -0.584  11.010  22.061  0.00  0.00    +0.000 A 
ATOM     17  C   UNL     1      -0.085   9.826  21.565  0.00  0.00    +0.000 A 
ATOM     18  C   UNL     1       0.714   9.850  20.402  0.00  0.00    +0.000 A 
ATOM     19  O   UNL     1      -1.322  11.135  23.198  0.00  0.00    +0.000 OA
ATOM     20  C   UNL     1      -1.473  12.568  23.263  0.00  0.00    +0.000 C 
ATOM     21  O   UNL     1      -0.925  13.248  22.110  0.00  0.00    +0.000 OA
ENDROOT
BRANCH   1  23
ATOM     22  C   UNL     1       3.731   1.861  18.715  0.00  0.00    +0.000 C 
ATOM     23  O   UNL     1       4.384   3.133  18.797  0.00  0.00    +0.000 OA
ENDBRANCH   1  23
BRANCH  10  24
ATOM     24  O   UNL     1       4.010   5.510  17.085  0.00  0.00    +0.000 OA
BRANCH  24  25
ATOM     25  C   UNL     1       5.392   5.898  17.103  0.00  0.00    +0.000 C 
BRANCH  25  26
ATOM     26  C   UNL     1       6.331   4.894  16.377  0.00  0.00    +0.000 C 
BRANCH  26  27
ATOM     27  N   UNL     1       6.251   4.910  14.890  0.00  0.00    +0.000 NA
ATOM     28  C   UNL     1       7.595   5.064  14.299  0.00  0.00    +0.000 C 
ATOM     29  C   UNL     1       7.531   5.118  12.773  0.00  0.00    +0.000 C 
ATOM     30  C   UNL     1       6.862   3.878  12.201  0.00  0.00    +0.000 C 
ATOM     31  C   UNL     1       5.499   3.675  12.850  0.00  0.00    +0.000 C 
ATOM     32  C   UNL     1       5.612   3.679  14.381  0.00  0.00    +0.000 C 
ENDBRANCH  26  27
ENDBRANCH  25  26
ENDBRANCH  24  25
ENDBRANCH  10  24
TORSDOF 5
ENDMDL
MODEL 3
REMARK VINA RESULT:      -8.6      0.555      1.007
REMARK  Name = 
REMARK  6 active torsions:
REMARK  status: ('A' for Active; 'I' for Inactive)
REMARK    1  A    between atoms: C_1  and  O_2
REMARK    2  A    between atoms: O_2  and  C_3
REMARK    3  A    between atoms: C_12  and  O_13
REMARK    4  A    between atoms: O_13  and  C_14
REMARK    5  A    between atoms: C_14  and  C_15
REMARK    6  A    between atoms: C_15  and  N_16
REMARK                            x       y       z     vdW  Elec       q    Type
REMARK                         _______ _______ _______ _____ _____    ______ ____
ROOT
ATOM      1  C   UNL     1      -1.176  11.677  22.454  0.00  0.00    +0.000 A 
ATOM      2  C   UNL     1      -1.123  10.566  23.297  0.00  0.00    +0.000 A 
ATOM      3  C   UNL     1      -0.456   9.407  22.948  0.00  0.00    +0.000 A 
ATOM      4  C   UNL     1       0.224   9.379  21.737  0.00  0.00    +0.000 A 
ATOM      5  C   UNL     1       0.830   8.199  21.357  0.00  0.00    +0.000 A 
ATOM      6  C   UNL     1       1.542   8.122  20.158  0.00  0.00    +0.000 A 
ATOM      7  N   UNL     1       1.643   9.241  19.379  0.00  0.00    +0.000 N 
ATOM      8  C   UNL     1       1.046  10.394  19.736  0.00  0.00    +0.000 A 
ATOM      9  C   UNL     1       0.281  10.511  20.909  0.00  0.00    +0.000 A 
ATOM     10  C   UNL     1      -0.396  11.693  21.273  0.00  0.00    +0.000 A 
ATOM     11  C   UNL     1       2.484   9.249  18.158  0.00  0.00    +0.000 C 
ATOM     12  C   UNL     1       2.356   7.942  17.397  0.00  0.00    +0.000 C 
ATOM     13  C   UNL     1       2.581   6.778  18.314  0.00  0.00    +0.000 A 
ATOM     14  C   UNL     1       3.120   5.574  17.806  0.00  0.00    +0.000 A 
ATOM     15  C   UNL     1       3.211   4.497  18.657  0.00  0.00    +0.000 A 
ATOM     16  C   UNL     1       2.807   4.581  19.959  0.00  0.00    +0.000 A 
ATOM     17  C   UNL     1       2.298   5.745  20.494  0.00  0.00    +0.000 A 
ATOM     18  C   UNL     1       2.163   6.880  19.666  0.00  0.00    +0.000 A 
ATOM     19  O   UNL     1       2.941   3.404  20.629  0.00  0.00    +0.000 OA
ATOM     20  C   UNL     1       3.420   2.548  19.572  0.00  0.00    +0.000 C 
ATOM     21  O   UNL     1       3.668   3.258  18.337  0.00  0.00    +0.000 OA
ENDROOT
BRANCH   1  23
ATOM     22  C   UNL     1      -3.182  12.360  23.474  0.00  0.00    +0.000 C 
ATOM     23  O   UNL     1      -1.993  12.733  22.767  0.00  0.00    +0.000 OA
ENDBRANCH   1  23
BRANCH  10  24
ATOM     24  O   UNL     1      -0.255  12.740  20.379  0.00  0.00    +0.000 OA
BRANCH  24  25
ATOM     25  C   UNL     1      -1.058  12.642  19.192  0.00  0.00    +0.000 C 
BRANCH  25  26
ATOM     26  C   UNL     1      -2.469  12.039  19.442  0.00  0.00    +0.000 C 
BRANCH  26  27
ATOM     27  N   UNL     1      -2.992  11.170  18.351  0.00  0.00    +0.000 NA
ATOM     28  C   UNL     1      -4.083  11.849  17.625  0.00  0.00    +0.000 C 
ATOM     29  C   UNL     1      -4.657  10.959  16.522  0.00  0.00    +0.000 C 
ATOM     30  C   UNL     1      -3.579  10.530  15.538  0.00  0.00    +0.000 C 
ATOM     31  C   UNL     1      -2.421   9.884  16.285  0.00  0.00    +0.000 C 
ATOM     32  C   UNL     1      -1.915  10.795  17.412  0.00  0.00    +0.000 C 
ENDBRANCH  26  27
ENDBRANCH  25  26
ENDBRANCH  24  25
ENDBRANCH  10  24
TORSDOF 5
ENDMDL
MODEL 4
REMARK VINA RESULT:      -8.5      2.549      8.735
REMARK  Name = 
REMARK  6 active torsions:
REMARK  status: ('A' for Active; 'I' for Inactive)
REMARK    1  A    between atoms: C_1  and  O_2
REMARK    2  A    between atoms: O_2  and  C_3
REMARK    3  A    between atoms: C_12  and  O_13
REMARK    4  A    between atoms: O_13  and  C_14
REMARK    5  A    between atoms: C_14  and  C_15
REMARK    6  A    between atoms: C_15  and  N_16
REMARK                            x       y       z     vdW  Elec       q    Type
REMARK                         _______ _______ _______ _____ _____    ______ ____
ROOT
ATOM      1  C   UNL     1       3.422   4.001  19.230  0.00  0.00    +0.000 A 
ATOM      2  C   UNL     1       2.738   3.973  20.447  0.00  0.00    +0.000 A 
ATOM      3  C   UNL     1       2.058   5.072  20.936  0.00  0.00    +0.000 A 
ATOM      4  C   UNL     1       2.020   6.222  20.157  0.00  0.00    +0.000 A 
ATOM      5  C   UNL     1       1.402   7.341  20.677  0.00  0.00    +0.000 A 
ATOM      6  C   UNL     1       1.319   8.516  19.928  0.00  0.00    +0.000 A 
ATOM      7  N   UNL     1       1.844   8.532  18.666  0.00  0.00    +0.000 N 
ATOM      8  C   UNL     1       2.458   7.448  18.153  0.00  0.00    +0.000 A 
ATOM      9  C   UNL     1       2.607   6.255  18.883  0.00  0.00    +0.000 A 
ATOM     10  C   UNL     1       3.293   5.128  18.385  0.00  0.00    +0.000 A 
ATOM     11  C   UNL     1       1.679   9.712  17.783  0.00  0.00    +0.000 C 
ATOM     12  C   UNL     1       1.837  11.004  18.564  0.00  0.00    +0.000 C 
ATOM     13  C   UNL     1       0.960  10.993  19.779  0.00  0.00    +0.000 A 
ATOM     14  C   UNL     1       0.453  12.208  20.294  0.00  0.00    +0.000 A 
ATOM     15  C   UNL     1      -0.260  12.165  21.470  0.00  0.00    +0.000 A 
ATOM     16  C   UNL     1      -0.487  10.986  22.122  0.00  0.00    +0.000 A 
ATOM     17  C   UNL     1      -0.027   9.781  21.638  0.00  0.00    +0.000 A 
ATOM     18  C   UNL     1       0.726   9.762  20.445  0.00  0.00    +0.000 A 
ATOM     19  O   UNL     1      -1.177  11.152  23.283  0.00  0.00    +0.000 OA
ATOM     20  C   UNL     1      -1.303  12.589  23.317  0.00  0.00    +0.000 C 
ATOM     21  O   UNL     1      -0.790  13.230  22.127  0.00  0.00    +0.000 OA
ENDROOT
BRANCH   1  23
ATOM     22  C   UNL     1       3.561   1.677  18.904  0.00  0.00    +0.000 C 
ATOM     23  O   UNL     1       4.223   2.947  18.873  0.00  0.00    +0.000 OA
ENDBRANCH   1  23
BRANCH  10  24
ATOM     24  O   UNL     1       3.819   5.285  17.115  0.00  0.00    +0.000 OA
BRANCH  24  25
ATOM     25  C   UNL     1       4.544   4.153  16.609  0.00  0.00    +0.000 C 
BRANCH  25  26
ATOM     26  C   UNL     1       5.808   4.537  15.790  0.00  0.00    +0.000 C 
BRANCH  26  27
ATOM     27  N   UNL     1       6.879   5.228  16.560  0.00  0.00    +0.000 NA
ATOM     28  C   UNL     1       6.579   6.668  16.689  0.00  0.00    +0.000 C 
ATOM     29  C   UNL     1       7.685   7.402  17.447  0.00  0.00    +0.000 C 
ATOM     30  C   UNL     1       7.907   6.800  18.827  0.00  0.00    +0.000 C 
ATOM     31  C   UNL     1       8.156   5.303  18.707  0.00  0.00    +0.000 C 
ATOM     32  C   UNL     1       7.045   4.622  17.897  0.00  0.00    +0.000 C 
ENDBRANCH  26  27
ENDBRANCH  25  26
ENDBRANCH  24  25
ENDBRANCH  10  24
TORSDOF 5
ENDMDL
MODEL 5
REMARK VINA RESULT:      -8.5      1.124      1.718
REMARK  Name = 
REMARK  6 active torsions:
REMARK  status: ('A' for Active; 'I' for Inactive)
REMARK    1  A    between atoms: C_1  and  O_2
REMARK    2  A    between atoms: O_2  and  C_3
REMARK    3  A    between atoms: C_12  and  O_13
REMARK    4  A    between atoms: O_13  and  C_14
REMARK    5  A    between atoms: C_14  and  C_15
REMARK    6  A    between atoms: C_15  and  N_16
REMARK                            x       y       z     vdW  Elec       q    Type
REMARK                         _______ _______ _______ _____ _____    ______ ____
ROOT
ATOM      1  C   UNL     1      -1.158  11.523  22.355  0.00  0.00    +0.000 A 
ATOM      2  C   UNL     1      -1.026  10.464  23.255  0.00  0.00    +0.000 A 
ATOM      3  C   UNL     1      -0.335   9.310  22.938  0.00  0.00    +0.000 A 
ATOM      4  C   UNL     1       0.288   9.235  21.699  0.00  0.00    +0.000 A 
ATOM      5  C   UNL     1       0.918   8.056  21.356  0.00  0.00    +0.000 A 
ATOM      6  C   UNL     1       1.576   7.935  20.130  0.00  0.00    +0.000 A 
ATOM      7  N   UNL     1       1.600   9.010  19.286  0.00  0.00    +0.000 N 
ATOM      8  C   UNL     1       0.980  10.162  19.608  0.00  0.00    +0.000 A 
ATOM      9  C   UNL     1       0.267  10.320  20.809  0.00  0.00    +0.000 A 
ATOM     10  C   UNL     1      -0.434  11.498  21.139  0.00  0.00    +0.000 A 
ATOM     11  C   UNL     1       2.383   8.977  18.028  0.00  0.00    +0.000 C 
ATOM     12  C   UNL     1       2.266   7.626  17.347  0.00  0.00    +0.000 C 
ATOM     13  C   UNL     1       2.574   6.523  18.315  0.00  0.00    +0.000 A 
ATOM     14  C   UNL     1       3.132   5.311  17.849  0.00  0.00    +0.000 A 
ATOM     15  C   UNL     1       3.300   4.287  18.752  0.00  0.00    +0.000 A 
ATOM     16  C   UNL     1       2.954   4.432  20.066  0.00  0.00    +0.000 A 
ATOM     17  C   UNL     1       2.430   5.607  20.559  0.00  0.00    +0.000 A 
ATOM     18  C   UNL     1       2.216   6.688  19.678  0.00  0.00    +0.000 A 
ATOM     19  O   UNL     1       3.161   3.300  20.793  0.00  0.00    +0.000 OA
ATOM     20  C   UNL     1       3.621   2.401  19.762  0.00  0.00    +0.000 C 
ATOM     21  O   UNL     1       3.786   3.047  18.480  0.00  0.00    +0.000 OA
ENDROOT
BRANCH   1  23
ATOM     22  C   UNL     1      -3.104  12.209  23.483  0.00  0.00    +0.000 C 
ATOM     23  O   UNL     1      -1.996  12.568  22.649  0.00  0.00    +0.000 OA
ENDBRANCH   1  23
BRANCH  10  24
ATOM     24  O   UNL     1      -0.373  12.496  20.183  0.00  0.00    +0.000 OA
BRANCH  24  25
ATOM     25  C   UNL     1      -1.643  12.950  19.690  0.00  0.00    +0.000 C 
BRANCH  25  26
ATOM     26  C   UNL     1      -2.372  11.908  18.796  0.00  0.00    +0.000 C 
BRANCH  26  27
ATOM     27  N   UNL     1      -3.847  12.087  18.685  0.00  0.00    +0.000 NA
ATOM     28  C   UNL     1      -4.482  10.860  18.165  0.00  0.00    +0.000 C 
ATOM     29  C   UNL     1      -5.992  11.035  18.011  0.00  0.00    +0.000 C 
ATOM     30  C   UNL     1      -6.643  11.428  19.329  0.00  0.00    +0.000 C 
ATOM     31  C   UNL     1      -5.953  12.657  19.904  0.00  0.00    +0.000 C 
ATOM     32  C   UNL     1      -4.436  12.449  19.991  0.00  0.00    +0.000 C 
ENDBRANCH  26  27
ENDBRANCH  25  26
ENDBRANCH  24  25
ENDBRANCH  10  24
TORSDOF 5
ENDMDL
MODEL 6
REMARK VINA RESULT:      -8.5      2.565      8.809
REMARK  Name = 
REMARK  6 active torsions:
REMARK  status: ('A' for Active; 'I' for Inactive)
REMARK    1  A    between atoms: C_1  and  O_2
REMARK    2  A    between atoms: O_2  and  C_3
REMARK    3  A    between atoms: C_12  and  O_13
REMARK    4  A    between atoms: O_13  and  C_14
REMARK    5  A    between atoms: C_14  and  C_15
REMARK    6  A    between atoms: C_15  and  N_16
REMARK                            x       y       z     vdW  Elec       q    Type
REMARK                         _______ _______ _______ _____ _____    ______ ____
ROOT
ATOM      1  C   UNL     1       2.707   6.798  18.297  0.00  0.00    +0.000 A 
ATOM      2  C   UNL     1       2.658   7.918  17.465  0.00  0.00    +0.000 A 
ATOM      3  C   UNL     1       2.076   9.106  17.862  0.00  0.00    +0.000 A 
ATOM      4  C   UNL     1       1.572   9.193  19.154  0.00  0.00    +0.000 A 
ATOM      5  C   UNL     1       0.928  10.355  19.526  0.00  0.00    +0.000 A 
ATOM      6  C   UNL     1       0.420  10.501  20.818  0.00  0.00    +0.000 A 
ATOM      7  N   UNL     1       0.588   9.480  21.711  0.00  0.00    +0.000 N 
ATOM      8  C   UNL     1       1.206   8.337  21.354  0.00  0.00    +0.000 A 
ATOM      9  C   UNL     1       1.695   8.124  20.054  0.00  0.00    +0.000 A 
ATOM     10  C   UNL     1       2.296   6.915  19.646  0.00  0.00    +0.000 A 
ATOM     11  C   UNL     1       0.175   9.627  23.128  0.00  0.00    +0.000 C 
ATOM     12  C   UNL     1      -1.144  10.370  23.238  0.00  0.00    +0.000 C 
ATOM     13  C   UNL     1      -1.093  11.648  22.456  0.00  0.00    +0.000 A 
ATOM     14  C   UNL     1      -1.868  12.757  22.866  0.00  0.00    +0.000 A 
ATOM     15  C   UNL     1      -1.874  13.873  22.062  0.00  0.00    +0.000 A 
ATOM     16  C   UNL     1      -1.146  13.924  20.907  0.00  0.00    +0.000 A 
ATOM     17  C   UNL     1      -0.362  12.871  20.489  0.00  0.00    +0.000 A 
ATOM     18  C   UNL     1      -0.329  11.690  21.262  0.00  0.00    +0.000 A 
ATOM     19  O   UNL     1      -1.310  15.095  20.233  0.00  0.00    +0.000 OA
ATOM     20  C   UNL     1      -2.281  15.753  21.072  0.00  0.00    +0.000 C 
ATOM     21  O   UNL     1      -2.582  15.013  22.277  0.00  0.00    +0.000 OA
ENDROOT
BRANCH   1  23
ATOM     22  C   UNL     1       4.532   5.560  17.482  0.00  0.00    +0.000 C 
ATOM     23  O   UNL     1       3.135   5.594  17.798  0.00  0.00    +0.000 OA
ENDBRANCH   1  23
BRANCH  10  24
ATOM     24  O   UNL     1       2.365   5.942  20.628  0.00  0.00    +0.000 OA
BRANCH  24  25
ATOM     25  C   UNL     1       1.266   5.019  20.652  0.00  0.00    +0.000 C 
BRANCH  25  26
ATOM     26  C   UNL     1       1.638   3.621  21.219  0.00  0.00    +0.000 C 
BRANCH  26  27
ATOM     27  N   UNL     1       2.187   2.657  20.226  0.00  0.00    +0.000 NA
ATOM     28  C   UNL     1       1.620   2.912  18.887  0.00  0.00    +0.000 C 
ATOM     29  C   UNL     1       2.146   1.911  17.859  0.00  0.00    +0.000 C 
ATOM     30  C   UNL     1       3.665   1.939  17.783  0.00  0.00    +0.000 C 
ATOM     31  C   UNL     1       4.259   1.738  19.170  0.00  0.00    +0.000 C 
ATOM     32  C   UNL     1       3.662   2.733  20.174  0.00  0.00    +0.000 C 
ENDBRANCH  26  27
ENDBRANCH  25  26
ENDBRANCH  24  25
ENDBRANCH  10  24
TORSDOF 5
ENDMDL
MODEL 7
REMARK VINA RESULT:      -8.5      2.551      8.641
REMARK  Name = 
REMARK  6 active torsions:
REMARK  status: ('A' for Active; 'I' for Inactive)
REMARK    1  A    between atoms: C_1  and  O_2
REMARK    2  A    between atoms: O_2  and  C_3
REMARK    3  A    between atoms: C_12  and  O_13
REMARK    4  A    between atoms: O_13  and  C_14
REMARK    5  A    between atoms: C_14  and  C_15
REMARK    6  A    between atoms: C_15  and  N_16
REMARK                            x       y       z     vdW  Elec       q    Type
REMARK                         _______ _______ _______ _____ _____    ______ ____
ROOT
ATOM      1  C   UNL     1       3.176   3.418  19.542  0.00  0.00    +0.000 A 
ATOM      2  C   UNL     1       2.549   3.541  20.783  0.00  0.00    +0.000 A 
ATOM      3  C   UNL     1       1.955   4.718  21.195  0.00  0.00    +0.000 A 
ATOM      4  C   UNL     1       1.944   5.793  20.316  0.00  0.00    +0.000 A 
ATOM      5  C   UNL     1       1.415   6.989  20.755  0.00  0.00    +0.000 A 
ATOM      6  C   UNL     1       1.362   8.095  19.904  0.00  0.00    +0.000 A 
ATOM      7  N   UNL     1       1.827   7.965  18.625  0.00  0.00    +0.000 N 
ATOM      8  C   UNL     1       2.355   6.805  18.190  0.00  0.00    +0.000 A 
ATOM      9  C   UNL     1       2.471   5.677  19.020  0.00  0.00    +0.000 A 
ATOM     10  C   UNL     1       3.070   4.470  18.602  0.00  0.00    +0.000 A 
ATOM     11  C   UNL     1       1.686   9.069  17.644  0.00  0.00    +0.000 C 
ATOM     12  C   UNL     1       1.953  10.414  18.294  0.00  0.00    +0.000 C 
ATOM     13  C   UNL     1       1.134  10.566  19.540  0.00  0.00    +0.000 A 
ATOM     14  C   UNL     1       0.720  11.850  19.961  0.00  0.00    +0.000 A 
ATOM     15  C   UNL     1       0.062  11.956  21.165  0.00  0.00    +0.000 A 
ATOM     16  C   UNL     1      -0.199  10.856  21.932  0.00  0.00    +0.000 A 
ATOM     17  C   UNL     1       0.169   9.587  21.543  0.00  0.00    +0.000 A 
ATOM     18  C   UNL     1       0.864   9.416  20.327  0.00  0.00    +0.000 A 
ATOM     19  O   UNL     1      -0.824  11.168  23.101  0.00  0.00    +0.000 OA
ATOM     20  C   UNL     1      -0.868  12.606  23.006  0.00  0.00    +0.000 C 
ATOM     21  O   UNL     1      -0.377  13.105  21.741  0.00  0.00    +0.000 OA
ENDROOT
BRANCH   1  23
ATOM     22  C   UNL     1       4.760   1.861  20.312  0.00  0.00    +0.000 C 
ATOM     23  O   UNL     1       3.899   2.290  19.250  0.00  0.00    +0.000 OA
ENDBRANCH   1  23
BRANCH  10  24
ATOM     24  O   UNL     1       3.544   4.480  17.301  0.00  0.00    +0.000 OA
BRANCH  24  25
ATOM     25  C   UNL     1       4.577   3.523  17.020  0.00  0.00    +0.000 C 
BRANCH  25  26
ATOM     26  C   UNL     1       5.937   4.168  16.631  0.00  0.00    +0.000 C 
BRANCH  26  27
ATOM     27  N   UNL     1       6.346   5.336  17.460  0.00  0.00    +0.000 NA
ATOM     28  C   UNL     1       7.605   5.050  18.175  0.00  0.00    +0.000 C 
ATOM     29  C   UNL     1       8.024   6.224  19.059  0.00  0.00    +0.000 C 
ATOM     30  C   UNL     1       8.177   7.502  18.248  0.00  0.00    +0.000 C 
ATOM     31  C   UNL     1       6.905   7.773  17.458  0.00  0.00    +0.000 C 
ATOM     32  C   UNL     1       6.500   6.548  16.627  0.00  0.00    +0.000 C 
ENDBRANCH  26  27
ENDBRANCH  25  26
ENDBRANCH  24  25
ENDBRANCH  10  24
TORSDOF 5
ENDMDL
MODEL 8
REMARK VINA RESULT:      -8.4      2.526      3.600
REMARK  Name = 
REMARK  6 active torsions:
REMARK  status: ('A' for Active; 'I' for Inactive)
REMARK    1  A    between atoms: C_1  and  O_2
REMARK    2  A    between atoms: O_2  and  C_3
REMARK    3  A    between atoms: C_12  and  O_13
REMARK    4  A    between atoms: O_13  and  C_14
REMARK    5  A    between atoms: C_14  and  C_15
REMARK    6  A    between atoms: C_15  and  N_16
REMARK                            x       y       z     vdW  Elec       q    Type
REMARK                         _______ _______ _______ _____ _____    ______ ____
ROOT
ATOM      1  C   UNL     1      -1.195  11.507  22.353  0.00  0.00    +0.000 A 
ATOM      2  C   UNL     1      -1.068  10.441  23.246  0.00  0.00    +0.000 A 
ATOM      3  C   UNL     1      -0.370   9.292  22.926  0.00  0.00    +0.000 A 
ATOM      4  C   UNL     1       0.264   9.228  21.692  0.00  0.00    +0.000 A 
ATOM      5  C   UNL     1       0.900   8.054  21.346  0.00  0.00    +0.000 A 
ATOM      6  C   UNL     1       1.570   7.944  20.125  0.00  0.00    +0.000 A 
ATOM      7  N   UNL     1       1.599   9.026  19.290  0.00  0.00    +0.000 N 
ATOM      8  C   UNL     1       0.972  10.173  19.615  0.00  0.00    +0.000 A 
ATOM      9  C   UNL     1       0.248  10.320  20.810  0.00  0.00    +0.000 A 
ATOM     10  C   UNL     1      -0.460  11.493  21.144  0.00  0.00    +0.000 A 
ATOM     11  C   UNL     1       2.393   9.005  18.038  0.00  0.00    +0.000 C 
ATOM     12  C   UNL     1       2.286   7.658  17.346  0.00  0.00    +0.000 C 
ATOM     13  C   UNL     1       2.589   6.549  18.308  0.00  0.00    +0.000 A 
ATOM     14  C   UNL     1       3.154   5.342  17.837  0.00  0.00    +0.000 A 
ATOM     15  C   UNL     1       3.318   4.312  18.735  0.00  0.00    +0.000 A 
ATOM     16  C   UNL     1       2.959   4.446  20.046  0.00  0.00    +0.000 A 
ATOM     17  C   UNL     1       2.427   5.615  20.544  0.00  0.00    +0.000 A 
ATOM     18  C   UNL     1       2.218   6.702  19.669  0.00  0.00    +0.000 A 
ATOM     19  O   UNL     1       3.163   3.308  20.766  0.00  0.00    +0.000 OA
ATOM     20  C   UNL     1       3.635   2.419  19.733  0.00  0.00    +0.000 C 
ATOM     21  O   UNL     1       3.809   3.076  18.457  0.00  0.00    +0.000 OA
ENDROOT
BRANCH   1  23
ATOM     22  C   UNL     1      -3.102  12.198  23.541  0.00  0.00    +0.000 C 
ATOM     23  O   UNL     1      -2.039  12.547  22.647  0.00  0.00    +0.000 OA
ENDBRANCH   1  23
BRANCH  10  24
ATOM     24  O   UNL     1      -0.393  12.499  20.196  0.00  0.00    +0.000 OA
BRANCH  24  25
ATOM     25  C   UNL     1       0.482  13.589  20.523  0.00  0.00    +0.000 C 
BRANCH  25  26
ATOM     26  C   UNL     1       0.397  14.778  19.525  0.00  0.00    +0.000 C 
BRANCH  26  27
ATOM     27  N   UNL     1       1.576  14.943  18.630  0.00  0.00    +0.000 NA
ATOM     28  C   UNL     1       1.930  16.370  18.495  0.00  0.00    +0.000 C 
ATOM     29  C   UNL     1       3.117  16.563  17.552  0.00  0.00    +0.000 C 
ATOM     30  C   UNL     1       4.333  15.778  18.021  0.00  0.00    +0.000 C 
ATOM     31  C   UNL     1       3.961  14.315  18.222  0.00  0.00    +0.000 C 
ATOM     32  C   UNL     1       2.735  14.178  19.135  0.00  0.00    +0.000 C 
ENDBRANCH  26  27
ENDBRANCH  25  26
ENDBRANCH  24  25
ENDBRANCH  10  24
TORSDOF 5
ENDMDL
MODEL 9
REMARK VINA RESULT:      -8.4      0.925      1.626
REMARK  Name = 
REMARK  6 active torsions:
REMARK  status: ('A' for Active; 'I' for Inactive)
REMARK    1  A    between atoms: C_1  and  O_2
REMARK    2  A    between atoms: O_2  and  C_3
REMARK    3  A    between atoms: C_12  and  O_13
REMARK    4  A    between atoms: O_13  and  C_14
REMARK    5  A    between atoms: C_14  and  C_15
REMARK    6  A    between atoms: C_15  and  N_16
REMARK                            x       y       z     vdW  Elec       q    Type
REMARK                         _______ _______ _______ _____ _____    ______ ____
ROOT
ATOM      1  C   UNL     1      -1.115  11.626  22.294  0.00  0.00    +0.000 A 
ATOM      2  C   UNL     1      -1.019  10.570  23.202  0.00  0.00    +0.000 A 
ATOM      3  C   UNL     1      -0.349   9.400  22.903  0.00  0.00    +0.000 A 
ATOM      4  C   UNL     1       0.290   9.303  21.673  0.00  0.00    +0.000 A 
ATOM      5  C   UNL     1       0.898   8.108  21.346  0.00  0.00    +0.000 A 
ATOM      6  C   UNL     1       1.570   7.964  20.131  0.00  0.00    +0.000 A 
ATOM      7  N   UNL     1       1.630   9.032  19.281  0.00  0.00    +0.000 N 
ATOM      8  C   UNL     1       1.031  10.200  19.586  0.00  0.00    +0.000 A 
ATOM      9  C   UNL     1       0.305  10.382  20.775  0.00  0.00    +0.000 A 
ATOM     10  C   UNL     1      -0.375  11.577  21.088  0.00  0.00    +0.000 A 
ATOM     11  C   UNL     1       2.430   8.974  18.034  0.00  0.00    +0.000 C 
ATOM     12  C   UNL     1       2.293   7.620  17.360  0.00  0.00    +0.000 C 
ATOM     13  C   UNL     1       2.563   6.518  18.339  0.00  0.00    +0.000 A 
ATOM     14  C   UNL     1       3.100   5.290  17.889  0.00  0.00    +0.000 A 
ATOM     15  C   UNL     1       3.233   4.269  18.802  0.00  0.00    +0.000 A 
ATOM     16  C   UNL     1       2.872   4.431  20.110  0.00  0.00    +0.000 A 
ATOM     17  C   UNL     1       2.367   5.620  20.588  0.00  0.00    +0.000 A 
ATOM     18  C   UNL     1       2.189   6.700  19.696  0.00  0.00    +0.000 A 
ATOM     19  O   UNL     1       3.044   3.300  20.847  0.00  0.00    +0.000 OA
ATOM     20  C   UNL     1       3.499   2.384  19.829  0.00  0.00    +0.000 C 
ATOM     21  O   UNL     1       3.695   3.018  18.544  0.00  0.00    +0.000 OA
ENDROOT
BRANCH   1  23
ATOM     22  C   UNL     1      -1.381  13.625  23.502  0.00  0.00    +0.000 C 
ATOM     23  O   UNL     1      -1.934  12.691  22.568  0.00  0.00    +0.000 OA
ENDBRANCH   1  23
BRANCH  10  24
ATOM     24  O   UNL     1      -0.278  12.567  20.126  0.00  0.00    +0.000 OA
BRANCH  24  25
ATOM     25  C   UNL     1      -1.496  12.857  19.423  0.00  0.00    +0.000 C 
BRANCH  25  26
ATOM     26  C   UNL     1      -2.145  11.611  18.758  0.00  0.00    +0.000 C 
BRANCH  26  27
ATOM     27  N   UNL     1      -3.624  11.511  18.901  0.00  0.00    +0.000 NA
ATOM     28  C   UNL     1      -4.131  12.570  19.797  0.00  0.00    +0.000 C 
ATOM     29  C   UNL     1      -5.644  12.463  19.985  0.00  0.00    +0.000 C 
ATOM     30  C   UNL     1      -6.375  12.529  18.653  0.00  0.00    +0.000 C 
ATOM     31  C   UNL     1      -5.816  11.481  17.701  0.00  0.00    +0.000 C 
ATOM     32  C   UNL     1      -4.290  11.599  17.585  0.00  0.00    +0.000 C 
ENDBRANCH  26  27
ENDBRANCH  25  26
ENDBRANCH  24  25
ENDBRANCH  10  24
TORSDOF 5
ENDMDL
