MODEL 1
REMARK VINA RESULT:      -8.1      0.000      0.000
REMARK  Name = 
REMARK  6 active torsions:
REMARK  status: ('A' for Active; 'I' for Inactive)
REMARK    1  A    between atoms: C_1  and  C_2
REMARK    2  A    between atoms: C_7  and  C_8
REMARK    3  A    between atoms: N_10  and  C_11
REMARK    4  A    between atoms: N_10  and  C_12
REMARK    5  A    between atoms: C_15  and  C_16
REMARK    6  A    between atoms: C_19  and  C_20
REMARK                            x       y       z     vdW  Elec       q    Type
REMARK                         _______ _______ _______ _____ _____    ______ ____
ROOT
ATOM      1  C   UNL     1       1.648   2.429  22.075  0.00  0.00    +0.000 C 
ATOM      2  C   UNL     1       2.391   3.256  21.097  0.00  0.00    +0.000 A 
ATOM      3  N   UNL     1       1.978   4.526  20.777  0.00  0.00    +0.000 NA
ATOM      4  C   UNL     1       2.834   4.976  19.872  0.00  0.00    +0.000 A 
ATOM      5  C   UNL     1       2.918   6.193  19.142  0.00  0.00    +0.000 A 
ATOM      6  C   UNL     1       3.900   6.383  18.216  0.00  0.00    +0.000 A 
ATOM      7  C   UNL     1       4.973   5.346  17.995  0.00  0.00    +0.000 A 
ATOM      8  C   UNL     1       4.804   4.193  18.667  0.00  0.00    +0.000 A 
ATOM      9  N   UNL     1       3.792   4.015  19.592  0.00  0.00    +0.000 N 
ATOM     10  C   UNL     1       3.532   2.920  20.395  0.00  0.00    +0.000 A 
ATOM     11  C   UNL     1       4.343   1.675  20.450  0.00  0.00    +0.000 C 
ATOM     12  C   UNL     1       3.837   7.622  17.348  0.00  0.00    +0.000 C 
ATOM     13  C   UNL     1       2.522   8.390  17.503  0.00  0.00    +0.000 C 
ATOM     14  C   UNL     1       2.168   8.438  18.986  0.00  0.00    +0.000 C 
ATOM     15  O   UNL     1       1.914   7.098  19.438  0.00  0.00    +0.000 OA
ENDROOT
BRANCH  14  16
ATOM     16  C   UNL     1       1.011   9.378  19.286  0.00  0.00    +0.000 A 
ATOM     17  C   UNL     1       0.169   9.917  18.305  0.00  0.00    +0.000 A 
ATOM     18  C   UNL     1      -0.932  10.713  18.663  0.00  0.00    +0.000 A 
ATOM     19  C   UNL     1      -1.202  10.988  20.002  0.00  0.00    +0.000 A 
ATOM     20  C   UNL     1      -0.360  10.478  20.991  0.00  0.00    +0.000 A 
ATOM     21  C   UNL     1       0.731   9.684  20.626  0.00  0.00    +0.000 A 
ATOM     22  F   UNL     1       1.509   9.189  21.597  0.00  0.00    +0.000 F 
ENDBRANCH  14  16
BRANCH   7  23
ATOM     23  C   UNL     1       6.116   5.527  16.988  0.00  0.00    +0.000 C 
ATOM     24  O   UNL     1       7.089   6.193  17.356  0.00  0.00    +0.000 OA
ATOM     25  N   UNL     1       6.120   4.994  15.691  0.00  0.00    +0.000 N 
ATOM     26  C   UNL     1       5.284   3.942  15.118  0.00  0.00    +0.000 C 
ATOM     27  C   UNL     1       7.293   5.288  14.869  0.00  0.00    +0.000 C 
ENDBRANCH   7  23
TORSDOF 2
ENDMDL
MODEL 2
REMARK VINA RESULT:      -8.0      0.964      1.076
REMARK  Name = 
REMARK  6 active torsions:
REMARK  status: ('A' for Active; 'I' for Inactive)
REMARK    1  A    between atoms: C_1  and  C_2
REMARK    2  A    between atoms: C_7  and  C_8
REMARK    3  A    between atoms: N_10  and  C_11
REMARK    4  A    between atoms: N_10  and  C_12
REMARK    5  A    between atoms: C_15  and  C_16
REMARK    6  A    between atoms: C_19  and  C_20
REMARK                            x       y       z     vdW  Elec       q    Type
REMARK                         _______ _______ _______ _____ _____    ______ ____
ROOT
ATOM      1  C   UNL     1       1.540   2.468  21.955  0.00  0.00    +0.000 C 
ATOM      2  C   UNL     1       2.163   3.356  20.946  0.00  0.00    +0.000 A 
ATOM      3  N   UNL     1       1.780   4.669  20.820  0.00  0.00    +0.000 NA
ATOM      4  C   UNL     1       2.503   5.170  19.829  0.00  0.00    +0.000 A 
ATOM      5  C   UNL     1       2.540   6.450  19.212  0.00  0.00    +0.000 A 
ATOM      6  C   UNL     1       3.368   6.689  18.155  0.00  0.00    +0.000 A 
ATOM      7  C   UNL     1       4.326   5.633  17.662  0.00  0.00    +0.000 A 
ATOM      8  C   UNL     1       4.199   4.427  18.243  0.00  0.00    +0.000 A 
ATOM      9  N   UNL     1       3.344   4.201  19.305  0.00  0.00    +0.000 N 
ATOM     10  C   UNL     1       3.152   3.042  20.035  0.00  0.00    +0.000 A 
ATOM     11  C   UNL     1       3.885   1.764  19.837  0.00  0.00    +0.000 C 
ATOM     12  C   UNL     1       3.240   8.011  17.429  0.00  0.00    +0.000 C 
ATOM     13  C   UNL     1       2.016   8.817  17.873  0.00  0.00    +0.000 C 
ATOM     14  C   UNL     1       1.912   8.730  19.392  0.00  0.00    +0.000 C 
ATOM     15  O   UNL     1       1.654   7.364  19.754  0.00  0.00    +0.000 OA
ENDROOT
BRANCH  14  16
ATOM     16  C   UNL     1       0.878   9.685  19.967  0.00  0.00    +0.000 A 
ATOM     17  C   UNL     1      -0.076  10.360  19.196  0.00  0.00    +0.000 A 
ATOM     18  C   UNL     1      -1.054  11.163  19.805  0.00  0.00    +0.000 A 
ATOM     19  C   UNL     1      -1.089  11.309  21.190  0.00  0.00    +0.000 A 
ATOM     20  C   UNL     1      -0.131  10.663  21.973  0.00  0.00    +0.000 A 
ATOM     21  C   UNL     1       0.836   9.863  21.358  0.00  0.00    +0.000 A 
ATOM     22  F   UNL     1       1.728   9.235  22.135  0.00  0.00    +0.000 F 
ENDBRANCH  14  16
BRANCH   7  23
ATOM     23  C   UNL     1       5.299   5.865  16.498  0.00  0.00    +0.000 C 
ATOM     24  O   UNL     1       4.938   6.646  15.611  0.00  0.00    +0.000 OA
ATOM     25  N   UNL     1       6.553   5.249  16.381  0.00  0.00    +0.000 N 
ATOM     26  C   UNL     1       7.345   4.556  17.394  0.00  0.00    +0.000 C 
ATOM     27  C   UNL     1       7.333   5.582  15.191  0.00  0.00    +0.000 C 
ENDBRANCH   7  23
TORSDOF 2
ENDMDL
MODEL 3
REMARK VINA RESULT:      -7.6      1.027      1.369
REMARK  Name = 
REMARK  6 active torsions:
REMARK  status: ('A' for Active; 'I' for Inactive)
REMARK    1  A    between atoms: C_1  and  C_2
REMARK    2  A    between atoms: C_7  and  C_8
REMARK    3  A    between atoms: N_10  and  C_11
REMARK    4  A    between atoms: N_10  and  C_12
REMARK    5  A    between atoms: C_15  and  C_16
REMARK    6  A    between atoms: C_19  and  C_20
REMARK                            x       y       z     vdW  Elec       q    Type
REMARK                         _______ _______ _______ _____ _____    ______ ____
ROOT
ATOM      1  C   UNL     1       1.589   2.610  21.914  0.00  0.00    +0.000 C 
ATOM      2  C   UNL     1       2.259   3.491  20.931  0.00  0.00    +0.000 A 
ATOM      3  N   UNL     1       1.836   4.781  20.724  0.00  0.00    +0.000 NA
ATOM      4  C   UNL     1       2.620   5.281  19.781  0.00  0.00    +0.000 A 
ATOM      5  C   UNL     1       2.658   6.540  19.122  0.00  0.00    +0.000 A 
ATOM      6  C   UNL     1       3.563   6.780  18.132  0.00  0.00    +0.000 A 
ATOM      7  C   UNL     1       4.604   5.752  17.761  0.00  0.00    +0.000 A 
ATOM      8  C   UNL     1       4.477   4.561  18.373  0.00  0.00    +0.000 A 
ATOM      9  N   UNL     1       3.542   4.333  19.366  0.00  0.00    +0.000 N 
ATOM     10  C   UNL     1       3.336   3.192  20.119  0.00  0.00    +0.000 A 
ATOM     11  C   UNL     1       4.135   1.941  20.032  0.00  0.00    +0.000 C 
ATOM     12  C   UNL     1       3.445   8.071  17.349  0.00  0.00    +0.000 C 
ATOM     13  C   UNL     1       2.155   8.836  17.657  0.00  0.00    +0.000 C 
ATOM     14  C   UNL     1       1.923   8.794  19.165  0.00  0.00    +0.000 C 
ATOM     15  O   UNL     1       1.691   7.431  19.553  0.00  0.00    +0.000 OA
ENDROOT
BRANCH  14  16
ATOM     16  C   UNL     1       0.804   9.721  19.614  0.00  0.00    +0.000 A 
ATOM     17  C   UNL     1       0.758  10.336  20.872  0.00  0.00    +0.000 A 
ATOM     18  C   UNL     1      -0.264  11.247  21.188  0.00  0.00    +0.000 A 
ATOM     19  C   UNL     1      -1.256  11.550  20.258  0.00  0.00    +0.000 A 
ATOM     20  C   UNL     1      -1.238  10.928  19.009  0.00  0.00    +0.000 A 
ATOM     21  C   UNL     1      -0.216  10.026  18.701  0.00  0.00    +0.000 A 
ATOM     22  F   UNL     1      -0.211   9.462  17.487  0.00  0.00    +0.000 F 
ENDBRANCH  14  16
BRANCH   7  23
ATOM     23  C   UNL     1       5.663   5.988  16.677  0.00  0.00    +0.000 C 
ATOM     24  O   UNL     1       6.289   7.053  16.725  0.00  0.00    +0.000 OA
ATOM     25  N   UNL     1       5.957   5.083  15.647  0.00  0.00    +0.000 N 
ATOM     26  C   UNL     1       5.617   3.667  15.532  0.00  0.00    +0.000 C 
ATOM     27  C   UNL     1       6.989   5.491  14.696  0.00  0.00    +0.000 C 
ENDBRANCH   7  23
TORSDOF 2
ENDMDL
MODEL 4
REMARK VINA RESULT:      -7.3      1.275      1.521
REMARK  Name = 
REMARK  6 active torsions:
REMARK  status: ('A' for Active; 'I' for Inactive)
REMARK    1  A    between atoms: C_1  and  C_2
REMARK    2  A    between atoms: C_7  and  C_8
REMARK    3  A    between atoms: N_10  and  C_11
REMARK    4  A    between atoms: N_10  and  C_12
REMARK    5  A    between atoms: C_15  and  C_16
REMARK    6  A    between atoms: C_19  and  C_20
REMARK                            x       y       z     vdW  Elec       q    Type
REMARK                         _______ _______ _______ _____ _____    ______ ____
ROOT
ATOM      1  C   UNL     1       1.546   2.511  21.996  0.00  0.00    +0.000 C 
ATOM      2  C   UNL     1       2.181   3.356  20.959  0.00  0.00    +0.000 A 
ATOM      3  N   UNL     1       1.830   4.675  20.800  0.00  0.00    +0.000 NA
ATOM      4  C   UNL     1       2.556   5.131  19.791  0.00  0.00    +0.000 A 
ATOM      5  C   UNL     1       2.620   6.392  19.139  0.00  0.00    +0.000 A 
ATOM      6  C   UNL     1       3.444   6.583  18.070  0.00  0.00    +0.000 A 
ATOM      7  C   UNL     1       4.372   5.491  17.598  0.00  0.00    +0.000 A 
ATOM      8  C   UNL     1       4.221   4.305  18.213  0.00  0.00    +0.000 A 
ATOM      9  N   UNL     1       3.369   4.128  19.286  0.00  0.00    +0.000 N 
ATOM     10  C   UNL     1       3.155   2.994  20.049  0.00  0.00    +0.000 A 
ATOM     11  C   UNL     1       3.855   1.693  19.880  0.00  0.00    +0.000 C 
ATOM     12  C   UNL     1       3.342   7.888  17.310  0.00  0.00    +0.000 C 
ATOM     13  C   UNL     1       2.142   8.735  17.741  0.00  0.00    +0.000 C 
ATOM     14  C   UNL     1       2.048   8.691  19.264  0.00  0.00    +0.000 C 
ATOM     15  O   UNL     1       1.761   7.342  19.664  0.00  0.00    +0.000 OA
ENDROOT
BRANCH  14  16
ATOM     16  C   UNL     1       1.043   9.686  19.821  0.00  0.00    +0.000 A 
ATOM     17  C   UNL     1       0.092   9.370  20.799  0.00  0.00    +0.000 A 
ATOM     18  C   UNL     1      -0.751  10.362  21.327  0.00  0.00    +0.000 A 
ATOM     19  C   UNL     1      -0.661  11.679  20.882  0.00  0.00    +0.000 A 
ATOM     20  C   UNL     1       0.266  12.007  19.891  0.00  0.00    +0.000 A 
ATOM     21  C   UNL     1       1.102  11.015  19.374  0.00  0.00    +0.000 A 
ATOM     22  F   UNL     1       1.998  11.362  18.441  0.00  0.00    +0.000 F 
ENDBRANCH  14  16
BRANCH   7  23
ATOM     23  C   UNL     1       5.340   5.668  16.421  0.00  0.00    +0.000 C 
ATOM     24  O   UNL     1       4.941   6.333  15.460  0.00  0.00    +0.000 OA
ATOM     25  N   UNL     1       6.632   5.124  16.371  0.00  0.00    +0.000 N 
ATOM     26  C   UNL     1       7.455   4.588  17.452  0.00  0.00    +0.000 C 
ATOM     27  C   UNL     1       7.402   5.387  15.157  0.00  0.00    +0.000 C 
ENDBRANCH   7  23
TORSDOF 2
ENDMDL
MODEL 5
REMARK VINA RESULT:      -7.2      2.594      7.234
REMARK  Name = 
REMARK  6 active torsions:
REMARK  status: ('A' for Active; 'I' for Inactive)
REMARK    1  A    between atoms: C_1  and  C_2
REMARK    2  A    between atoms: C_7  and  C_8
REMARK    3  A    between atoms: N_10  and  C_11
REMARK    4  A    between atoms: N_10  and  C_12
REMARK    5  A    between atoms: C_15  and  C_16
REMARK    6  A    between atoms: C_19  and  C_20
REMARK                            x       y       z     vdW  Elec       q    Type
REMARK                         _______ _______ _______ _____ _____    ______ ____
ROOT
ATOM      1  C   UNL     1       2.008  10.640  17.741  0.00  0.00    +0.000 C 
ATOM      2  C   UNL     1       2.205   9.259  18.235  0.00  0.00    +0.000 A 
ATOM      3  N   UNL     1       2.954   8.349  17.530  0.00  0.00    +0.000 NA
ATOM      4  C   UNL     1       2.914   7.221  18.224  0.00  0.00    +0.000 A 
ATOM      5  C   UNL     1       3.459   5.928  17.998  0.00  0.00    +0.000 A 
ATOM      6  C   UNL     1       3.222   4.910  18.873  0.00  0.00    +0.000 A 
ATOM      7  C   UNL     1       2.445   5.142  20.146  0.00  0.00    +0.000 A 
ATOM      8  C   UNL     1       1.903   6.366  20.271  0.00  0.00    +0.000 A 
ATOM      9  N   UNL     1       2.144   7.382  19.365  0.00  0.00    +0.000 N 
ATOM     10  C   UNL     1       1.710   8.694  19.395  0.00  0.00    +0.000 A 
ATOM     11  C   UNL     1       0.889   9.310  20.471  0.00  0.00    +0.000 C 
ATOM     12  C   UNL     1       3.680   3.517  18.494  0.00  0.00    +0.000 C 
ATOM     13  C   UNL     1       4.165   3.425  17.045  0.00  0.00    +0.000 C 
ATOM     14  C   UNL     1       5.021   4.653  16.749  0.00  0.00    +0.000 C 
ATOM     15  O   UNL     1       4.187   5.820  16.826  0.00  0.00    +0.000 OA
ENDROOT
BRANCH  14  16
ATOM     16  C   UNL     1       5.754   4.553  15.420  0.00  0.00    +0.000 A 
ATOM     17  C   UNL     1       5.296   3.802  14.331  0.00  0.00    +0.000 A 
ATOM     18  C   UNL     1       5.982   3.822  13.105  0.00  0.00    +0.000 A 
ATOM     19  C   UNL     1       7.137   4.586  12.953  0.00  0.00    +0.000 A 
ATOM     20  C   UNL     1       7.621   5.323  14.035  0.00  0.00    +0.000 A 
ATOM     21  C   UNL     1       6.929   5.299  15.249  0.00  0.00    +0.000 A 
ATOM     22  F   UNL     1       7.403   6.034  16.264  0.00  0.00    +0.000 F 
ENDBRANCH  14  16
BRANCH   7  23
ATOM     23  C   UNL     1       2.180   4.037  21.176  0.00  0.00    +0.000 C 
ATOM     24  O   UNL     1       2.692   4.174  22.292  0.00  0.00    +0.000 OA
ATOM     25  N   UNL     1       1.405   2.895  20.929  0.00  0.00    +0.000 N 
ATOM     26  C   UNL     1       0.453   2.634  19.852  0.00  0.00    +0.000 C 
ATOM     27  C   UNL     1       1.279   1.943  22.031  0.00  0.00    +0.000 C 
ENDBRANCH   7  23
TORSDOF 2
ENDMDL
MODEL 6
REMARK VINA RESULT:      -7.1      4.217      9.280
REMARK  Name = 
REMARK  6 active torsions:
REMARK  status: ('A' for Active; 'I' for Inactive)
REMARK    1  A    between atoms: C_1  and  C_2
REMARK    2  A    between atoms: C_7  and  C_8
REMARK    3  A    between atoms: N_10  and  C_11
REMARK    4  A    between atoms: N_10  and  C_12
REMARK    5  A    between atoms: C_15  and  C_16
REMARK    6  A    between atoms: C_19  and  C_20
REMARK                            x       y       z     vdW  Elec       q    Type
REMARK                         _______ _______ _______ _____ _____    ______ ____
ROOT
ATOM      1  C   UNL     1      -3.899  10.044  14.774  0.00  0.00    +0.000 C 
ATOM      2  C   UNL     1      -3.406  10.464  16.106  0.00  0.00    +0.000 A 
ATOM      3  N   UNL     1      -2.281   9.903  16.660  0.00  0.00    +0.000 NA
ATOM      4  C   UNL     1      -2.129  10.474  17.845  0.00  0.00    +0.000 A 
ATOM      5  C   UNL     1      -1.182  10.295  18.889  0.00  0.00    +0.000 A 
ATOM      6  C   UNL     1      -1.286  10.999  20.052  0.00  0.00    +0.000 A 
ATOM      7  C   UNL     1      -2.356  12.047  20.235  0.00  0.00    +0.000 A 
ATOM      8  C   UNL     1      -3.258  12.125  19.240  0.00  0.00    +0.000 A 
ATOM      9  N   UNL     1      -3.143  11.392  18.074  0.00  0.00    +0.000 N 
ATOM     10  C   UNL     1      -3.949  11.412  16.951  0.00  0.00    +0.000 A 
ATOM     11  C   UNL     1      -5.133  12.289  16.752  0.00  0.00    +0.000 C 
ATOM     12  C   UNL     1      -0.357  10.642  21.193  0.00  0.00    +0.000 C 
ATOM     13  C   UNL     1       0.440   9.361  20.931  0.00  0.00    +0.000 C 
ATOM     14  C   UNL     1       0.927   9.387  19.485  0.00  0.00    +0.000 C 
ATOM     15  O   UNL     1      -0.217   9.341  18.618  0.00  0.00    +0.000 OA
ENDROOT
BRANCH  14  16
ATOM     16  C   UNL     1       1.928   8.284  19.181  0.00  0.00    +0.000 A 
ATOM     17  C   UNL     1       2.164   7.190  20.022  0.00  0.00    +0.000 A 
ATOM     18  C   UNL     1       3.045   6.165  19.637  0.00  0.00    +0.000 A 
ATOM     19  C   UNL     1       3.706   6.222  18.412  0.00  0.00    +0.000 A 
ATOM     20  C   UNL     1       3.500   7.318  17.572  0.00  0.00    +0.000 A 
ATOM     21  C   UNL     1       2.620   8.331  17.961  0.00  0.00    +0.000 A 
ATOM     22  F   UNL     1       2.425   9.358  17.125  0.00  0.00    +0.000 F 
ENDBRANCH  14  16
BRANCH   7  23
ATOM     23  C   UNL     1      -2.494  12.887  21.511  0.00  0.00    +0.000 C 
ATOM     24  O   UNL     1      -3.331  12.515  22.340  0.00  0.00    +0.000 OA
ATOM     25  N   UNL     1      -1.741  14.037  21.786  0.00  0.00    +0.000 N 
ATOM     26  C   UNL     1      -0.508  14.509  21.162  0.00  0.00    +0.000 C 
ATOM     27  C   UNL     1      -2.026  14.715  23.049  0.00  0.00    +0.000 C 
ENDBRANCH   7  23
TORSDOF 2
ENDMDL
MODEL 7
REMARK VINA RESULT:      -7.0      1.155      1.156
REMARK  Name = 
REMARK  6 active torsions:
REMARK  status: ('A' for Active; 'I' for Inactive)
REMARK    1  A    between atoms: C_1  and  C_2
REMARK    2  A    between atoms: C_7  and  C_8
REMARK    3  A    between atoms: N_10  and  C_11
REMARK    4  A    between atoms: N_10  and  C_12
REMARK    5  A    between atoms: C_15  and  C_16
REMARK    6  A    between atoms: C_19  and  C_20
REMARK                            x       y       z     vdW  Elec       q    Type
REMARK                         _______ _______ _______ _____ _____    ______ ____
ROOT
ATOM      1  C   UNL     1       1.159   1.652  20.105  0.00  0.00    +0.000 C 
ATOM      2  C   UNL     1       2.051   2.598  19.395  0.00  0.00    +0.000 A 
ATOM      3  N   UNL     1       1.791   3.946  19.377  0.00  0.00    +0.000 NA
ATOM      4  C   UNL     1       2.752   4.498  18.652  0.00  0.00    +0.000 A 
ATOM      5  C   UNL     1       3.010   5.836  18.247  0.00  0.00    +0.000 A 
ATOM      6  C   UNL     1       4.071   6.127  17.443  0.00  0.00    +0.000 A 
ATOM      7  C   UNL     1       5.050   5.057  17.026  0.00  0.00    +0.000 A 
ATOM      8  C   UNL     1       4.718   3.805  17.387  0.00  0.00    +0.000 A 
ATOM      9  N   UNL     1       3.628   3.528  18.191  0.00  0.00    +0.000 N 
ATOM     10  C   UNL     1       3.202   2.310  18.688  0.00  0.00    +0.000 A 
ATOM     11  C   UNL     1       3.879   1.004  18.475  0.00  0.00    +0.000 C 
ATOM     12  C   UNL     1       4.197   7.537  16.903  0.00  0.00    +0.000 C 
ATOM     13  C   UNL     1       2.956   8.391  17.178  0.00  0.00    +0.000 C 
ATOM     14  C   UNL     1       2.500   8.124  18.610  0.00  0.00    +0.000 C 
ATOM     15  O   UNL     1       2.081   6.753  18.707  0.00  0.00    +0.000 OA
ENDROOT
BRANCH  14  16
ATOM     16  C   UNL     1       1.423   9.091  19.074  0.00  0.00    +0.000 A 
ATOM     17  C   UNL     1       0.725   9.953  18.219  0.00  0.00    +0.000 A 
ATOM     18  C   UNL     1      -0.316  10.761  18.706  0.00  0.00    +0.000 A 
ATOM     19  C   UNL     1      -0.669  10.725  20.053  0.00  0.00    +0.000 A 
ATOM     20  C   UNL     1       0.031   9.889  20.925  0.00  0.00    +0.000 A 
ATOM     21  C   UNL     1       1.063   9.087  20.430  0.00  0.00    +0.000 A 
ATOM     22  F   UNL     1       1.703   8.277  21.284  0.00  0.00    +0.000 F 
ENDBRANCH  14  16
BRANCH   7  23
ATOM     23  C   UNL     1       6.277   5.342  16.150  0.00  0.00    +0.000 C 
ATOM     24  O   UNL     1       7.241   5.889  16.694  0.00  0.00    +0.000 OA
ATOM     25  N   UNL     1       6.365   5.025  14.787  0.00  0.00    +0.000 N 
ATOM     26  C   UNL     1       5.540   4.123  13.988  0.00  0.00    +0.000 C 
ATOM     27  C   UNL     1       7.611   5.389  14.114  0.00  0.00    +0.000 C 
ENDBRANCH   7  23
TORSDOF 2
ENDMDL
MODEL 8
REMARK VINA RESULT:      -6.9      5.191     10.095
REMARK  Name = 
REMARK  6 active torsions:
REMARK  status: ('A' for Active; 'I' for Inactive)
REMARK    1  A    between atoms: C_1  and  C_2
REMARK    2  A    between atoms: C_7  and  C_8
REMARK    3  A    between atoms: N_10  and  C_11
REMARK    4  A    between atoms: N_10  and  C_12
REMARK    5  A    between atoms: C_15  and  C_16
REMARK    6  A    between atoms: C_19  and  C_20
REMARK                            x       y       z     vdW  Elec       q    Type
REMARK                         _______ _______ _______ _____ _____    ______ ____
ROOT
ATOM      1  C   UNL     1       3.663  16.038  17.429  0.00  0.00    +0.000 C 
ATOM      2  C   UNL     1       2.539  15.429  18.176  0.00  0.00    +0.000 A 
ATOM      3  N   UNL     1       2.423  14.066  18.304  0.00  0.00    +0.000 NA
ATOM      4  C   UNL     1       1.316  13.854  19.000  0.00  0.00    +0.000 A 
ATOM      5  C   UNL     1       0.653  12.670  19.422  0.00  0.00    +0.000 A 
ATOM      6  C   UNL     1      -0.526  12.738  20.104  0.00  0.00    +0.000 A 
ATOM      7  C   UNL     1      -1.119  14.067  20.503  0.00  0.00    +0.000 A 
ATOM      8  C   UNL     1      -0.481  15.148  20.021  0.00  0.00    +0.000 A 
ATOM      9  N   UNL     1       0.706  15.057  19.319  0.00  0.00    +0.000 N 
ATOM     10  C   UNL     1       1.500  16.073  18.819  0.00  0.00    +0.000 A 
ATOM     11  C   UNL     1       1.242  17.529  18.974  0.00  0.00    +0.000 C 
ATOM     12  C   UNL     1      -1.273  11.449  20.374  0.00  0.00    +0.000 C 
ATOM     13  C   UNL     1      -0.679  10.250  19.631  0.00  0.00    +0.000 C 
ATOM     14  C   UNL     1       0.841  10.327  19.738  0.00  0.00    +0.000 C 
ATOM     15  O   UNL     1       1.289  11.501  19.042  0.00  0.00    +0.000 OA
ENDROOT
BRANCH  14  16
ATOM     16  C   UNL     1       1.531   9.065  19.245  0.00  0.00    +0.000 A 
ATOM     17  C   UNL     1       2.080   8.925  17.964  0.00  0.00    +0.000 A 
ATOM     18  C   UNL     1       2.777   7.759  17.605  0.00  0.00    +0.000 A 
ATOM     19  C   UNL     1       2.927   6.715  18.515  0.00  0.00    +0.000 A 
ATOM     20  C   UNL     1       2.365   6.828  19.788  0.00  0.00    +0.000 A 
ATOM     21  C   UNL     1       1.677   7.993  20.137  0.00  0.00    +0.000 A 
ATOM     22  F   UNL     1       1.168   8.083  21.373  0.00  0.00    +0.000 F 
ENDBRANCH  14  16
BRANCH   7  23
ATOM     23  C   UNL     1      -2.425  14.194  21.298  0.00  0.00    +0.000 C 
ATOM     24  O   UNL     1      -3.479  14.184  20.653  0.00  0.00    +0.000 OA
ATOM     25  N   UNL     1      -2.493  14.323  22.693  0.00  0.00    +0.000 N 
ATOM     26  C   UNL     1      -1.470  14.054  23.700  0.00  0.00    +0.000 C 
ATOM     27  C   UNL     1      -3.829  14.449  23.271  0.00  0.00    +0.000 C 
ENDBRANCH   7  23
TORSDOF 2
ENDMDL
MODEL 9
REMARK VINA RESULT:      -6.9      3.947      8.957
REMARK  Name = 
REMARK  6 active torsions:
REMARK  status: ('A' for Active; 'I' for Inactive)
REMARK    1  A    between atoms: C_1  and  C_2
REMARK    2  A    between atoms: C_7  and  C_8
REMARK    3  A    between atoms: N_10  and  C_11
REMARK    4  A    between atoms: N_10  and  C_12
REMARK    5  A    between atoms: C_15  and  C_16
REMARK    6  A    between atoms: C_19  and  C_20
REMARK                            x       y       z     vdW  Elec       q    Type
REMARK                         _______ _______ _______ _____ _____    ______ ____
ROOT
ATOM      1  C   UNL     1      -3.840  10.029  14.870  0.00  0.00    +0.000 C 
ATOM      2  C   UNL     1      -3.243  10.399  16.174  0.00  0.00    +0.000 A 
ATOM      3  N   UNL     1      -2.083   9.813  16.619  0.00  0.00    +0.000 NA
ATOM      4  C   UNL     1      -1.835  10.341  17.808  0.00  0.00    +0.000 A 
ATOM      5  C   UNL     1      -0.812  10.119  18.770  0.00  0.00    +0.000 A 
ATOM      6  C   UNL     1      -0.821  10.783  19.960  0.00  0.00    +0.000 A 
ATOM      7  C   UNL     1      -1.864  11.831  20.261  0.00  0.00    +0.000 A 
ATOM      8  C   UNL     1      -2.838  11.950  19.342  0.00  0.00    +0.000 A 
ATOM      9  N   UNL     1      -2.820  11.257  18.146  0.00  0.00    +0.000 N 
ATOM     10  C   UNL     1      -3.710  11.321  17.090  0.00  0.00    +0.000 A 
ATOM     11  C   UNL     1      -4.898  12.212  17.013  0.00  0.00    +0.000 C 
ATOM     12  C   UNL     1       0.191  10.381  21.013  0.00  0.00    +0.000 C 
ATOM     13  C   UNL     1       0.953   9.105  20.647  0.00  0.00    +0.000 C 
ATOM     14  C   UNL     1       1.328   9.178  19.170  0.00  0.00    +0.000 C 
ATOM     15  O   UNL     1       0.120   9.169  18.392  0.00  0.00    +0.000 OA
ENDROOT
BRANCH  14  16
ATOM     16  C   UNL     1       2.293   8.080  18.751  0.00  0.00    +0.000 A 
ATOM     17  C   UNL     1       3.150   8.173  17.648  0.00  0.00    +0.000 A 
ATOM     18  C   UNL     1       4.075   7.153  17.369  0.00  0.00    +0.000 A 
ATOM     19  C   UNL     1       4.152   6.025  18.183  0.00  0.00    +0.000 A 
ATOM     20  C   UNL     1       3.289   5.905  19.274  0.00  0.00    +0.000 A 
ATOM     21  C   UNL     1       2.375   6.926  19.545  0.00  0.00    +0.000 A 
ATOM     22  F   UNL     1       1.574   6.796  20.611  0.00  0.00    +0.000 F 
ENDBRANCH  14  16
BRANCH   7  23
ATOM     23  C   UNL     1      -1.895  12.627  21.572  0.00  0.00    +0.000 C 
ATOM     24  O   UNL     1      -2.726  12.282  22.419  0.00  0.00    +0.000 OA
ATOM     25  N   UNL     1      -1.053  13.711  21.860  0.00  0.00    +0.000 N 
ATOM     26  C   UNL     1       0.187  14.121  21.207  0.00  0.00    +0.000 C 
ATOM     27  C   UNL     1      -1.243  14.356  23.157  0.00  0.00    +0.000 C 
ENDBRANCH   7  23
TORSDOF 2
ENDMDL
