MODEL 1
REMARK VINA RESULT:      -7.3      0.000      0.000
REMARK  Name = 
REMARK  7 active torsions:
REMARK  status: ('A' for Active; 'I' for Inactive)
REMARK    1  A    between atoms: C_1  and  C_2
REMARK    2  A    between atoms: C_2  and  C_3
REMARK    3  A    between atoms: C_5  and  N_6
REMARK    4  A    between atoms: C_10  and  C_11
REMARK    5  A    between atoms: N_14  and  C_15
REMARK    6  A    between atoms: C_22  and  C_23
REMARK    7  A    between atoms: N_25  and  C_26
REMARK                            x       y       z     vdW  Elec       q    Type
REMARK                         _______ _______ _______ _____ _____    ______ ____
ROOT
ATOM      1  N   UNL     1       1.404   9.963  18.835  0.00  0.00    +0.000 N 
ATOM      2  C   UNL     1       2.180   9.083  18.032  0.00  0.00    +0.000 A 
ATOM      3  O   UNL     1       2.635   9.445  16.950  0.00  0.00    +0.000 OA
ATOM      4  N   UNL     1       2.446   7.799  18.446  0.00  0.00    +0.000 NA
ATOM      5  C   UNL     1       2.050   7.365  19.598  0.00  0.00    +0.000 A 
ATOM      6  C   UNL     1       1.307   8.224  20.457  0.00  0.00    +0.000 A 
ATOM      7  O   UNL     1       0.849   7.929  21.698  0.00  0.00    +0.000 OA
ATOM      8  C   UNL     1       0.216   9.057  22.145  0.00  0.00    +0.000 A 
ATOM      9  C   UNL     1      -0.385   9.198  23.396  0.00  0.00    +0.000 A 
ATOM     10  C   UNL     1      -0.976  10.440  23.690  0.00  0.00    +0.000 A 
ATOM     11  C   UNL     1      -0.976  11.493  22.767  0.00  0.00    +0.000 A 
ATOM     12  C   UNL     1      -0.367  11.296  21.509  0.00  0.00    +0.000 A 
ATOM     13  C   UNL     1       0.254  10.067  21.181  0.00  0.00    +0.000 A 
ATOM     14  C   UNL     1       0.980   9.505  20.088  0.00  0.00    +0.000 A 
ENDROOT
BRANCH   1  17
ATOM     15  C   UNL     1       1.655  13.782  18.468  0.00  0.00    +0.000 C 
ATOM     16  C   UNL     1       2.028  12.383  18.959  0.00  0.00    +0.000 C 
ATOM     17  C   UNL     1       1.122  11.317  18.335  0.00  0.00    +0.000 C 
ATOM     18  C   UNL     1      -0.360  11.692  18.424  0.00  0.00    +0.000 C 
ATOM     19  C   UNL     1      -0.561  13.108  17.912  0.00  0.00    +0.000 C 
ATOM     20  O   UNL     1       0.255  14.020  18.646  0.00  0.00    +0.000 OA
BRANCH  15  22
ATOM     21  C   UNL     1       2.840  14.335  20.650  0.00  0.00    +0.000 C 
ATOM     22  C   UNL     1       2.443  14.827  19.268  0.00  0.00    +0.000 C 
ENDBRANCH  15  22
ENDBRANCH   1  17
BRANCH   5  23
ATOM     23  C   UNL     1       2.409   6.004  19.936  0.00  0.00    +0.000 A 
ATOM     24  C   UNL     1       3.556   5.223  19.672  0.00  0.00    +0.000 A 
ATOM     25  N   UNL     1       3.468   3.979  20.162  0.00  0.00    +0.000 NA
ATOM     26  N   UNL     1       2.257   3.953  20.745  0.00  0.00    +0.000 N 
ATOM     27  C   UNL     1       1.760   2.755  21.378  0.00  0.00    +0.000 C 
ATOM     28  C   UNL     1       1.595   5.136  20.647  0.00  0.00    +0.000 A 
ENDBRANCH   5  23
BRANCH  11  29
ATOM     29  C   UNL     1      -1.567  12.797  23.065  0.00  0.00    +0.000 A 
ATOM     30  C   UNL     1      -2.884  13.183  22.899  0.00  0.00    +0.000 A 
ATOM     31  N   UNL     1      -2.945  14.471  23.353  0.00  0.00    +0.000 N 
ATOM     32  C   UNL     1      -4.114  15.312  23.424  0.00  0.00    +0.000 C 
ATOM     33  C   UNL     1      -1.694  14.831  23.758  0.00  0.00    +0.000 A 
ATOM     34  N   UNL     1      -0.841  13.845  23.599  0.00  0.00    +0.000 NA
ENDBRANCH  11  29
TORSDOF 4
ENDMDL
MODEL 2
REMARK VINA RESULT:      -7.1      0.776      1.208
REMARK  Name = 
REMARK  7 active torsions:
REMARK  status: ('A' for Active; 'I' for Inactive)
REMARK    1  A    between atoms: C_1  and  C_2
REMARK    2  A    between atoms: C_2  and  C_3
REMARK    3  A    between atoms: C_5  and  N_6
REMARK    4  A    between atoms: C_10  and  C_11
REMARK    5  A    between atoms: N_14  and  C_15
REMARK    6  A    between atoms: C_22  and  C_23
REMARK    7  A    between atoms: N_25  and  C_26
REMARK                            x       y       z     vdW  Elec       q    Type
REMARK                         _______ _______ _______ _____ _____    ______ ____
ROOT
ATOM      1  N   UNL     1       1.413   9.835  18.802  0.00  0.00    +0.000 N 
ATOM      2  C   UNL     1       2.175   8.931  18.013  0.00  0.00    +0.000 A 
ATOM      3  O   UNL     1       2.633   9.271  16.924  0.00  0.00    +0.000 OA
ATOM      4  N   UNL     1       2.423   7.650  18.446  0.00  0.00    +0.000 NA
ATOM      5  C   UNL     1       2.021   7.239  19.604  0.00  0.00    +0.000 A 
ATOM      6  C   UNL     1       1.292   8.122  20.452  0.00  0.00    +0.000 A 
ATOM      7  O   UNL     1       0.832   7.853  21.697  0.00  0.00    +0.000 OA
ATOM      8  C   UNL     1       0.216   8.997  22.127  0.00  0.00    +0.000 A 
ATOM      9  C   UNL     1      -0.381   9.166  23.377  0.00  0.00    +0.000 A 
ATOM     10  C   UNL     1      -0.953  10.421  23.653  0.00  0.00    +0.000 A 
ATOM     11  C   UNL     1      -0.939  11.460  22.714  0.00  0.00    +0.000 A 
ATOM     12  C   UNL     1      -0.335  11.235  21.458  0.00  0.00    +0.000 A 
ATOM     13  C   UNL     1       0.268   9.992  21.148  0.00  0.00    +0.000 A 
ATOM     14  C   UNL     1       0.984   9.403  20.063  0.00  0.00    +0.000 A 
ENDROOT
BRANCH   1  17
ATOM     15  C   UNL     1       1.785  13.629  18.307  0.00  0.00    +0.000 C 
ATOM     16  C   UNL     1       2.136  12.230  18.814  0.00  0.00    +0.000 C 
ATOM     17  C   UNL     1       1.150  11.185  18.282  0.00  0.00    +0.000 C 
ATOM     18  C   UNL     1      -0.307  11.621  18.457  0.00  0.00    +0.000 C 
ATOM     19  C   UNL     1      -0.487  13.031  17.918  0.00  0.00    +0.000 C 
ATOM     20  O   UNL     1       0.410  13.928  18.569  0.00  0.00    +0.000 OA
BRANCH  15  22
ATOM     21  C   UNL     1       3.941  14.979  18.263  0.00  0.00    +0.000 C 
ATOM     22  C   UNL     1       2.663  14.663  19.022  0.00  0.00    +0.000 C 
ENDBRANCH  15  22
ENDBRANCH   1  17
BRANCH   5  23
ATOM     23  C   UNL     1       2.361   5.879  19.963  0.00  0.00    +0.000 A 
ATOM     24  C   UNL     1       1.818   4.971  20.899  0.00  0.00    +0.000 A 
ATOM     25  N   UNL     1       2.459   3.795  20.923  0.00  0.00    +0.000 NA
ATOM     26  N   UNL     1       3.424   3.941  19.999  0.00  0.00    +0.000 N 
ATOM     27  C   UNL     1       4.371   2.884  19.736  0.00  0.00    +0.000 C 
ATOM     28  C   UNL     1       3.400   5.158  19.394  0.00  0.00    +0.000 A 
ENDBRANCH   5  23
BRANCH  11  29
ATOM     29  C   UNL     1      -1.511  12.777  22.992  0.00  0.00    +0.000 A 
ATOM     30  C   UNL     1      -0.929  14.011  22.774  0.00  0.00    +0.000 A 
ATOM     31  N   UNL     1      -1.868  14.928  23.155  0.00  0.00    +0.000 N 
ATOM     32  C   UNL     1      -1.757  16.364  23.090  0.00  0.00    +0.000 C 
ATOM     33  C   UNL     1      -2.962  14.246  23.598  0.00  0.00    +0.000 A 
ATOM     34  N   UNL     1      -2.780  12.948  23.512  0.00  0.00    +0.000 NA
ENDBRANCH  11  29
TORSDOF 4
ENDMDL
MODEL 3
REMARK VINA RESULT:      -7.0      3.564      5.372
REMARK  Name = 
REMARK  7 active torsions:
REMARK  status: ('A' for Active; 'I' for Inactive)
REMARK    1  A    between atoms: C_1  and  C_2
REMARK    2  A    between atoms: C_2  and  C_3
REMARK    3  A    between atoms: C_5  and  N_6
REMARK    4  A    between atoms: C_10  and  C_11
REMARK    5  A    between atoms: N_14  and  C_15
REMARK    6  A    between atoms: C_22  and  C_23
REMARK    7  A    between atoms: N_25  and  C_26
REMARK                            x       y       z     vdW  Elec       q    Type
REMARK                         _______ _______ _______ _____ _____    ______ ____
ROOT
ATOM      1  N   UNL     1      -0.738  11.033  20.617  0.00  0.00    +0.000 N 
ATOM      2  C   UNL     1       0.449  10.534  21.220  0.00  0.00    +0.000 A 
ATOM      3  O   UNL     1       0.748  10.831  22.375  0.00  0.00    +0.000 OA
ATOM      4  N   UNL     1       1.297   9.703  20.528  0.00  0.00    +0.000 NA
ATOM      5  C   UNL     1       1.022   9.302  19.329  0.00  0.00    +0.000 A 
ATOM      6  C   UNL     1      -0.179   9.739  18.699  0.00  0.00    +0.000 A 
ATOM      7  O   UNL     1      -0.621   9.386  17.468  0.00  0.00    +0.000 OA
ATOM      8  C   UNL     1      -1.818  10.028  17.299  0.00  0.00    +0.000 A 
ATOM      9  C   UNL     1      -2.632   9.925  16.170  0.00  0.00    +0.000 A 
ATOM     10  C   UNL     1      -3.839  10.646  16.179  0.00  0.00    +0.000 A 
ATOM     11  C   UNL     1      -4.211  11.448  17.265  0.00  0.00    +0.000 A 
ATOM     12  C   UNL     1      -3.347  11.530  18.378  0.00  0.00    +0.000 A 
ATOM     13  C   UNL     1      -2.131  10.806  18.416  0.00  0.00    +0.000 A 
ATOM     14  C   UNL     1      -1.051  10.595  19.325  0.00  0.00    +0.000 A 
ENDROOT
BRANCH   1  17
ATOM     15  C   UNL     1      -1.945  14.275  22.295  0.00  0.00    +0.000 C 
ATOM     16  C   UNL     1      -1.063  13.379  21.426  0.00  0.00    +0.000 C 
ATOM     17  C   UNL     1      -1.598  11.943  21.389  0.00  0.00    +0.000 C 
ATOM     18  C   UNL     1      -1.931  11.413  22.786  0.00  0.00    +0.000 C 
ATOM     19  C   UNL     1      -2.798  12.421  23.522  0.00  0.00    +0.000 C 
ATOM     20  O   UNL     1      -2.143  13.686  23.584  0.00  0.00    +0.000 OA
BRANCH  15  22
ATOM     21  C   UNL     1      -1.866  16.716  21.584  0.00  0.00    +0.000 C 
ATOM     22  C   UNL     1      -1.265  15.638  22.471  0.00  0.00    +0.000 C 
ENDBRANCH  15  22
ENDBRANCH   1  17
BRANCH   5  23
ATOM     23  C   UNL     1       1.977   8.409  18.709  0.00  0.00    +0.000 A 
ATOM     24  C   UNL     1       2.782   8.522  17.554  0.00  0.00    +0.000 A 
ATOM     25  N   UNL     1       3.526   7.432  17.324  0.00  0.00    +0.000 NA
ATOM     26  N   UNL     1       3.199   6.607  18.333  0.00  0.00    +0.000 N 
ATOM     27  C   UNL     1       3.775   5.287  18.434  0.00  0.00    +0.000 C 
ATOM     28  C   UNL     1       2.291   7.147  19.189  0.00  0.00    +0.000 A 
ENDBRANCH   5  23
BRANCH  11  29
ATOM     29  C   UNL     1      -5.472  12.188  17.299  0.00  0.00    +0.000 A 
ATOM     30  C   UNL     1      -5.806  13.317  16.576  0.00  0.00    +0.000 A 
ATOM     31  N   UNL     1      -7.097  13.603  16.924  0.00  0.00    +0.000 N 
ATOM     32  C   UNL     1      -7.916  14.674  16.416  0.00  0.00    +0.000 C 
ATOM     33  C   UNL     1      -7.498  12.674  17.838  0.00  0.00    +0.000 A 
ATOM     34  N   UNL     1      -6.544  11.806  18.085  0.00  0.00    +0.000 NA
ENDBRANCH  11  29
TORSDOF 4
ENDMDL
MODEL 4
REMARK VINA RESULT:      -7.0      3.574      8.194
REMARK  Name = 
REMARK  7 active torsions:
REMARK  status: ('A' for Active; 'I' for Inactive)
REMARK    1  A    between atoms: C_1  and  C_2
REMARK    2  A    between atoms: C_2  and  C_3
REMARK    3  A    between atoms: C_5  and  N_6
REMARK    4  A    between atoms: C_10  and  C_11
REMARK    5  A    between atoms: N_14  and  C_15
REMARK    6  A    between atoms: C_22  and  C_23
REMARK    7  A    between atoms: N_25  and  C_26
REMARK                            x       y       z     vdW  Elec       q    Type
REMARK                         _______ _______ _______ _____ _____    ______ ____
ROOT
ATOM      1  N   UNL     1      -0.424  11.667  19.784  0.00  0.00    +0.000 N 
ATOM      2  C   UNL     1       0.111  12.119  21.021  0.00  0.00    +0.000 A 
ATOM      3  O   UNL     1       1.317  12.061  21.250  0.00  0.00    +0.000 OA
ATOM      4  N   UNL     1      -0.707  12.637  21.997  0.00  0.00    +0.000 NA
ATOM      5  C   UNL     1      -1.978  12.782  21.806  0.00  0.00    +0.000 A 
ATOM      6  C   UNL     1      -2.554  12.385  20.565  0.00  0.00    +0.000 A 
ATOM      7  O   UNL     1      -3.855  12.499  20.204  0.00  0.00    +0.000 OA
ATOM      8  C   UNL     1      -3.936  12.011  18.928  0.00  0.00    +0.000 A 
ATOM      9  C   UNL     1      -5.099  11.962  18.159  0.00  0.00    +0.000 A 
ATOM     10  C   UNL     1      -4.990  11.441  16.857  0.00  0.00    +0.000 A 
ATOM     11  C   UNL     1      -3.770  10.976  16.349  0.00  0.00    +0.000 A 
ATOM     12  C   UNL     1      -2.624  11.034  17.171  0.00  0.00    +0.000 A 
ATOM     13  C   UNL     1      -2.688  11.568  18.481  0.00  0.00    +0.000 A 
ATOM     14  C   UNL     1      -1.797  11.830  19.564  0.00  0.00    +0.000 A 
ENDROOT
BRANCH   1  17
ATOM     15  C   UNL     1       1.769   9.063  17.996  0.00  0.00    +0.000 C 
ATOM     16  C   UNL     1       0.762   9.603  19.013  0.00  0.00    +0.000 C 
ATOM     17  C   UNL     1       0.489  11.093  18.783  0.00  0.00    +0.000 C 
ATOM     18  C   UNL     1       1.780  11.899  18.617  0.00  0.00    +0.000 C 
ATOM     19  C   UNL     1       2.673  11.228  17.587  0.00  0.00    +0.000 C 
ATOM     20  O   UNL     1       2.943   9.880  17.970  0.00  0.00    +0.000 OA
BRANCH  15  22
ATOM     21  C   UNL     1       3.494   7.205  17.782  0.00  0.00    +0.000 C 
ATOM     22  C   UNL     1       2.167   7.634  18.387  0.00  0.00    +0.000 C 
ENDBRANCH  15  22
ENDBRANCH   1  17
BRANCH   5  23
ATOM     23  C   UNL     1      -2.735  13.361  22.895  0.00  0.00    +0.000 A 
ATOM     24  C   UNL     1      -3.603  12.803  23.861  0.00  0.00    +0.000 A 
ATOM     25  N   UNL     1      -4.119  13.717  24.693  0.00  0.00    +0.000 NA
ATOM     26  N   UNL     1      -3.586  14.874  24.264  0.00  0.00    +0.000 N 
ATOM     27  C   UNL     1      -3.922  16.129  24.892  0.00  0.00    +0.000 C 
ATOM     28  C   UNL     1      -2.748  14.712  23.205  0.00  0.00    +0.000 A 
ENDBRANCH   5  23
BRANCH  11  29
ATOM     29  C   UNL     1      -3.635  10.451  14.991  0.00  0.00    +0.000 A 
ATOM     30  C   UNL     1      -4.602  10.404  14.006  0.00  0.00    +0.000 A 
ATOM     31  N   UNL     1      -3.982   9.866  12.913  0.00  0.00    +0.000 N 
ATOM     32  C   UNL     1      -4.558   9.639  11.611  0.00  0.00    +0.000 C 
ATOM     33  C   UNL     1      -2.691   9.592  13.258  0.00  0.00    +0.000 A 
ATOM     34  N   UNL     1      -2.449   9.933  14.503  0.00  0.00    +0.000 NA
ENDBRANCH  11  29
TORSDOF 4
ENDMDL
MODEL 5
REMARK VINA RESULT:      -6.9      1.249      1.584
REMARK  Name = 
REMARK  7 active torsions:
REMARK  status: ('A' for Active; 'I' for Inactive)
REMARK    1  A    between atoms: C_1  and  C_2
REMARK    2  A    between atoms: C_2  and  C_3
REMARK    3  A    between atoms: C_5  and  N_6
REMARK    4  A    between atoms: C_10  and  C_11
REMARK    5  A    between atoms: N_14  and  C_15
REMARK    6  A    between atoms: C_22  and  C_23
REMARK    7  A    between atoms: N_25  and  C_26
REMARK                            x       y       z     vdW  Elec       q    Type
REMARK                         _______ _______ _______ _____ _____    ______ ____
ROOT
ATOM      1  N   UNL     1       1.459  11.315  18.911  0.00  0.00    +0.000 N 
ATOM      2  C   UNL     1       2.263  10.581  17.997  0.00  0.00    +0.000 A 
ATOM      3  O   UNL     1       2.846  11.143  17.073  0.00  0.00    +0.000 OA
ATOM      4  N   UNL     1       2.412   9.220  18.121  0.00  0.00    +0.000 NA
ATOM      5  C   UNL     1       1.874   8.568  19.100  0.00  0.00    +0.000 A 
ATOM      6  C   UNL     1       1.096   9.266  20.068  0.00  0.00    +0.000 A 
ATOM      7  O   UNL     1       0.497   8.734  21.160  0.00  0.00    +0.000 OA
ATOM      8  C   UNL     1      -0.114   9.778  21.801  0.00  0.00    +0.000 A 
ATOM      9  C   UNL     1      -0.833   9.679  22.993  0.00  0.00    +0.000 A 
ATOM     10  C   UNL     1      -1.380  10.864  23.516  0.00  0.00    +0.000 A 
ATOM     11  C   UNL     1      -1.225  12.096  22.868  0.00  0.00    +0.000 A 
ATOM     12  C   UNL     1      -0.501  12.142  21.658  0.00  0.00    +0.000 A 
ATOM     13  C   UNL     1       0.080  10.975  21.107  0.00  0.00    +0.000 A 
ATOM     14  C   UNL     1       0.883  10.619  19.981  0.00  0.00    +0.000 A 
ENDROOT
BRANCH   1  17
ATOM     15  C   UNL     1       1.846  15.085  19.557  0.00  0.00    +0.000 C 
ATOM     16  C   UNL     1       2.088  13.587  19.748  0.00  0.00    +0.000 C 
ATOM     17  C   UNL     1       1.306  12.765  18.718  0.00  0.00    +0.000 C 
ATOM     18  C   UNL     1      -0.156  13.205  18.615  0.00  0.00    +0.000 C 
ATOM     19  C   UNL     1      -0.225  14.713  18.442  0.00  0.00    +0.000 C 
ATOM     20  O   UNL     1       0.444  15.367  19.520  0.00  0.00    +0.000 OA
BRANCH  15  22
ATOM     21  C   UNL     1       1.868  15.486  22.069  0.00  0.00    +0.000 C 
ATOM     22  C   UNL     1       2.476  15.853  20.726  0.00  0.00    +0.000 C 
ENDBRANCH  15  22
ENDBRANCH   1  17
BRANCH   5  23
ATOM     23  C   UNL     1       2.120   7.143  19.142  0.00  0.00    +0.000 A 
ATOM     24  C   UNL     1       2.095   6.197  20.191  0.00  0.00    +0.000 A 
ATOM     25  N   UNL     1       2.409   4.959  19.788  0.00  0.00    +0.000 NA
ATOM     26  N   UNL     1       2.639   5.101  18.472  0.00  0.00    +0.000 N 
ATOM     27  C   UNL     1       3.041   3.979  17.658  0.00  0.00    +0.000 C 
ATOM     28  C   UNL     1       2.469   6.379  18.039  0.00  0.00    +0.000 A 
ENDBRANCH   5  23
BRANCH  11  29
ATOM     29  C   UNL     1      -1.770  13.341  23.409  0.00  0.00    +0.000 A 
ATOM     30  C   UNL     1      -3.095  13.731  23.456  0.00  0.00    +0.000 A 
ATOM     31  N   UNL     1      -3.094  14.944  24.086  0.00  0.00    +0.000 N 
ATOM     32  C   UNL     1      -4.241  15.755  24.409  0.00  0.00    +0.000 C 
ATOM     33  C   UNL     1      -1.801  15.260  24.382  0.00  0.00    +0.000 A 
ATOM     34  N   UNL     1      -0.978  14.314  23.990  0.00  0.00    +0.000 NA
ENDBRANCH  11  29
TORSDOF 4
ENDMDL
MODEL 6
REMARK VINA RESULT:      -6.8      4.992      7.331
REMARK  Name = 
REMARK  7 active torsions:
REMARK  status: ('A' for Active; 'I' for Inactive)
REMARK    1  A    between atoms: C_1  and  C_2
REMARK    2  A    between atoms: C_2  and  C_3
REMARK    3  A    between atoms: C_5  and  N_6
REMARK    4  A    between atoms: C_10  and  C_11
REMARK    5  A    between atoms: N_14  and  C_15
REMARK    6  A    between atoms: C_22  and  C_23
REMARK    7  A    between atoms: N_25  and  C_26
REMARK                            x       y       z     vdW  Elec       q    Type
REMARK                         _______ _______ _______ _____ _____    ______ ____
ROOT
ATOM      1  N   UNL     1      -5.720  12.744  19.685  0.00  0.00    +0.000 N 
ATOM      2  C   UNL     1      -6.354  12.303  18.492  0.00  0.00    +0.000 A 
ATOM      3  O   UNL     1      -7.550  12.509  18.294  0.00  0.00    +0.000 OA
ATOM      4  N   UNL     1      -5.646  11.634  17.522  0.00  0.00    +0.000 NA
ATOM      5  C   UNL     1      -4.374  11.430  17.633  0.00  0.00    +0.000 A 
ATOM      6  C   UNL     1      -3.685  11.892  18.791  0.00  0.00    +0.000 A 
ATOM      7  O   UNL     1      -2.358  11.783  19.040  0.00  0.00    +0.000 OA
ATOM      8  C   UNL     1      -2.152  12.383  20.253  0.00  0.00    +0.000 A 
ATOM      9  C   UNL     1      -0.913  12.517  20.882  0.00  0.00    +0.000 A 
ATOM     10  C   UNL     1      -0.889  13.180  22.122  0.00  0.00    +0.000 A 
ATOM     11  C   UNL     1      -2.057  13.679  22.714  0.00  0.00    +0.000 A 
ATOM     12  C   UNL     1      -3.287  13.507  22.044  0.00  0.00    +0.000 A 
ATOM     13  C   UNL     1      -3.352  12.861  20.786  0.00  0.00    +0.000 A 
ATOM     14  C   UNL     1      -4.341  12.538  19.810  0.00  0.00    +0.000 A 
ENDROOT
BRANCH   1  17
ATOM     15  C   UNL     1      -6.913  15.537  22.043  0.00  0.00    +0.000 C 
ATOM     16  C   UNL     1      -6.098  14.884  20.926  0.00  0.00    +0.000 C 
ATOM     17  C   UNL     1      -6.527  13.429  20.706  0.00  0.00    +0.000 C 
ATOM     18  C   UNL     1      -6.620  12.648  22.020  0.00  0.00    +0.000 C 
ATOM     19  C   UNL     1      -7.447  13.434  23.024  0.00  0.00    +0.000 C 
ATOM     20  O   UNL     1      -6.884  14.729  23.224  0.00  0.00    +0.000 OA
BRANCH  15  22
ATOM     21  C   UNL     1      -4.819  16.860  22.625  0.00  0.00    +0.000 C 
ATOM     22  C   UNL     1      -6.316  16.912  22.367  0.00  0.00    +0.000 C 
ENDBRANCH  15  22
ENDBRANCH   1  17
BRANCH   5  23
ATOM     23  C   UNL     1      -3.731  10.735  16.538  0.00  0.00    +0.000 A 
ATOM     24  C   UNL     1      -2.588   9.907  16.469  0.00  0.00    +0.000 A 
ATOM     25  N   UNL     1      -2.327   9.478  15.227  0.00  0.00    +0.000 NA
ATOM     26  N   UNL     1      -3.303  10.031  14.487  0.00  0.00    +0.000 N 
ATOM     27  C   UNL     1      -3.361   9.830  13.059  0.00  0.00    +0.000 C 
ATOM     28  C   UNL     1      -4.168  10.778  15.223  0.00  0.00    +0.000 A 
ENDBRANCH   5  23
BRANCH  11  29
ATOM     29  C   UNL     1      -2.046  14.389  23.992  0.00  0.00    +0.000 A 
ATOM     30  C   UNL     1      -1.015  15.134  24.534  0.00  0.00    +0.000 A 
ATOM     31  N   UNL     1      -1.503  15.624  25.713  0.00  0.00    +0.000 N 
ATOM     32  C   UNL     1      -0.821  16.492  26.641  0.00  0.00    +0.000 C 
ATOM     33  C   UNL     1      -2.778  15.164  25.862  0.00  0.00    +0.000 A 
ATOM     34  N   UNL     1      -3.137  14.419  24.841  0.00  0.00    +0.000 NA
ENDBRANCH  11  29
TORSDOF 4
ENDMDL
MODEL 7
REMARK VINA RESULT:      -6.7      5.029      7.508
REMARK  Name = 
REMARK  7 active torsions:
REMARK  status: ('A' for Active; 'I' for Inactive)
REMARK    1  A    between atoms: C_1  and  C_2
REMARK    2  A    between atoms: C_2  and  C_3
REMARK    3  A    between atoms: C_5  and  N_6
REMARK    4  A    between atoms: C_10  and  C_11
REMARK    5  A    between atoms: N_14  and  C_15
REMARK    6  A    between atoms: C_22  and  C_23
REMARK    7  A    between atoms: N_25  and  C_26
REMARK                            x       y       z     vdW  Elec       q    Type
REMARK                         _______ _______ _______ _____ _____    ______ ____
ROOT
ATOM      1  N   UNL     1      -5.639  12.870  20.610  0.00  0.00    +0.000 N 
ATOM      2  C   UNL     1      -6.310  12.194  19.554  0.00  0.00    +0.000 A 
ATOM      3  O   UNL     1      -7.537  12.166  19.498  0.00  0.00    +0.000 OA
ATOM      4  N   UNL     1      -5.604  11.554  18.564  0.00  0.00    +0.000 NA
ATOM      5  C   UNL     1      -4.312  11.588  18.525  0.00  0.00    +0.000 A 
ATOM      6  C   UNL     1      -3.595  12.290  19.536  0.00  0.00    +0.000 A 
ATOM      7  O   UNL     1      -2.251  12.441  19.618  0.00  0.00    +0.000 OA
ATOM      8  C   UNL     1      -2.025  13.201  20.734  0.00  0.00    +0.000 A 
ATOM      9  C   UNL     1      -0.770  13.617  21.181  0.00  0.00    +0.000 A 
ATOM     10  C   UNL     1      -0.730  14.409  22.342  0.00  0.00    +0.000 A 
ATOM     11  C   UNL     1      -1.896  14.761  23.035  0.00  0.00    +0.000 A 
ATOM     12  C   UNL     1      -3.140  14.304  22.550  0.00  0.00    +0.000 A 
ATOM     13  C   UNL     1      -3.224  13.519  21.375  0.00  0.00    +0.000 A 
ATOM     14  C   UNL     1      -4.240  12.922  20.570  0.00  0.00    +0.000 A 
ENDROOT
BRANCH   1  17
ATOM     15  C   UNL     1      -7.033  15.655  22.864  0.00  0.00    +0.000 C 
ATOM     16  C   UNL     1      -6.241  15.033  21.714  0.00  0.00    +0.000 C 
ATOM     17  C   UNL     1      -6.438  13.514  21.662  0.00  0.00    +0.000 C 
ATOM     18  C   UNL     1      -6.261  12.861  23.035  0.00  0.00    +0.000 C 
ATOM     19  C   UNL     1      -7.099  13.599  24.065  0.00  0.00    +0.000 C 
ATOM     20  O   UNL     1      -6.745  14.981  24.093  0.00  0.00    +0.000 OA
BRANCH  15  22
ATOM     21  C   UNL     1      -5.419  17.502  22.188  0.00  0.00    +0.000 C 
ATOM     22  C   UNL     1      -6.646  17.132  23.005  0.00  0.00    +0.000 C 
ENDBRANCH  15  22
ENDBRANCH   1  17
BRANCH   5  23
ATOM     23  C   UNL     1      -3.678  10.898  17.422  0.00  0.00    +0.000 A 
ATOM     24  C   UNL     1      -2.549  10.052  17.344  0.00  0.00    +0.000 A 
ATOM     25  N   UNL     1      -2.292   9.634  16.097  0.00  0.00    +0.000 NA
ATOM     26  N   UNL     1      -3.257  10.213  15.363  0.00  0.00    +0.000 N 
ATOM     27  C   UNL     1      -3.317  10.032  13.932  0.00  0.00    +0.000 C 
ATOM     28  C   UNL     1      -4.112  10.964  16.107  0.00  0.00    +0.000 A 
ENDBRANCH   5  23
BRANCH  11  29
ATOM     29  C   UNL     1      -1.874  15.601  24.232  0.00  0.00    +0.000 A 
ATOM     30  C   UNL     1      -0.851  15.729  25.153  0.00  0.00    +0.000 A 
ATOM     31  N   UNL     1      -1.291  16.654  26.058  0.00  0.00    +0.000 N 
ATOM     32  C   UNL     1      -0.573  17.162  27.200  0.00  0.00    +0.000 C 
ATOM     33  C   UNL     1      -2.543  17.043  25.682  0.00  0.00    +0.000 A 
ATOM     34  N   UNL     1      -2.923  16.429  24.585  0.00  0.00    +0.000 NA
ENDBRANCH  11  29
TORSDOF 4
ENDMDL
MODEL 8
REMARK VINA RESULT:      -6.7      3.376      5.013
REMARK  Name = 
REMARK  7 active torsions:
REMARK  status: ('A' for Active; 'I' for Inactive)
REMARK    1  A    between atoms: C_1  and  C_2
REMARK    2  A    between atoms: C_2  and  C_3
REMARK    3  A    between atoms: C_5  and  N_6
REMARK    4  A    between atoms: C_10  and  C_11
REMARK    5  A    between atoms: N_14  and  C_15
REMARK    6  A    between atoms: C_22  and  C_23
REMARK    7  A    between atoms: N_25  and  C_26
REMARK                            x       y       z     vdW  Elec       q    Type
REMARK                         _______ _______ _______ _____ _____    ______ ____
ROOT
ATOM      1  N   UNL     1      -0.080  12.408  20.107  0.00  0.00    +0.000 N 
ATOM      2  C   UNL     1       1.247  12.057  20.477  0.00  0.00    +0.000 A 
ATOM      3  O   UNL     1       1.921  12.792  21.197  0.00  0.00    +0.000 OA
ATOM      4  N   UNL     1       1.816  10.884  20.042  0.00  0.00    +0.000 NA
ATOM      5  C   UNL     1       1.150  10.034  19.329  0.00  0.00    +0.000 A 
ATOM      6  C   UNL     1      -0.198  10.320  18.970  0.00  0.00    +0.000 A 
ATOM      7  O   UNL     1      -1.032   9.524  18.258  0.00  0.00    +0.000 OA
ATOM      8  C   UNL     1      -2.221  10.197  18.180  0.00  0.00    +0.000 A 
ATOM      9  C   UNL     1      -3.372   9.723  17.549  0.00  0.00    +0.000 A 
ATOM     10  C   UNL     1      -4.511  10.548  17.582  0.00  0.00    +0.000 A 
ATOM     11  C   UNL     1      -4.496  11.799  18.211  0.00  0.00    +0.000 A 
ATOM     12  C   UNL     1      -3.304  12.239  18.824  0.00  0.00    +0.000 A 
ATOM     13  C   UNL     1      -2.141  11.432  18.828  0.00  0.00    +0.000 A 
ATOM     14  C   UNL     1      -0.812  11.489  19.346  0.00  0.00    +0.000 A 
ENDROOT
BRANCH   1  17
ATOM     15  C   UNL     1      -2.497  14.874  21.798  0.00  0.00    +0.000 C 
ATOM     16  C   UNL     1      -1.917  13.518  21.393  0.00  0.00    +0.000 C 
ATOM     17  C   UNL     1      -0.632  13.688  20.574  0.00  0.00    +0.000 C 
ATOM     18  C   UNL     1      -0.793  14.716  19.451  0.00  0.00    +0.000 C 
ATOM     19  C   UNL     1      -1.391  15.996  20.012  0.00  0.00    +0.000 C 
ATOM     20  O   UNL     1      -2.635  15.723  20.654  0.00  0.00    +0.000 OA
BRANCH  15  22
ATOM     21  C   UNL     1      -4.358  15.876  23.213  0.00  0.00    +0.000 C 
ATOM     22  C   UNL     1      -3.878  14.665  22.431  0.00  0.00    +0.000 C 
ENDBRANCH  15  22
ENDBRANCH   1  17
BRANCH   5  23
ATOM     23  C   UNL     1       1.844   8.822  18.949  0.00  0.00    +0.000 A 
ATOM     24  C   UNL     1       2.536   8.443  17.777  0.00  0.00    +0.000 A 
ATOM     25  N   UNL     1       3.023   7.196  17.837  0.00  0.00    +0.000 NA
ATOM     26  N   UNL     1       2.645   6.765  19.052  0.00  0.00    +0.000 N 
ATOM     27  C   UNL     1       2.958   5.429  19.500  0.00  0.00    +0.000 C 
ATOM     28  C   UNL     1       1.952   7.699  19.755  0.00  0.00    +0.000 A 
ENDBRANCH   5  23
BRANCH  11  29
ATOM     29  C   UNL     1      -5.677  12.660  18.274  0.00  0.00    +0.000 A 
ATOM     30  C   UNL     1      -6.012  13.560  19.268  0.00  0.00    +0.000 A 
ATOM     31  N   UNL     1      -7.176  14.144  18.851  0.00  0.00    +0.000 N 
ATOM     32  C   UNL     1      -7.917  15.180  19.525  0.00  0.00    +0.000 C 
ATOM     33  C   UNL     1      -7.519  13.586  17.655  0.00  0.00    +0.000 A 
ATOM     34  N   UNL     1      -6.636  12.689  17.278  0.00  0.00    +0.000 NA
ENDBRANCH  11  29
TORSDOF 4
ENDMDL
MODEL 9
REMARK VINA RESULT:      -6.7      3.587      5.548
REMARK  Name = 
REMARK  7 active torsions:
REMARK  status: ('A' for Active; 'I' for Inactive)
REMARK    1  A    between atoms: C_1  and  C_2
REMARK    2  A    between atoms: C_2  and  C_3
REMARK    3  A    between atoms: C_5  and  N_6
REMARK    4  A    between atoms: C_10  and  C_11
REMARK    5  A    between atoms: N_14  and  C_15
REMARK    6  A    between atoms: C_22  and  C_23
REMARK    7  A    between atoms: N_25  and  C_26
REMARK                            x       y       z     vdW  Elec       q    Type
REMARK                         _______ _______ _______ _____ _____    ______ ____
ROOT
ATOM      1  N   UNL     1      -0.504  11.430  20.338  0.00  0.00    +0.000 N 
ATOM      2  C   UNL     1       0.715  10.987  20.921  0.00  0.00    +0.000 A 
ATOM      3  O   UNL     1       1.110  11.444  21.991  0.00  0.00    +0.000 OA
ATOM      4  N   UNL     1       1.487  10.032  20.303  0.00  0.00    +0.000 NA
ATOM      5  C   UNL     1       1.109   9.465  19.204  0.00  0.00    +0.000 A 
ATOM      6  C   UNL     1      -0.126   9.843  18.605  0.00  0.00    +0.000 A 
ATOM      7  O   UNL     1      -0.672   9.325  17.478  0.00  0.00    +0.000 OA
ATOM      8  C   UNL     1      -1.863   9.976  17.301  0.00  0.00    +0.000 A 
ATOM      9  C   UNL     1      -2.765   9.732  16.265  0.00  0.00    +0.000 A 
ATOM     10  C   UNL     1      -3.951  10.488  16.252  0.00  0.00    +0.000 A 
ATOM     11  C   UNL     1      -4.218  11.456  17.228  0.00  0.00    +0.000 A 
ATOM     12  C   UNL     1      -3.267  11.675  18.248  0.00  0.00    +0.000 A 
ATOM     13  C   UNL     1      -2.070  10.923  18.307  0.00  0.00    +0.000 A 
ATOM     14  C   UNL     1      -0.927  10.814  19.155  0.00  0.00    +0.000 A 
ENDROOT
BRANCH   1  17
ATOM     15  C   UNL     1      -3.504  13.175  21.994  0.00  0.00    +0.000 C 
ATOM     16  C   UNL     1      -2.711  12.038  21.348  0.00  0.00    +0.000 C 
ATOM     17  C   UNL     1      -1.279  12.476  21.023  0.00  0.00    +0.000 C 
ATOM     18  C   UNL     1      -1.236  13.825  20.300  0.00  0.00    +0.000 C 
ATOM     19  C   UNL     1      -2.079  14.837  21.057  0.00  0.00    +0.000 C 
ATOM     20  O   UNL     1      -3.416  14.362  21.199  0.00  0.00    +0.000 OA
BRANCH  15  22
ATOM     21  C   UNL     1      -5.520  12.912  23.522  0.00  0.00    +0.000 C 
ATOM     22  C   UNL     1      -4.976  12.763  22.111  0.00  0.00    +0.000 C 
ENDBRANCH  15  22
ENDBRANCH   1  17
BRANCH   5  23
ATOM     23  C   UNL     1       1.992   8.456  18.658  0.00  0.00    +0.000 A 
ATOM     24  C   UNL     1       2.770   8.401  17.480  0.00  0.00    +0.000 A 
ATOM     25  N   UNL     1       3.440   7.249  17.348  0.00  0.00    +0.000 NA
ATOM     26  N   UNL     1       3.094   6.553  18.444  0.00  0.00    +0.000 N 
ATOM     27  C   UNL     1       3.593   5.217  18.668  0.00  0.00    +0.000 C 
ATOM     28  C   UNL     1       2.244   7.232  19.259  0.00  0.00    +0.000 A 
ENDBRANCH   5  23
BRANCH  11  29
ATOM     29  C   UNL     1      -5.455  12.236  17.242  0.00  0.00    +0.000 A 
ATOM     30  C   UNL     1      -5.829  13.238  16.366  0.00  0.00    +0.000 A 
ATOM     31  N   UNL     1      -7.076  13.626  16.769  0.00  0.00    +0.000 N 
ATOM     32  C   UNL     1      -7.916  14.624  16.155  0.00  0.00    +0.000 C 
ATOM     33  C   UNL     1      -7.413  12.880  17.860  0.00  0.00    +0.000 A 
ATOM     34  N   UNL     1      -6.459  12.033  18.170  0.00  0.00    +0.000 NA
ENDBRANCH  11  29
TORSDOF 4
ENDMDL
