MODEL 1
REMARK VINA RESULT:      -8.3      0.000      0.000
REMARK  Name = 
REMARK  9 active torsions:
REMARK  status: ('A' for Active; 'I' for Inactive)
REMARK    1  A    between atoms: C_1  and  C_2
REMARK    2  A    between atoms: C_2  and  C_3
REMARK    3  A    between atoms: C_3  and  C_4
REMARK    4  A    between atoms: C_4  and  C_5
REMARK    5  A    between atoms: C_5  and  N_6
REMARK    6  A    between atoms: C_7  and  C_9
REMARK    7  A    between atoms: N_17  and  C_18
REMARK    8  A    between atoms: C_21  and  O_22
REMARK    9  A    between atoms: O_22  and  C_23
REMARK                            x       y       z     vdW  Elec       q    Type
REMARK                         _______ _______ _______ _____ _____    ______ ____
ROOT
ATOM      1  C   UNL     1       5.198   5.279  16.139  0.00  0.00    +0.000 A 
ATOM      2  C   UNL     1       5.004   6.664  16.207  0.00  0.00    +0.000 A 
ATOM      3  C   UNL     1       4.131   7.229  17.142  0.00  0.00    +0.000 A 
ATOM      4  C   UNL     1       3.458   6.356  18.011  0.00  0.00    +0.000 A 
ATOM      5  C   UNL     1       3.677   4.980  17.987  0.00  0.00    +0.000 A 
ATOM      6  C   UNL     1       4.546   4.423  17.038  0.00  0.00    +0.000 A 
ATOM      7  N   UNL     1       2.986   4.342  18.981  0.00  0.00    +0.000 NA
ATOM      8  C   UNL     1       2.363   5.302  19.626  0.00  0.00    +0.000 A 
ATOM      9  N   UNL     1       2.576   6.547  19.068  0.00  0.00    +0.000 N 
ENDROOT
BRANCH   9  10
ATOM     10  C   UNL     1       1.983   7.754  19.512  0.00  0.00    +0.000 A 
ATOM     11  C   UNL     1       1.608   7.893  20.854  0.00  0.00    +0.000 A 
ATOM     12  C   UNL     1       0.981   9.064  21.279  0.00  0.00    +0.000 A 
ATOM     13  C   UNL     1       0.717  10.102  20.383  0.00  0.00    +0.000 A 
ATOM     14  C   UNL     1       1.094   9.963  19.046  0.00  0.00    +0.000 A 
ATOM     15  C   UNL     1       1.726   8.795  18.613  0.00  0.00    +0.000 A 
BRANCH  13  16
ATOM     16  O   UNL     1       0.027  11.157  20.907  0.00  0.00    +0.000 OA
ATOM     17  C   UNL     1      -0.562  10.957  22.186  0.00  0.00    +0.000 C 
ENDBRANCH  13  16
ENDBRANCH   9  10
BRANCH   1  19
ATOM     18  N   UNL     1       5.579   4.275  13.961  0.00  0.00    +0.000 N 
ATOM     19  C   UNL     1       6.146   4.751  15.124  0.00  0.00    +0.000 C 
ATOM     20  O   UNL     1       7.352   4.782  15.334  0.00  0.00    +0.000 OA
ATOM     21  H   UNL     1       4.583   4.357  13.814  0.00  0.00    +0.000 HD
BRANCH  18  22
ATOM     22  C   UNL     1       6.375   3.701  12.897  0.00  0.00    +0.000 C 
BRANCH  22  23
ATOM     23  C   UNL     1       5.533   2.901  11.903  0.00  0.00    +0.000 C 
BRANCH  23  24
ATOM     24  C   UNL     1       4.149   3.516  11.675  0.00  0.00    +0.000 C 
BRANCH  24  26
ATOM     25  C   UNL     1       2.834   4.353   9.698  0.00  0.00    +0.000 C 
ATOM     26  C   UNL     1       3.607   3.183  10.285  0.00  0.00    +0.000 C 
ENDBRANCH  24  26
ENDBRANCH  23  24
ENDBRANCH  22  23
ENDBRANCH  18  22
ENDBRANCH   1  19
TORSDOF 7
ENDMDL
MODEL 2
REMARK VINA RESULT:      -7.9      0.611      1.141
REMARK  Name = 
REMARK  9 active torsions:
REMARK  status: ('A' for Active; 'I' for Inactive)
REMARK    1  A    between atoms: C_1  and  C_2
REMARK    2  A    between atoms: C_2  and  C_3
REMARK    3  A    between atoms: C_3  and  C_4
REMARK    4  A    between atoms: C_4  and  C_5
REMARK    5  A    between atoms: C_5  and  N_6
REMARK    6  A    between atoms: C_7  and  C_9
REMARK    7  A    between atoms: N_17  and  C_18
REMARK    8  A    between atoms: C_21  and  O_22
REMARK    9  A    between atoms: O_22  and  C_23
REMARK                            x       y       z     vdW  Elec       q    Type
REMARK                         _______ _______ _______ _____ _____    ______ ____
ROOT
ATOM      1  C   UNL     1       5.273   5.243  16.455  0.00  0.00    +0.000 A 
ATOM      2  C   UNL     1       4.954   6.604  16.375  0.00  0.00    +0.000 A 
ATOM      3  C   UNL     1       4.063   7.195  17.275  0.00  0.00    +0.000 A 
ATOM      4  C   UNL     1       3.500   6.372  18.264  0.00  0.00    +0.000 A 
ATOM      5  C   UNL     1       3.845   5.028  18.386  0.00  0.00    +0.000 A 
ATOM      6  C   UNL     1       4.731   4.443  17.471  0.00  0.00    +0.000 A 
ATOM      7  N   UNL     1       3.246   4.451  19.474  0.00  0.00    +0.000 NA
ATOM      8  C   UNL     1       2.559   5.420  20.031  0.00  0.00    +0.000 A 
ATOM      9  N   UNL     1       2.638   6.605  19.329  0.00  0.00    +0.000 N 
ENDROOT
BRANCH   9  10
ATOM     10  C   UNL     1       1.950   7.799  19.658  0.00  0.00    +0.000 A 
ATOM     11  C   UNL     1       1.721   8.766  18.672  0.00  0.00    +0.000 A 
ATOM     12  C   UNL     1       1.086   9.961  19.008  0.00  0.00    +0.000 A 
ATOM     13  C   UNL     1       0.679  10.212  20.320  0.00  0.00    +0.000 A 
ATOM     14  C   UNL     1       0.905   9.246  21.302  0.00  0.00    +0.000 A 
ATOM     15  C   UNL     1       1.536   8.044  20.972  0.00  0.00    +0.000 A 
BRANCH  13  16
ATOM     16  O   UNL     1       0.144  11.449  20.533  0.00  0.00    +0.000 OA
ATOM     17  C   UNL     1      -1.140  11.691  19.970  0.00  0.00    +0.000 C 
ENDBRANCH  13  16
ENDBRANCH   9  10
BRANCH   1  19
ATOM     18  N   UNL     1       5.721   4.412  14.218  0.00  0.00    +0.000 N 
ATOM     19  C   UNL     1       6.234   4.687  15.467  0.00  0.00    +0.000 C 
ATOM     20  O   UNL     1       7.407   4.525  15.775  0.00  0.00    +0.000 OA
ATOM     21  H   UNL     1       4.762   4.649  14.001  0.00  0.00    +0.000 HD
BRANCH  18  22
ATOM     22  C   UNL     1       6.529   3.837  13.164  0.00  0.00    +0.000 C 
BRANCH  22  23
ATOM     23  C   UNL     1       5.695   3.065  12.141  0.00  0.00    +0.000 C 
BRANCH  23  24
ATOM     24  C   UNL     1       4.783   3.978  11.317  0.00  0.00    +0.000 C 
BRANCH  24  26
ATOM     25  C   UNL     1       2.864   3.976   9.686  0.00  0.00    +0.000 C 
ATOM     26  C   UNL     1       3.534   3.239  10.835  0.00  0.00    +0.000 C 
ENDBRANCH  24  26
ENDBRANCH  23  24
ENDBRANCH  22  23
ENDBRANCH  18  22
ENDBRANCH   1  19
TORSDOF 7
ENDMDL
MODEL 3
REMARK VINA RESULT:      -7.6      1.148      1.685
REMARK  Name = 
REMARK  9 active torsions:
REMARK  status: ('A' for Active; 'I' for Inactive)
REMARK    1  A    between atoms: C_1  and  C_2
REMARK    2  A    between atoms: C_2  and  C_3
REMARK    3  A    between atoms: C_3  and  C_4
REMARK    4  A    between atoms: C_4  and  C_5
REMARK    5  A    between atoms: C_5  and  N_6
REMARK    6  A    between atoms: C_7  and  C_9
REMARK    7  A    between atoms: N_17  and  C_18
REMARK    8  A    between atoms: C_21  and  O_22
REMARK    9  A    between atoms: O_22  and  C_23
REMARK                            x       y       z     vdW  Elec       q    Type
REMARK                         _______ _______ _______ _____ _____    ______ ____
ROOT
ATOM      1  C   UNL     1       5.757   5.404  16.387  0.00  0.00    +0.000 A 
ATOM      2  C   UNL     1       5.460   6.768  16.498  0.00  0.00    +0.000 A 
ATOM      3  C   UNL     1       4.451   7.223  17.352  0.00  0.00    +0.000 A 
ATOM      4  C   UNL     1       3.748   6.261  18.095  0.00  0.00    +0.000 A 
ATOM      5  C   UNL     1       4.064   4.906  18.031  0.00  0.00    +0.000 A 
ATOM      6  C   UNL     1       5.071   4.459  17.163  0.00  0.00    +0.000 A 
ATOM      7  N   UNL     1       3.313   4.171  18.907  0.00  0.00    +0.000 NA
ATOM      8  C   UNL     1       2.557   5.052  19.521  0.00  0.00    +0.000 A 
ATOM      9  N   UNL     1       2.742   6.336  19.052  0.00  0.00    +0.000 N 
ENDROOT
BRANCH   9  10
ATOM     10  C   UNL     1       2.021   7.477  19.482  0.00  0.00    +0.000 A 
ATOM     11  C   UNL     1       1.780   8.527  18.587  0.00  0.00    +0.000 A 
ATOM     12  C   UNL     1       1.111   9.669  19.026  0.00  0.00    +0.000 A 
ATOM     13  C   UNL     1       0.680   9.784  20.348  0.00  0.00    +0.000 A 
ATOM     14  C   UNL     1       0.918   8.735  21.238  0.00  0.00    +0.000 A 
ATOM     15  C   UNL     1       1.583   7.585  20.806  0.00  0.00    +0.000 A 
BRANCH  13  16
ATOM     16  O   UNL     1       0.112  10.983  20.669  0.00  0.00    +0.000 OA
ATOM     17  C   UNL     1      -0.969  11.412  19.851  0.00  0.00    +0.000 C 
ENDBRANCH  13  16
ENDBRANCH   9  10
BRANCH   1  19
ATOM     18  N   UNL     1       6.637   5.265  14.127  0.00  0.00    +0.000 N 
ATOM     19  C   UNL     1       6.847   4.996  15.463  0.00  0.00    +0.000 C 
ATOM     20  O   UNL     1       7.866   4.480  15.904  0.00  0.00    +0.000 OA
ATOM     21  H   UNL     1       5.812   5.770  13.838  0.00  0.00    +0.000 HD
BRANCH  18  22
ATOM     22  C   UNL     1       7.596   4.895  13.108  0.00  0.00    +0.000 C 
BRANCH  22  23
ATOM     23  C   UNL     1       7.113   3.728  12.246  0.00  0.00    +0.000 C 
BRANCH  23  24
ATOM     24  C   UNL     1       5.591   3.556  12.289  0.00  0.00    +0.000 C 
BRANCH  24  26
ATOM     25  C   UNL     1       6.326   1.441  11.137  0.00  0.00    +0.000 C 
ATOM     26  C   UNL     1       5.143   2.322  11.505  0.00  0.00    +0.000 C 
ENDBRANCH  24  26
ENDBRANCH  23  24
ENDBRANCH  22  23
ENDBRANCH  18  22
ENDBRANCH   1  19
TORSDOF 7
ENDMDL
MODEL 4
REMARK VINA RESULT:      -7.4      2.443      8.284
REMARK  Name = 
REMARK  9 active torsions:
REMARK  status: ('A' for Active; 'I' for Inactive)
REMARK    1  A    between atoms: C_1  and  C_2
REMARK    2  A    between atoms: C_2  and  C_3
REMARK    3  A    between atoms: C_3  and  C_4
REMARK    4  A    between atoms: C_4  and  C_5
REMARK    5  A    between atoms: C_5  and  N_6
REMARK    6  A    between atoms: C_7  and  C_9
REMARK    7  A    between atoms: N_17  and  C_18
REMARK    8  A    between atoms: C_21  and  O_22
REMARK    9  A    between atoms: O_22  and  C_23
REMARK                            x       y       z     vdW  Elec       q    Type
REMARK                         _______ _______ _______ _____ _____    ______ ____
ROOT
ATOM      1  C   UNL     1       1.196   8.647  19.634  0.00  0.00    +0.000 A 
ATOM      2  C   UNL     1       1.883   8.881  18.436  0.00  0.00    +0.000 A 
ATOM      3  C   UNL     1       2.849   7.987  17.966  0.00  0.00    +0.000 A 
ATOM      4  C   UNL     1       3.104   6.843  18.741  0.00  0.00    +0.000 A 
ATOM      5  C   UNL     1       2.396   6.573  19.909  0.00  0.00    +0.000 A 
ATOM      6  C   UNL     1       1.437   7.483  20.377  0.00  0.00    +0.000 A 
ATOM      7  N   UNL     1       2.748   5.363  20.444  0.00  0.00    +0.000 NA
ATOM      8  C   UNL     1       3.643   4.879  19.614  0.00  0.00    +0.000 A 
ATOM      9  N   UNL     1       3.935   5.741  18.577  0.00  0.00    +0.000 N 
ENDROOT
BRANCH   9  10
ATOM     10  C   UNL     1       4.904   5.512  17.570  0.00  0.00    +0.000 A 
ATOM     11  C   UNL     1       6.150   6.148  17.646  0.00  0.00    +0.000 A 
ATOM     12  C   UNL     1       7.086   5.958  16.629  0.00  0.00    +0.000 A 
ATOM     13  C   UNL     1       6.797   5.146  15.532  0.00  0.00    +0.000 A 
ATOM     14  C   UNL     1       5.556   4.510  15.460  0.00  0.00    +0.000 A 
ATOM     15  C   UNL     1       4.615   4.690  16.476  0.00  0.00    +0.000 A 
BRANCH  13  16
ATOM     16  O   UNL     1       7.764   5.108  14.569  0.00  0.00    +0.000 OA
ATOM     17  C   UNL     1       7.324   4.876  13.237  0.00  0.00    +0.000 C 
ENDBRANCH  13  16
ENDBRANCH   9  10
BRANCH   1  19
ATOM     18  N   UNL     1      -0.187  10.578  19.124  0.00  0.00    +0.000 N 
ATOM     19  C   UNL     1       0.179   9.640  20.066  0.00  0.00    +0.000 C 
ATOM     20  O   UNL     1      -0.302   9.577  21.190  0.00  0.00    +0.000 OA
ATOM     21  H   UNL     1       0.184  10.522  18.186  0.00  0.00    +0.000 HD
BRANCH  18  22
ATOM     22  C   UNL     1      -1.142  11.626  19.413  0.00  0.00    +0.000 C 
BRANCH  22  23
ATOM     23  C   UNL     1      -2.370  11.565  18.505  0.00  0.00    +0.000 C 
BRANCH  23  24
ATOM     24  C   UNL     1      -2.221  10.534  17.382  0.00  0.00    +0.000 C 
BRANCH  24  26
ATOM     25  C   UNL     1      -2.904   9.931  15.035  0.00  0.00    +0.000 C 
ATOM     26  C   UNL     1      -2.817  11.042  16.068  0.00  0.00    +0.000 C 
ENDBRANCH  24  26
ENDBRANCH  23  24
ENDBRANCH  22  23
ENDBRANCH  18  22
ENDBRANCH   1  19
TORSDOF 7
ENDMDL
MODEL 5
REMARK VINA RESULT:      -7.3      3.514      5.324
REMARK  Name = 
REMARK  9 active torsions:
REMARK  status: ('A' for Active; 'I' for Inactive)
REMARK    1  A    between atoms: C_1  and  C_2
REMARK    2  A    between atoms: C_2  and  C_3
REMARK    3  A    between atoms: C_3  and  C_4
REMARK    4  A    between atoms: C_4  and  C_5
REMARK    5  A    between atoms: C_5  and  N_6
REMARK    6  A    between atoms: C_7  and  C_9
REMARK    7  A    between atoms: N_17  and  C_18
REMARK    8  A    between atoms: C_21  and  O_22
REMARK    9  A    between atoms: O_22  and  C_23
REMARK                            x       y       z     vdW  Elec       q    Type
REMARK                         _______ _______ _______ _____ _____    ______ ____
ROOT
ATOM      1  C   UNL     1       2.884   6.551  19.072  0.00  0.00    +0.000 A 
ATOM      2  C   UNL     1       2.211   6.644  20.297  0.00  0.00    +0.000 A 
ATOM      3  C   UNL     1       1.443   7.767  20.618  0.00  0.00    +0.000 A 
ATOM      4  C   UNL     1       1.371   8.798  19.667  0.00  0.00    +0.000 A 
ATOM      5  C   UNL     1       1.996   8.698  18.426  0.00  0.00    +0.000 A 
ATOM      6  C   UNL     1       2.773   7.572  18.118  0.00  0.00    +0.000 A 
ATOM      7  N   UNL     1       1.713   9.775  17.630  0.00  0.00    +0.000 NA
ATOM      8  C   UNL     1       0.910  10.522  18.353  0.00  0.00    +0.000 A 
ATOM      9  N   UNL     1       0.690  10.008  19.614  0.00  0.00    +0.000 N 
ENDROOT
BRANCH   9  10
ATOM     10  C   UNL     1      -0.080  10.629  20.628  0.00  0.00    +0.000 A 
ATOM     11  C   UNL     1      -0.753  11.826  20.356  0.00  0.00    +0.000 A 
ATOM     12  C   UNL     1      -1.471  12.461  21.369  0.00  0.00    +0.000 A 
ATOM     13  C   UNL     1      -1.525  11.922  22.656  0.00  0.00    +0.000 A 
ATOM     14  C   UNL     1      -0.856  10.727  22.925  0.00  0.00    +0.000 A 
ATOM     15  C   UNL     1      -0.138  10.082  21.914  0.00  0.00    +0.000 A 
BRANCH  13  16
ATOM     16  O   UNL     1      -2.192  12.682  23.574  0.00  0.00    +0.000 OA
ATOM     17  C   UNL     1      -3.541  12.317  23.838  0.00  0.00    +0.000 C 
ENDBRANCH  13  16
ENDBRANCH   9  10
BRANCH   1  19
ATOM     18  N   UNL     1       3.301   4.599  17.688  0.00  0.00    +0.000 N 
ATOM     19  C   UNL     1       3.677   5.324  18.798  0.00  0.00    +0.000 C 
ATOM     20  O   UNL     1       4.617   5.025  19.524  0.00  0.00    +0.000 OA
ATOM     21  H   UNL     1       2.571   4.946  17.081  0.00  0.00    +0.000 HD
BRANCH  18  22
ATOM     22  C   UNL     1       3.960   3.366  17.315  0.00  0.00    +0.000 C 
BRANCH  22  23
ATOM     23  C   UNL     1       3.241   2.131  17.859  0.00  0.00    +0.000 C 
BRANCH  23  24
ATOM     24  C   UNL     1       1.803   2.431  18.292  0.00  0.00    +0.000 C 
BRANCH  24  26
ATOM     25  C   UNL     1       0.826   3.445  20.379  0.00  0.00    +0.000 C 
ATOM     26  C   UNL     1       1.630   2.290  19.805  0.00  0.00    +0.000 C 
ENDBRANCH  24  26
ENDBRANCH  23  24
ENDBRANCH  22  23
ENDBRANCH  18  22
ENDBRANCH   1  19
TORSDOF 7
ENDMDL
MODEL 6
REMARK VINA RESULT:      -7.3      2.624      8.438
REMARK  Name = 
REMARK  9 active torsions:
REMARK  status: ('A' for Active; 'I' for Inactive)
REMARK    1  A    between atoms: C_1  and  C_2
REMARK    2  A    between atoms: C_2  and  C_3
REMARK    3  A    between atoms: C_3  and  C_4
REMARK    4  A    between atoms: C_4  and  C_5
REMARK    5  A    between atoms: C_5  and  N_6
REMARK    6  A    between atoms: C_7  and  C_9
REMARK    7  A    between atoms: N_17  and  C_18
REMARK    8  A    between atoms: C_21  and  O_22
REMARK    9  A    between atoms: O_22  and  C_23
REMARK                            x       y       z     vdW  Elec       q    Type
REMARK                         _______ _______ _______ _____ _____    ______ ____
ROOT
ATOM      1  C   UNL     1       0.949   9.499  19.421  0.00  0.00    +0.000 A 
ATOM      2  C   UNL     1       1.497   9.440  18.134  0.00  0.00    +0.000 A 
ATOM      3  C   UNL     1       2.299   8.367  17.734  0.00  0.00    +0.000 A 
ATOM      4  C   UNL     1       2.535   7.350  18.673  0.00  0.00    +0.000 A 
ATOM      5  C   UNL     1       1.959   7.371  19.941  0.00  0.00    +0.000 A 
ATOM      6  C   UNL     1       1.164   8.457  20.335  0.00  0.00    +0.000 A 
ATOM      7  N   UNL     1       2.252   6.236  20.647  0.00  0.00    +0.000 NA
ATOM      8  C   UNL     1       2.980   5.511  19.829  0.00  0.00    +0.000 A 
ATOM      9  N   UNL     1       3.222   6.143  18.626  0.00  0.00    +0.000 N 
ENDROOT
BRANCH   9  10
ATOM     10  C   UNL     1       4.027   5.629  17.580  0.00  0.00    +0.000 A 
ATOM     11  C   UNL     1       4.066   4.249  17.344  0.00  0.00    +0.000 A 
ATOM     12  C   UNL     1       4.895   3.741  16.345  0.00  0.00    +0.000 A 
ATOM     13  C   UNL     1       5.693   4.589  15.576  0.00  0.00    +0.000 A 
ATOM     14  C   UNL     1       5.652   5.965  15.809  0.00  0.00    +0.000 A 
ATOM     15  C   UNL     1       4.820   6.483  16.805  0.00  0.00    +0.000 A 
BRANCH  13  16
ATOM     16  O   UNL     1       6.518   3.960  14.688  0.00  0.00    +0.000 OA
ATOM     17  C   UNL     1       7.130   4.781  13.701  0.00  0.00    +0.000 C 
ENDBRANCH  13  16
ENDBRANCH   9  10
BRANCH   1  19
ATOM     18  N   UNL     1      -1.120  10.738  19.136  0.00  0.00    +0.000 N 
ATOM     19  C   UNL     1       0.101  10.667  19.772  0.00  0.00    +0.000 C 
ATOM     20  O   UNL     1       0.488  11.481  20.600  0.00  0.00    +0.000 OA
ATOM     21  H   UNL     1      -1.417   9.988  18.527  0.00  0.00    +0.000 HD
BRANCH  18  22
ATOM     22  C   UNL     1      -2.038  11.835  19.353  0.00  0.00    +0.000 C 
BRANCH  22  23
ATOM     23  C   UNL     1      -3.232  11.798  18.399  0.00  0.00    +0.000 C 
BRANCH  23  24
ATOM     24  C   UNL     1      -3.163  10.625  17.417  0.00  0.00    +0.000 C 
BRANCH  24  26
ATOM     25  C   UNL     1      -3.159  10.149  14.944  0.00  0.00    +0.000 C 
ATOM     26  C   UNL     1      -3.758  10.994  16.057  0.00  0.00    +0.000 C 
ENDBRANCH  24  26
ENDBRANCH  23  24
ENDBRANCH  22  23
ENDBRANCH  18  22
ENDBRANCH   1  19
TORSDOF 7
ENDMDL
MODEL 7
REMARK VINA RESULT:      -7.3      2.405      9.365
REMARK  Name = 
REMARK  9 active torsions:
REMARK  status: ('A' for Active; 'I' for Inactive)
REMARK    1  A    between atoms: C_1  and  C_2
REMARK    2  A    between atoms: C_2  and  C_3
REMARK    3  A    between atoms: C_3  and  C_4
REMARK    4  A    between atoms: C_4  and  C_5
REMARK    5  A    between atoms: C_5  and  N_6
REMARK    6  A    between atoms: C_7  and  C_9
REMARK    7  A    between atoms: N_17  and  C_18
REMARK    8  A    between atoms: C_21  and  O_22
REMARK    9  A    between atoms: O_22  and  C_23
REMARK                            x       y       z     vdW  Elec       q    Type
REMARK                         _______ _______ _______ _____ _____    ______ ____
ROOT
ATOM      1  C   UNL     1       0.974  10.174  19.359  0.00  0.00    +0.000 A 
ATOM      2  C   UNL     1       1.589   9.998  18.114  0.00  0.00    +0.000 A 
ATOM      3  C   UNL     1       2.255   8.810  17.795  0.00  0.00    +0.000 A 
ATOM      4  C   UNL     1       2.283   7.801  18.770  0.00  0.00    +0.000 A 
ATOM      5  C   UNL     1       1.634   7.943  19.995  0.00  0.00    +0.000 A 
ATOM      6  C   UNL     1       0.979   9.142  20.309  0.00  0.00    +0.000 A 
ATOM      7  N   UNL     1       1.717   6.801  20.745  0.00  0.00    +0.000 NA
ATOM      8  C   UNL     1       2.386   5.956  19.995  0.00  0.00    +0.000 A 
ATOM      9  N   UNL     1       2.792   6.508  18.797  0.00  0.00    +0.000 N 
ENDROOT
BRANCH   9  10
ATOM     10  C   UNL     1       3.581   5.853  17.820  0.00  0.00    +0.000 A 
ATOM     11  C   UNL     1       3.461   4.469  17.642  0.00  0.00    +0.000 A 
ATOM     12  C   UNL     1       4.273   3.819  16.712  0.00  0.00    +0.000 A 
ATOM     13  C   UNL     1       5.210   4.527  15.959  0.00  0.00    +0.000 A 
ATOM     14  C   UNL     1       5.327   5.907  16.136  0.00  0.00    +0.000 A 
ATOM     15  C   UNL     1       4.514   6.567  17.061  0.00  0.00    +0.000 A 
BRANCH  13  16
ATOM     16  O   UNL     1       5.996   3.763  15.146  0.00  0.00    +0.000 OA
ATOM     17  C   UNL     1       6.758   4.457  14.166  0.00  0.00    +0.000 C 
ENDBRANCH  13  16
ENDBRANCH   9  10
BRANCH   1  19
ATOM     18  N   UNL     1      -1.089  11.453  19.459  0.00  0.00    +0.000 N 
ATOM     19  C   UNL     1       0.280  11.461  19.624  0.00  0.00    +0.000 C 
ATOM     20  O   UNL     1       0.918  12.439  19.992  0.00  0.00    +0.000 OA
ATOM     21  H   UNL     1      -1.565  10.590  19.237  0.00  0.00    +0.000 HD
BRANCH  18  22
ATOM     22  C   UNL     1      -1.893  12.640  19.650  0.00  0.00    +0.000 C 
BRANCH  22  23
ATOM     23  C   UNL     1      -2.730  12.581  20.928  0.00  0.00    +0.000 C 
BRANCH  23  24
ATOM     24  C   UNL     1      -1.895  12.824  22.189  0.00  0.00    +0.000 C 
BRANCH  24  26
ATOM     25  C   UNL     1      -0.988  10.645  23.065  0.00  0.00    +0.000 C 
ATOM     26  C   UNL     1      -2.075  11.698  23.208  0.00  0.00    +0.000 C 
ENDBRANCH  24  26
ENDBRANCH  23  24
ENDBRANCH  22  23
ENDBRANCH  18  22
ENDBRANCH   1  19
TORSDOF 7
ENDMDL
MODEL 8
REMARK VINA RESULT:      -7.3      0.931      1.311
REMARK  Name = 
REMARK  9 active torsions:
REMARK  status: ('A' for Active; 'I' for Inactive)
REMARK    1  A    between atoms: C_1  and  C_2
REMARK    2  A    between atoms: C_2  and  C_3
REMARK    3  A    between atoms: C_3  and  C_4
REMARK    4  A    between atoms: C_4  and  C_5
REMARK    5  A    between atoms: C_5  and  N_6
REMARK    6  A    between atoms: C_7  and  C_9
REMARK    7  A    between atoms: N_17  and  C_18
REMARK    8  A    between atoms: C_21  and  O_22
REMARK    9  A    between atoms: O_22  and  C_23
REMARK                            x       y       z     vdW  Elec       q    Type
REMARK                         _______ _______ _______ _____ _____    ______ ____
ROOT
ATOM      1  C   UNL     1       5.067   5.117  16.426  0.00  0.00    +0.000 A 
ATOM      2  C   UNL     1       4.900   6.507  16.392  0.00  0.00    +0.000 A 
ATOM      3  C   UNL     1       4.037   7.155  17.281  0.00  0.00    +0.000 A 
ATOM      4  C   UNL     1       3.344   6.360  18.208  0.00  0.00    +0.000 A 
ATOM      5  C   UNL     1       3.537   4.983  18.285  0.00  0.00    +0.000 A 
ATOM      6  C   UNL     1       4.397   4.341  17.382  0.00  0.00    +0.000 A 
ATOM      7  N   UNL     1       2.831   4.432  19.320  0.00  0.00    +0.000 NA
ATOM      8  C   UNL     1       2.226   5.448  19.891  0.00  0.00    +0.000 A 
ATOM      9  N   UNL     1       2.464   6.644  19.245  0.00  0.00    +0.000 N 
ENDROOT
BRANCH   9  10
ATOM     10  C   UNL     1       1.894   7.892  19.598  0.00  0.00    +0.000 A 
ATOM     11  C   UNL     1       1.465   8.114  20.913  0.00  0.00    +0.000 A 
ATOM     12  C   UNL     1       0.861   9.326  21.248  0.00  0.00    +0.000 A 
ATOM     13  C   UNL     1       0.672  10.321  20.289  0.00  0.00    +0.000 A 
ATOM     14  C   UNL     1       1.102  10.100  18.979  0.00  0.00    +0.000 A 
ATOM     15  C   UNL     1       1.713   8.891  18.636  0.00  0.00    +0.000 A 
BRANCH  13  16
ATOM     16  O   UNL     1      -0.003  11.424  20.725  0.00  0.00    +0.000 OA
ATOM     17  C   UNL     1       0.239  12.636  20.020  0.00  0.00    +0.000 C 
ENDBRANCH  13  16
ENDBRANCH   9  10
BRANCH   1  19
ATOM     18  N   UNL     1       6.672   5.372  14.620  0.00  0.00    +0.000 N 
ATOM     19  C   UNL     1       6.007   4.499  15.454  0.00  0.00    +0.000 C 
ATOM     20  O   UNL     1       6.173   3.286  15.446  0.00  0.00    +0.000 OA
ATOM     21  H   UNL     1       6.554   6.369  14.735  0.00  0.00    +0.000 HD
BRANCH  18  22
ATOM     22  C   UNL     1       7.593   4.913  13.602  0.00  0.00    +0.000 C 
BRANCH  22  23
ATOM     23  C   UNL     1       6.919   4.729  12.242  0.00  0.00    +0.000 C 
BRANCH  23  24
ATOM     24  C   UNL     1       6.693   3.254  11.893  0.00  0.00    +0.000 C 
BRANCH  24  26
ATOM     25  C   UNL     1       4.292   3.429  11.154  0.00  0.00    +0.000 C 
ATOM     26  C   UNL     1       5.251   2.826  12.169  0.00  0.00    +0.000 C 
ENDBRANCH  24  26
ENDBRANCH  23  24
ENDBRANCH  22  23
ENDBRANCH  18  22
ENDBRANCH   1  19
TORSDOF 7
ENDMDL
MODEL 9
REMARK VINA RESULT:      -7.2      3.711      5.727
REMARK  Name = 
REMARK  9 active torsions:
REMARK  status: ('A' for Active; 'I' for Inactive)
REMARK    1  A    between atoms: C_1  and  C_2
REMARK    2  A    between atoms: C_2  and  C_3
REMARK    3  A    between atoms: C_3  and  C_4
REMARK    4  A    between atoms: C_4  and  C_5
REMARK    5  A    between atoms: C_5  and  N_6
REMARK    6  A    between atoms: C_7  and  C_9
REMARK    7  A    between atoms: N_17  and  C_18
REMARK    8  A    between atoms: C_21  and  O_22
REMARK    9  A    between atoms: O_22  and  C_23
REMARK                            x       y       z     vdW  Elec       q    Type
REMARK                         _______ _______ _______ _____ _____    ______ ____
ROOT
ATOM      1  C   UNL     1       2.535   6.971  18.507  0.00  0.00    +0.000 A 
ATOM      2  C   UNL     1       2.457   8.055  17.624  0.00  0.00    +0.000 A 
ATOM      3  C   UNL     1       1.925   9.283  18.029  0.00  0.00    +0.000 A 
ATOM      4  C   UNL     1       1.473   9.389  19.354  0.00  0.00    +0.000 A 
ATOM      5  C   UNL     1       1.588   8.334  20.257  0.00  0.00    +0.000 A 
ATOM      6  C   UNL     1       2.113   7.103  19.838  0.00  0.00    +0.000 A 
ATOM      7  N   UNL     1       1.169   8.694  21.509  0.00  0.00    +0.000 NA
ATOM      8  C   UNL     1       0.820   9.955  21.395  0.00  0.00    +0.000 A 
ATOM      9  N   UNL     1       0.943  10.430  20.106  0.00  0.00    +0.000 N 
ENDROOT
BRANCH   9  10
ATOM     10  C   UNL     1       0.580  11.730  19.675  0.00  0.00    +0.000 A 
ATOM     11  C   UNL     1       1.531  12.548  19.053  0.00  0.00    +0.000 A 
ATOM     12  C   UNL     1       1.185  13.845  18.672  0.00  0.00    +0.000 A 
ATOM     13  C   UNL     1      -0.097  14.343  18.907  0.00  0.00    +0.000 A 
ATOM     14  C   UNL     1      -1.045  13.525  19.525  0.00  0.00    +0.000 A 
ATOM     15  C   UNL     1      -0.708  12.223  19.905  0.00  0.00    +0.000 A 
BRANCH  13  16
ATOM     16  O   UNL     1      -0.282  15.650  18.561  0.00  0.00    +0.000 OA
ATOM     17  C   UNL     1      -0.935  16.473  19.521  0.00  0.00    +0.000 C 
ENDBRANCH  13  16
ENDBRANCH   9  10
BRANCH   1  19
ATOM     18  N   UNL     1       2.222   4.680  17.762  0.00  0.00    +0.000 N 
ATOM     19  C   UNL     1       3.118   5.698  18.007  0.00  0.00    +0.000 C 
ATOM     20  O   UNL     1       4.323   5.610  17.811  0.00  0.00    +0.000 OA
ATOM     21  H   UNL     1       1.230   4.845  17.863  0.00  0.00    +0.000 HD
BRANCH  18  22
ATOM     22  C   UNL     1       2.647   3.375  17.304  0.00  0.00    +0.000 C 
BRANCH  22  23
ATOM     23  C   UNL     1       2.168   2.248  18.219  0.00  0.00    +0.000 C 
BRANCH  23  24
ATOM     24  C   UNL     1       1.062   2.700  19.178  0.00  0.00    +0.000 C 
BRANCH  24  26
ATOM     25  C   UNL     1       1.967   3.752  21.279  0.00  0.00    +0.000 C 
ATOM     26  C   UNL     1       1.456   2.471  20.638  0.00  0.00    +0.000 C 
ENDBRANCH  24  26
ENDBRANCH  23  24
ENDBRANCH  22  23
ENDBRANCH  18  22
ENDBRANCH   1  19
TORSDOF 7
ENDMDL
