MODEL 1
REMARK VINA RESULT:      -6.6      0.000      0.000
REMARK  Name = 
REMARK  7 active torsions:
REMARK  status: ('A' for Active; 'I' for Inactive)
REMARK    1  A    between atoms: C_2  and  C_3
REMARK    2  A    between atoms: C_2  and  C_4
REMARK    3  A    between atoms: C_7  and  C_8
REMARK    4  A    between atoms: C_9  and  O_10
REMARK    5  A    between atoms: C_13  and  C_14
REMARK    6  A    between atoms: C_19  and  C_20
REMARK    7  A    between atoms: C_21  and  O_22
REMARK                            x       y       z     vdW  Elec       q    Type
REMARK                         _______ _______ _______ _____ _____    ______ ____
ROOT
ATOM      1  C   UNL     1      10.275  11.326  19.728  0.00  0.00    +0.000 C 
ATOM      2  C   UNL     1      10.009  12.243  20.975  0.00  0.00    +0.000 C 
ATOM      3  C   UNL     1       8.667  12.229  21.731  0.00  0.00    +0.000 C 
ATOM      4  C   UNL     1       8.087  13.641  22.100  0.00  0.00    +0.000 C 
ATOM      5  C   UNL     1       8.991  14.325  23.135  0.00  0.00    +0.000 C 
ATOM      6  C   UNL     1       7.660  14.551  20.894  0.00  0.00    +0.000 C 
ATOM      7  C   UNL     1       7.866  16.079  21.029  0.00  0.00    +0.000 C 
ATOM      8  C   UNL     1       7.915  16.892  19.701  0.00  0.00    +0.000 C 
ATOM      9  C   UNL     1       9.305  17.268  19.080  0.00  0.00    +0.000 C 
ATOM     10  C   UNL     1      10.378  17.495  20.149  0.00  0.00    +0.000 C 
ATOM     11  C   UNL     1       9.723  16.347  17.899  0.00  0.00    +0.000 C 
ATOM     12  C   UNL     1      11.155  16.509  17.399  0.00  0.00    +0.000 C 
ATOM     13  O   UNL     1      11.654  17.630  17.271  0.00  0.00    +0.000 OA
ATOM     14  C   UNL     1      11.949  15.267  16.970  0.00  0.00    +0.000 C 
ATOM     15  C   UNL     1      12.333  14.223  18.065  0.00  0.00    +0.000 C 
ATOM     16  C   UNL     1      12.240  14.796  19.469  0.00  0.00    +0.000 C 
ATOM     17  C   UNL     1      11.582  12.875  17.880  0.00  0.00    +0.000 C 
ATOM     18  C   UNL     1      11.610  11.834  19.051  0.00  0.00    +0.000 C 
ENDROOT
BRANCH   1  20
ATOM     19  C   UNL     1       8.528  11.742  17.855  0.00  0.00    +0.000 C 
ATOM     20  C   UNL     1       9.206  10.935  18.689  0.00  0.00    +0.000 C 
ATOM     21  C   UNL     1       8.918   9.449  18.557  0.00  0.00    +0.000 C 
ENDBRANCH   1  20
BRANCH   6  22
ATOM     22  O   UNL     1       8.284  14.131  19.699  0.00  0.00    +0.000 OA
ATOM     23  H   UNL     1       8.235  13.169  19.726  0.00  0.00    +0.000 HD
ENDBRANCH   6  22
BRANCH  17  24
ATOM     24  O   UNL     1      10.300  13.148  17.344  0.00  0.00    +0.000 OA
ATOM     25  H   UNL     1       9.658  13.312  18.056  0.00  0.00    +0.000 HD
ENDBRANCH  17  24
TORSDOF 3
ENDMDL
MODEL 2
REMARK VINA RESULT:      -6.2      8.407      9.968
REMARK  Name = 
REMARK  7 active torsions:
REMARK  status: ('A' for Active; 'I' for Inactive)
REMARK    1  A    between atoms: C_2  and  C_3
REMARK    2  A    between atoms: C_2  and  C_4
REMARK    3  A    between atoms: C_7  and  C_8
REMARK    4  A    between atoms: C_9  and  O_10
REMARK    5  A    between atoms: C_13  and  C_14
REMARK    6  A    between atoms: C_19  and  C_20
REMARK    7  A    between atoms: C_21  and  O_22
REMARK                            x       y       z     vdW  Elec       q    Type
REMARK                         _______ _______ _______ _____ _____    ______ ____
ROOT
ATOM      1  C   UNL     1      -0.421  11.132  20.125  0.00  0.00    +0.000 C 
ATOM      2  C   UNL     1      -0.702  12.026  21.386  0.00  0.00    +0.000 C 
ATOM      3  C   UNL     1      -2.131  12.319  21.881  0.00  0.00    +0.000 C 
ATOM      4  C   UNL     1      -2.416  13.813  22.272  0.00  0.00    +0.000 C 
ATOM      5  C   UNL     1      -1.599  14.194  23.515  0.00  0.00    +0.000 C 
ATOM      6  C   UNL     1      -2.361  14.858  21.102  0.00  0.00    +0.000 C 
ATOM      7  C   UNL     1      -1.824  16.275  21.418  0.00  0.00    +0.000 C 
ATOM      8  C   UNL     1      -1.317  17.111  20.205  0.00  0.00    +0.000 C 
ATOM      9  C   UNL     1       0.218  17.149  19.886  0.00  0.00    +0.000 C 
ATOM     10  C   UNL     1       1.078  17.044  21.148  0.00  0.00    +0.000 C 
ATOM     11  C   UNL     1       0.629  16.210  18.718  0.00  0.00    +0.000 C 
ATOM     12  C   UNL     1       2.128  16.025  18.504  0.00  0.00    +0.000 C 
ATOM     13  O   UNL     1       2.898  16.986  18.577  0.00  0.00    +0.000 OA
ATOM     14  C   UNL     1       2.669  14.643  18.109  0.00  0.00    +0.000 C 
ATOM     15  C   UNL     1       2.564  13.485  19.150  0.00  0.00    +0.000 C 
ATOM     16  C   UNL     1       2.333  13.995  20.562  0.00  0.00    +0.000 C 
ATOM     17  C   UNL     1       1.563  12.383  18.703  0.00  0.00    +0.000 C 
ATOM     18  C   UNL     1       1.105  11.315  19.754  0.00  0.00    +0.000 C 
ENDROOT
BRANCH   1  20
ATOM     19  C   UNL     1      -2.371  11.863  18.578  0.00  0.00    +0.000 C 
ATOM     20  C   UNL     1      -1.323  11.076  18.878  0.00  0.00    +0.000 C 
ATOM     21  C   UNL     1      -0.953  10.036  17.834  0.00  0.00    +0.000 C 
ENDBRANCH   1  20
BRANCH   6  22
ATOM     22  O   UNL     1      -1.630  14.350  20.006  0.00  0.00    +0.000 OA
ATOM     23  H   UNL     1      -0.749  14.185  20.359  0.00  0.00    +0.000 HD
ENDBRANCH   6  22
BRANCH  17  24
ATOM     24  O   UNL     1       0.518  12.999  17.972  0.00  0.00    +0.000 OA
ATOM     25  H   UNL     1       0.044  13.643  18.526  0.00  0.00    +0.000 HD
ENDBRANCH  17  24
TORSDOF 3
ENDMDL
MODEL 3
REMARK VINA RESULT:      -6.0      1.651      5.743
REMARK  Name = 
REMARK  7 active torsions:
REMARK  status: ('A' for Active; 'I' for Inactive)
REMARK    1  A    between atoms: C_2  and  C_3
REMARK    2  A    between atoms: C_2  and  C_4
REMARK    3  A    between atoms: C_7  and  C_8
REMARK    4  A    between atoms: C_9  and  O_10
REMARK    5  A    between atoms: C_13  and  C_14
REMARK    6  A    between atoms: C_19  and  C_20
REMARK    7  A    between atoms: C_21  and  O_22
REMARK                            x       y       z     vdW  Elec       q    Type
REMARK                         _______ _______ _______ _____ _____    ______ ____
ROOT
ATOM      1  C   UNL     1       7.745  17.531  20.513  0.00  0.00    +0.000 C 
ATOM      2  C   UNL     1       9.147  17.829  19.870  0.00  0.00    +0.000 C 
ATOM      3  C   UNL     1       9.290  18.464  18.474  0.00  0.00    +0.000 C 
ATOM      4  C   UNL     1      10.363  17.802  17.538  0.00  0.00    +0.000 C 
ATOM      5  C   UNL     1      11.770  18.039  18.106  0.00  0.00    +0.000 C 
ATOM      6  C   UNL     1      10.074  16.327  17.088  0.00  0.00    +0.000 C 
ATOM      7  C   UNL     1      11.278  15.370  16.916  0.00  0.00    +0.000 C 
ATOM      8  C   UNL     1      10.965  13.845  16.963  0.00  0.00    +0.000 C 
ATOM      9  C   UNL     1      11.177  13.057  18.303  0.00  0.00    +0.000 C 
ATOM     10  C   UNL     1      12.333  13.621  19.133  0.00  0.00    +0.000 C 
ATOM     11  C   UNL     1       9.857  12.802  19.084  0.00  0.00    +0.000 C 
ATOM     12  C   UNL     1      10.012  12.247  20.496  0.00  0.00    +0.000 C 
ATOM     13  O   UNL     1      10.835  11.360  20.736  0.00  0.00    +0.000 OA
ATOM     14  C   UNL     1       9.073  12.737  21.607  0.00  0.00    +0.000 C 
ATOM     15  C   UNL     1       9.184  14.226  22.063  0.00  0.00    +0.000 C 
ATOM     16  C   UNL     1      10.498  14.863  21.643  0.00  0.00    +0.000 C 
ATOM     17  C   UNL     1       7.926  15.053  21.676  0.00  0.00    +0.000 C 
ATOM     18  C   UNL     1       7.997  16.615  21.777  0.00  0.00    +0.000 C 
ENDROOT
BRANCH   1  20
ATOM     19  C   UNL     1       6.437  16.617  18.468  0.00  0.00    +0.000 C 
ATOM     20  C   UNL     1       6.496  17.102  19.721  0.00  0.00    +0.000 C 
ATOM     21  C   UNL     1       5.173  17.191  20.462  0.00  0.00    +0.000 C 
ENDBRANCH   1  20
BRANCH   6  22
ATOM     22  O   UNL     1       9.147  15.708  17.955  0.00  0.00    +0.000 OA
ATOM     23  H   UNL     1       9.171  14.776  17.708  0.00  0.00    +0.000 HD
ENDBRANCH   6  22
BRANCH  17  24
ATOM     24  O   UNL     1       7.418  14.549  20.454  0.00  0.00    +0.000 OA
ATOM     25  H   UNL     1       7.335  15.261  19.796  0.00  0.00    +0.000 HD
ENDBRANCH  17  24
TORSDOF 3
ENDMDL
MODEL 4
REMARK VINA RESULT:      -5.8      8.714     10.372
REMARK  Name = 
REMARK  7 active torsions:
REMARK  status: ('A' for Active; 'I' for Inactive)
REMARK    1  A    between atoms: C_2  and  C_3
REMARK    2  A    between atoms: C_2  and  C_4
REMARK    3  A    between atoms: C_7  and  C_8
REMARK    4  A    between atoms: C_9  and  O_10
REMARK    5  A    between atoms: C_13  and  C_14
REMARK    6  A    between atoms: C_19  and  C_20
REMARK    7  A    between atoms: C_21  and  O_22
REMARK                            x       y       z     vdW  Elec       q    Type
REMARK                         _______ _______ _______ _____ _____    ______ ____
ROOT
ATOM      1  C   UNL     1      -0.311  11.886  20.932  0.00  0.00    +0.000 C 
ATOM      2  C   UNL     1      -0.866  12.949  21.945  0.00  0.00    +0.000 C 
ATOM      3  C   UNL     1      -2.365  13.053  22.285  0.00  0.00    +0.000 C 
ATOM      4  C   UNL     1      -2.950  14.509  22.319  0.00  0.00    +0.000 C 
ATOM      5  C   UNL     1      -2.336  15.293  23.488  0.00  0.00    +0.000 C 
ATOM      6  C   UNL     1      -2.973  15.278  20.951  0.00  0.00    +0.000 C 
ATOM      7  C   UNL     1      -2.733  16.807  20.972  0.00  0.00    +0.000 C 
ATOM      8  C   UNL     1      -2.271  17.455  19.633  0.00  0.00    +0.000 C 
ATOM      9  C   UNL     1      -0.745  17.727  19.395  0.00  0.00    +0.000 C 
ATOM     10  C   UNL     1      -0.004  18.057  20.694  0.00  0.00    +0.000 C 
ATOM     11  C   UNL     1      -0.063  16.664  18.489  0.00  0.00    +0.000 C 
ATOM     12  C   UNL     1       1.458  16.737  18.402  0.00  0.00    +0.000 C 
ATOM     13  O   UNL     1       2.032  17.824  18.300  0.00  0.00    +0.000 OA
ATOM     14  C   UNL     1       2.274  15.437  18.354  0.00  0.00    +0.000 C 
ATOM     15  C   UNL     1       2.281  14.523  19.619  0.00  0.00    +0.000 C 
ATOM     16  C   UNL     1       1.829  15.260  20.868  0.00  0.00    +0.000 C 
ATOM     17  C   UNL     1       1.542  13.177  19.375  0.00  0.00    +0.000 C 
ATOM     18  C   UNL     1       1.186  12.283  20.611  0.00  0.00    +0.000 C 
ENDROOT
BRANCH   1  20
ATOM     19  C   UNL     1      -2.197  11.889  19.152  0.00  0.00    +0.000 C 
ATOM     20  C   UNL     1      -1.065  11.395  19.682  0.00  0.00    +0.000 C 
ATOM     21  C   UNL     1      -0.425  10.243  18.926  0.00  0.00    +0.000 C 
ENDBRANCH   1  20
BRANCH   6  22
ATOM     22  O   UNL     1      -2.062  14.707  20.035  0.00  0.00    +0.000 OA
ATOM     23  H   UNL     1      -1.703  15.459  19.551  0.00  0.00    +0.000 HD
ENDBRANCH   6  22
BRANCH  17  24
ATOM     24  O   UNL     1       0.477  13.410  18.471  0.00  0.00    +0.000 OA
ATOM     25  H   UNL     1      -0.160  12.676  18.494  0.00  0.00    +0.000 HD
ENDBRANCH  17  24
TORSDOF 3
ENDMDL
MODEL 5
REMARK VINA RESULT:      -5.8     13.288     16.003
REMARK  Name = 
REMARK  7 active torsions:
REMARK  status: ('A' for Active; 'I' for Inactive)
REMARK    1  A    between atoms: C_2  and  C_3
REMARK    2  A    between atoms: C_2  and  C_4
REMARK    3  A    between atoms: C_7  and  C_8
REMARK    4  A    between atoms: C_9  and  O_10
REMARK    5  A    between atoms: C_13  and  C_14
REMARK    6  A    between atoms: C_19  and  C_20
REMARK    7  A    between atoms: C_21  and  O_22
REMARK                            x       y       z     vdW  Elec       q    Type
REMARK                         _______ _______ _______ _____ _____    ______ ____
ROOT
ATOM      1  C   UNL     1      -1.940  15.970  23.577  0.00  0.00    +0.000 C 
ATOM      2  C   UNL     1      -2.661  16.291  22.219  0.00  0.00    +0.000 C 
ATOM      3  C   UNL     1      -3.076  17.722  21.830  0.00  0.00    +0.000 C 
ATOM      4  C   UNL     1      -4.517  17.865  21.223  0.00  0.00    +0.000 C 
ATOM      5  C   UNL     1      -4.582  17.166  19.857  0.00  0.00    +0.000 C 
ATOM      6  C   UNL     1      -5.710  17.537  22.189  0.00  0.00    +0.000 C 
ATOM      7  C   UNL     1      -6.971  16.871  21.586  0.00  0.00    +0.000 C 
ATOM      8  C   UNL     1      -7.902  16.117  22.583  0.00  0.00    +0.000 C 
ATOM      9  C   UNL     1      -7.769  14.562  22.734  0.00  0.00    +0.000 C 
ATOM     10  C   UNL     1      -7.350  13.884  21.426  0.00  0.00    +0.000 C 
ATOM     11  C   UNL     1      -6.970  14.130  23.995  0.00  0.00    +0.000 C 
ATOM     12  C   UNL     1      -6.608  12.652  24.084  0.00  0.00    +0.000 C 
ATOM     13  O   UNL     1      -7.428  11.783  23.773  0.00  0.00    +0.000 OA
ATOM     14  C   UNL     1      -5.241  12.242  24.649  0.00  0.00    +0.000 C 
ATOM     15  C   UNL     1      -3.963  12.618  23.834  0.00  0.00    +0.000 C 
ATOM     16  C   UNL     1      -4.279  12.956  22.387  0.00  0.00    +0.000 C 
ATOM     17  C   UNL     1      -3.098  13.686  24.560  0.00  0.00    +0.000 C 
ATOM     18  C   UNL     1      -1.958  14.399  23.756  0.00  0.00    +0.000 C 
ENDROOT
BRANCH   1  20
ATOM     19  C   UNL     1      -3.174  17.602  25.171  0.00  0.00    +0.000 C 
ATOM     20  C   UNL     1      -2.205  16.711  24.901  0.00  0.00    +0.000 C 
ATOM     21  C   UNL     1      -1.289  16.354  26.060  0.00  0.00    +0.000 C 
ENDBRANCH   1  20
BRANCH   6  22
ATOM     22  O   UNL     1      -5.278  16.745  23.275  0.00  0.00    +0.000 OA
ATOM     23  H   UNL     1      -5.742  15.907  23.163  0.00  0.00    +0.000 HD
ENDBRANCH   6  22
BRANCH  17  24
ATOM     24  O   UNL     1      -3.961  14.548  25.279  0.00  0.00    +0.000 OA
ATOM     25  H   UNL     1      -3.501  15.369  25.523  0.00  0.00    +0.000 HD
ENDBRANCH  17  24
TORSDOF 3
ENDMDL
MODEL 6
REMARK VINA RESULT:      -5.7      1.661      4.787
REMARK  Name = 
REMARK  7 active torsions:
REMARK  status: ('A' for Active; 'I' for Inactive)
REMARK    1  A    between atoms: C_2  and  C_3
REMARK    2  A    between atoms: C_2  and  C_4
REMARK    3  A    between atoms: C_7  and  C_8
REMARK    4  A    between atoms: C_9  and  O_10
REMARK    5  A    between atoms: C_13  and  C_14
REMARK    6  A    between atoms: C_19  and  C_20
REMARK    7  A    between atoms: C_21  and  O_22
REMARK                            x       y       z     vdW  Elec       q    Type
REMARK                         _______ _______ _______ _____ _____    ______ ____
ROOT
ATOM      1  C   UNL     1       7.515  15.022  22.149  0.00  0.00    +0.000 C 
ATOM      2  C   UNL     1       7.777  13.583  21.577  0.00  0.00    +0.000 C 
ATOM      3  C   UNL     1       8.535  12.508  22.379  0.00  0.00    +0.000 C 
ATOM      4  C   UNL     1       9.611  11.699  21.572  0.00  0.00    +0.000 C 
ATOM      5  C   UNL     1       8.924  10.830  20.508  0.00  0.00    +0.000 C 
ATOM      6  C   UNL     1      10.850  12.515  21.058  0.00  0.00    +0.000 C 
ATOM      7  C   UNL     1      11.467  12.116  19.696  0.00  0.00    +0.000 C 
ATOM      8  C   UNL     1      12.332  13.198  18.982  0.00  0.00    +0.000 C 
ATOM      9  C   UNL     1      11.685  14.082  17.860  0.00  0.00    +0.000 C 
ATOM     10  C   UNL     1      10.611  13.327  17.071  0.00  0.00    +0.000 C 
ATOM     11  C   UNL     1      11.281  15.501  18.347  0.00  0.00    +0.000 C 
ATOM     12  C   UNL     1      10.444  16.329  17.377  0.00  0.00    +0.000 C 
ATOM     13  O   UNL     1      10.710  16.345  16.172  0.00  0.00    +0.000 OA
ATOM     14  C   UNL     1       9.316  17.217  17.921  0.00  0.00    +0.000 C 
ATOM     15  C   UNL     1       8.077  16.522  18.567  0.00  0.00    +0.000 C 
ATOM     16  C   UNL     1       7.966  15.058  18.178  0.00  0.00    +0.000 C 
ATOM     17  C   UNL     1       7.991  16.780  20.098  0.00  0.00    +0.000 C 
ATOM     18  C   UNL     1       7.001  15.914  20.949  0.00  0.00    +0.000 C 
ENDROOT
BRANCH   1  20
ATOM     19  C   UNL     1       9.773  15.500  23.332  0.00  0.00    +0.000 C 
ATOM     20  C   UNL     1       8.486  15.785  23.069  0.00  0.00    +0.000 C 
ATOM     21  C   UNL     1       7.936  17.042  23.723  0.00  0.00    +0.000 C 
ENDBRANCH   1  20
BRANCH   6  22
ATOM     22  O   UNL     1      10.562  13.896  21.017  0.00  0.00    +0.000 OA
ATOM     23  H   UNL     1      11.332  14.291  20.592  0.00  0.00    +0.000 HD
ENDBRANCH   6  22
BRANCH  17  24
ATOM     24  O   UNL     1       9.309  16.870  20.609  0.00  0.00    +0.000 OA
ATOM     25  H   UNL     1       9.943  16.450  20.003  0.00  0.00    +0.000 HD
ENDBRANCH  17  24
TORSDOF 3
ENDMDL
MODEL 7
REMARK VINA RESULT:      -5.7      1.541      4.583
REMARK  Name = 
REMARK  7 active torsions:
REMARK  status: ('A' for Active; 'I' for Inactive)
REMARK    1  A    between atoms: C_2  and  C_3
REMARK    2  A    between atoms: C_2  and  C_4
REMARK    3  A    between atoms: C_7  and  C_8
REMARK    4  A    between atoms: C_9  and  O_10
REMARK    5  A    between atoms: C_13  and  C_14
REMARK    6  A    between atoms: C_19  and  C_20
REMARK    7  A    between atoms: C_21  and  O_22
REMARK                            x       y       z     vdW  Elec       q    Type
REMARK                         _______ _______ _______ _____ _____    ______ ____
ROOT
ATOM      1  C   UNL     1       8.594  14.404  23.023  0.00  0.00    +0.000 C 
ATOM      2  C   UNL     1       9.884  15.232  22.683  0.00  0.00    +0.000 C 
ATOM      3  C   UNL     1       9.854  16.762  22.512  0.00  0.00    +0.000 C 
ATOM      4  C   UNL     1      10.651  17.318  21.278  0.00  0.00    +0.000 C 
ATOM      5  C   UNL     1      12.155  17.082  21.477  0.00  0.00    +0.000 C 
ATOM      6  C   UNL     1      10.102  16.920  19.863  0.00  0.00    +0.000 C 
ATOM      7  C   UNL     1      11.127  16.686  18.726  0.00  0.00    +0.000 C 
ATOM      8  C   UNL     1      10.637  15.835  17.516  0.00  0.00    +0.000 C 
ATOM      9  C   UNL     1      10.984  14.307  17.460  0.00  0.00    +0.000 C 
ATOM     10  C   UNL     1      12.332  13.991  18.114  0.00  0.00    +0.000 C 
ATOM     11  C   UNL     1       9.804  13.390  17.888  0.00  0.00    +0.000 C 
ATOM     12  C   UNL     1      10.137  11.914  18.075  0.00  0.00    +0.000 C 
ATOM     13  O   UNL     1      10.872  11.328  17.276  0.00  0.00    +0.000 OA
ATOM     14  C   UNL     1       9.481  11.132  19.222  0.00  0.00    +0.000 C 
ATOM     15  C   UNL     1       9.858  11.516  20.687  0.00  0.00    +0.000 C 
ATOM     16  C   UNL     1      11.145  12.319  20.762  0.00  0.00    +0.000 C 
ATOM     17  C   UNL     1       8.666  12.157  21.451  0.00  0.00    +0.000 C 
ATOM     18  C   UNL     1       8.950  12.877  22.813  0.00  0.00    +0.000 C 
ENDROOT
BRANCH   1  20
ATOM     19  C   UNL     1       6.829  15.649  21.586  0.00  0.00    +0.000 C 
ATOM     20  C   UNL     1       7.179  14.747  22.520  0.00  0.00    +0.000 C 
ATOM     21  C   UNL     1       6.043  13.934  23.117  0.00  0.00    +0.000 C 
ENDBRANCH   1  20
BRANCH   6  22
ATOM     22  O   UNL     1       9.275  15.780  19.945  0.00  0.00    +0.000 OA
ATOM     23  H   UNL     1       8.377  16.127  19.882  0.00  0.00    +0.000 HD
ENDBRANCH   6  22
BRANCH  17  24
ATOM     24  O   UNL     1       7.888  12.896  20.527  0.00  0.00    +0.000 OA
ATOM     25  H   UNL     1       6.939  12.742  20.676  0.00  0.00    +0.000 HD
ENDBRANCH  17  24
TORSDOF 3
ENDMDL
MODEL 8
REMARK VINA RESULT:      -5.7      1.668      5.077
REMARK  Name = 
REMARK  7 active torsions:
REMARK  status: ('A' for Active; 'I' for Inactive)
REMARK    1  A    between atoms: C_2  and  C_3
REMARK    2  A    between atoms: C_2  and  C_4
REMARK    3  A    between atoms: C_7  and  C_8
REMARK    4  A    between atoms: C_9  and  O_10
REMARK    5  A    between atoms: C_13  and  C_14
REMARK    6  A    between atoms: C_19  and  C_20
REMARK    7  A    between atoms: C_21  and  O_22
REMARK                            x       y       z     vdW  Elec       q    Type
REMARK                         _______ _______ _______ _____ _____    ______ ____
ROOT
ATOM      1  C   UNL     1      10.061  17.377  17.532  0.00  0.00    +0.000 C 
ATOM      2  C   UNL     1       8.703  16.895  18.159  0.00  0.00    +0.000 C 
ATOM      3  C   UNL     1       8.011  17.660  19.302  0.00  0.00    +0.000 C 
ATOM      4  C   UNL     1       7.462  16.770  20.473  0.00  0.00    +0.000 C 
ATOM      5  C   UNL     1       6.302  15.899  19.969  0.00  0.00    +0.000 C 
ATOM      6  C   UNL     1       8.536  16.008  21.327  0.00  0.00    +0.000 C 
ATOM      7  C   UNL     1       8.170  14.607  21.872  0.00  0.00    +0.000 C 
ATOM      8  C   UNL     1       9.360  13.682  22.267  0.00  0.00    +0.000 C 
ATOM      9  C   UNL     1       9.864  12.600  21.250  0.00  0.00    +0.000 C 
ATOM     10  C   UNL     1       8.732  12.049  20.378  0.00  0.00    +0.000 C 
ATOM     11  C   UNL     1      11.150  13.023  20.486  0.00  0.00    +0.000 C 
ATOM     12  C   UNL     1      11.564  12.124  19.325  0.00  0.00    +0.000 C 
ATOM     13  O   UNL     1      11.506  10.896  19.428  0.00  0.00    +0.000 OA
ATOM     14  C   UNL     1      12.140  12.756  18.049  0.00  0.00    +0.000 C 
ATOM     15  C   UNL     1      11.196  13.638  17.173  0.00  0.00    +0.000 C 
ATOM     16  C   UNL     1       9.728  13.395  17.477  0.00  0.00    +0.000 C 
ATOM     17  C   UNL     1      11.608  15.137  17.194  0.00  0.00    +0.000 C 
ATOM     18  C   UNL     1      10.602  16.197  16.628  0.00  0.00    +0.000 C 
ENDROOT
BRANCH   1  20
ATOM     19  C   UNL     1      11.302  18.209  19.653  0.00  0.00    +0.000 C 
ATOM     20  C   UNL     1      11.187  18.072  18.320  0.00  0.00    +0.000 C 
ATOM     21  C   UNL     1      12.332  18.631  17.494  0.00  0.00    +0.000 C 
ENDBRANCH   1  20
BRANCH   6  22
ATOM     22  O   UNL     1       9.754  15.896  20.622  0.00  0.00    +0.000 OA
ATOM     23  H   UNL     1       9.491  15.809  19.698  0.00  0.00    +0.000 HD
ENDBRANCH   6  22
BRANCH  17  24
ATOM     24  O   UNL     1      12.147  15.434  18.469  0.00  0.00    +0.000 OA
ATOM     25  H   UNL     1      12.864  14.815  18.691  0.00  0.00    +0.000 HD
ENDBRANCH  17  24
TORSDOF 3
ENDMDL
MODEL 9
REMARK VINA RESULT:      -5.6      9.208     11.995
REMARK  Name = 
REMARK  7 active torsions:
REMARK  status: ('A' for Active; 'I' for Inactive)
REMARK    1  A    between atoms: C_2  and  C_3
REMARK    2  A    between atoms: C_2  and  C_4
REMARK    3  A    between atoms: C_7  and  C_8
REMARK    4  A    between atoms: C_9  and  O_10
REMARK    5  A    between atoms: C_13  and  C_14
REMARK    6  A    between atoms: C_19  and  C_20
REMARK    7  A    between atoms: C_21  and  O_22
REMARK                            x       y       z     vdW  Elec       q    Type
REMARK                         _______ _______ _______ _____ _____    ______ ____
ROOT
ATOM      1  C   UNL     1       0.924  14.748  18.996  0.00  0.00    +0.000 C 
ATOM      2  C   UNL     1      -0.358  15.655  18.954  0.00  0.00    +0.000 C 
ATOM      3  C   UNL     1      -0.291  17.179  19.166  0.00  0.00    +0.000 C 
ATOM      4  C   UNL     1      -1.389  17.775  20.117  0.00  0.00    +0.000 C 
ATOM      5  C   UNL     1      -2.775  17.637  19.469  0.00  0.00    +0.000 C 
ATOM      6  C   UNL     1      -1.318  17.332  21.621  0.00  0.00    +0.000 C 
ATOM      7  C   UNL     1      -2.649  17.155  22.390  0.00  0.00    +0.000 C 
ATOM      8  C   UNL     1      -2.599  16.266  23.669  0.00  0.00    +0.000 C 
ATOM      9  C   UNL     1      -3.035  14.762  23.577  0.00  0.00    +0.000 C 
ATOM     10  C   UNL     1      -4.139  14.539  22.540  0.00  0.00    +0.000 C 
ATOM     11  C   UNL     1      -1.837  13.775  23.500  0.00  0.00    +0.000 C 
ATOM     12  C   UNL     1      -2.185  12.325  23.182  0.00  0.00    +0.000 C 
ATOM     13  O   UNL     1      -3.159  11.781  23.708  0.00  0.00    +0.000 OA
ATOM     14  C   UNL     1      -1.259  11.511  22.265  0.00  0.00    +0.000 C 
ATOM     15  C   UNL     1      -1.154  11.930  20.765  0.00  0.00    +0.000 C 
ATOM     16  C   UNL     1      -2.309  12.814  20.328  0.00  0.00    +0.000 C 
ATOM     17  C   UNL     1       0.249  12.499  20.413  0.00  0.00    +0.000 C 
ATOM     18  C   UNL     1       0.433  13.246  19.048  0.00  0.00    +0.000 C 
ENDROOT
BRANCH   1  20
ATOM     19  C   UNL     1       2.231  15.841  20.952  0.00  0.00    +0.000 C 
ATOM     20  C   UNL     1       2.138  14.997  19.910  0.00  0.00    +0.000 C 
ATOM     21  C   UNL     1       3.368  14.149  19.631  0.00  0.00    +0.000 C 
ENDBRANCH   1  20
BRANCH   6  22
ATOM     22  O   UNL     1      -0.572  16.142  21.762  0.00  0.00    +0.000 OA
ATOM     23  H   UNL     1      -0.687  15.684  20.921  0.00  0.00    +0.000 HD
ENDBRANCH   6  22
BRANCH  17  24
ATOM     24  O   UNL     1       0.753  13.179  21.548  0.00  0.00    +0.000 OA
ATOM     25  H   UNL     1       1.550  12.737  21.888  0.00  0.00    +0.000 HD
ENDBRANCH  17  24
TORSDOF 3
ENDMDL
