MODEL 1
REMARK VINA RESULT:      -8.0      0.000      0.000
REMARK  Name = 
REMARK  3 active torsions:
REMARK  status: ('A' for Active; 'I' for Inactive)
REMARK    1  A    between atoms: C_2  and  C_3
REMARK    2  A    between atoms: C_2  and  C_18
REMARK    3  A    between atoms: C_3  and  N_4
REMARK                            x       y       z     vdW  Elec       q    Type
REMARK                         _______ _______ _______ _____ _____    ______ ____
ROOT
ATOM      1  N   UNL     1       4.000   4.796  17.032  0.00  0.00    +0.000 N 
ATOM      2  C   UNL     1       3.736   3.618  17.744  0.00  0.00    +0.000 C 
ATOM      3  O   UNL     1       4.067   2.485  17.412  0.00  0.00    +0.000 OA
ATOM      4  C   UNL     1       2.915   4.019  19.031  0.00  0.00    +0.000 C 
ATOM      5  O   UNL     1       1.629   3.399  19.058  0.00  0.00    +0.000 OA
ATOM      6  C   UNL     1       1.827   2.278  19.918  0.00  0.00    +0.000 C 
ATOM      7  C   UNL     1       2.782   2.816  20.949  0.00  0.00    +0.000 C 
ATOM      8  O   UNL     1       3.639   3.696  20.221  0.00  0.00    +0.000 OA
ATOM      9  C   UNL     1       2.803   5.510  18.858  0.00  0.00    +0.000 A 
ATOM     10  C   UNL     1       2.165   6.440  19.666  0.00  0.00    +0.000 A 
ATOM     11  C   UNL     1       2.202   7.785  19.288  0.00  0.00    +0.000 A 
ATOM     12  C   UNL     1       2.879   8.182  18.125  0.00  0.00    +0.000 A 
ATOM     13  C   UNL     1       3.529   7.242  17.324  0.00  0.00    +0.000 A 
ATOM     14  C   UNL     1       3.469   5.911  17.694  0.00  0.00    +0.000 A 
ENDROOT
BRANCH   1  15
ATOM     15  C   UNL     1       4.757   4.824  15.801  0.00  0.00    +0.000 C 
BRANCH  15  17
ATOM     16  O   UNL     1       6.933   3.931  15.207  0.00  0.00    +0.000 OA
ATOM     17  C   UNL     1       6.266   4.650  15.950  0.00  0.00    +0.000 C 
BRANCH  17  18
ATOM     18  C   UNL     1       6.961   5.396  17.023  0.00  0.00    +0.000 A 
ATOM     19  C   UNL     1       7.318   4.707  18.191  0.00  0.00    +0.000 A 
ATOM     20  C   UNL     1       7.946   5.385  19.235  0.00  0.00    +0.000 A 
ATOM     21  C   UNL     1       8.199   6.753  19.124  0.00  0.00    +0.000 A 
ATOM     22  C   UNL     1       7.834   7.434  17.963  0.00  0.00    +0.000 A 
ATOM     23 BR   UNL     1       8.131   9.296  17.830  0.00  0.00    +0.000 Br
ATOM     24  C   UNL     1       7.226   6.762  16.908  0.00  0.00    +0.000 A 
ENDBRANCH  17  18
ENDBRANCH  15  17
ENDBRANCH   1  15
TORSDOF 3
ENDMDL
MODEL 2
REMARK VINA RESULT:      -7.6      3.109      5.915
REMARK  Name = 
REMARK  3 active torsions:
REMARK  status: ('A' for Active; 'I' for Inactive)
REMARK    1  A    between atoms: C_2  and  C_3
REMARK    2  A    between atoms: C_2  and  C_18
REMARK    3  A    between atoms: C_3  and  N_4
REMARK                            x       y       z     vdW  Elec       q    Type
REMARK                         _______ _______ _______ _____ _____    ______ ____
ROOT
ATOM      1  N   UNL     1       2.981   6.346  18.763  0.00  0.00    +0.000 N 
ATOM      2  C   UNL     1       2.180   5.376  19.383  0.00  0.00    +0.000 C 
ATOM      3  O   UNL     1       1.423   5.564  20.329  0.00  0.00    +0.000 OA
ATOM      4  C   UNL     1       2.454   4.004  18.654  0.00  0.00    +0.000 C 
ATOM      5  O   UNL     1       2.976   3.020  19.549  0.00  0.00    +0.000 OA
ATOM      6  C   UNL     1       1.825   2.249  19.890  0.00  0.00    +0.000 C 
ATOM      7  C   UNL     1       1.048   2.225  18.601  0.00  0.00    +0.000 C 
ATOM      8  O   UNL     1       1.268   3.513  18.025  0.00  0.00    +0.000 OA
ATOM      9  C   UNL     1       3.478   4.412  17.628  0.00  0.00    +0.000 A 
ATOM     10  C   UNL     1       4.133   3.632  16.686  0.00  0.00    +0.000 A 
ATOM     11  C   UNL     1       5.052   4.251  15.835  0.00  0.00    +0.000 A 
ATOM     12  C   UNL     1       5.294   5.630  15.925  0.00  0.00    +0.000 A 
ATOM     13  C   UNL     1       4.621   6.410  16.868  0.00  0.00    +0.000 A 
ATOM     14  C   UNL     1       3.731   5.786  17.721  0.00  0.00    +0.000 A 
ENDROOT
BRANCH   1  15
ATOM     15  C   UNL     1       2.980   7.739  19.151  0.00  0.00    +0.000 C 
BRANCH  15  17
ATOM     16  O   UNL     1       2.061   8.773  17.158  0.00  0.00    +0.000 OA
ATOM     17  C   UNL     1       2.016   8.637  18.380  0.00  0.00    +0.000 C 
BRANCH  17  18
ATOM     18  C   UNL     1       0.968   9.361  19.133  0.00  0.00    +0.000 A 
ATOM     19  C   UNL     1       0.151  10.264  18.439  0.00  0.00    +0.000 A 
ATOM     20  C   UNL     1      -0.826  10.986  19.122  0.00  0.00    +0.000 A 
ATOM     21  C   UNL     1      -0.975  10.824  20.501  0.00  0.00    +0.000 A 
ATOM     22  C   UNL     1      -0.153   9.931  21.187  0.00  0.00    +0.000 A 
ATOM     23 BR   UNL     1      -0.319   9.746  23.060  0.00  0.00    +0.000 Br
ATOM     24  C   UNL     1       0.810   9.190  20.510  0.00  0.00    +0.000 A 
ENDBRANCH  17  18
ENDBRANCH  15  17
ENDBRANCH   1  15
TORSDOF 3
ENDMDL
MODEL 3
REMARK VINA RESULT:      -7.6      3.142      6.259
REMARK  Name = 
REMARK  3 active torsions:
REMARK  status: ('A' for Active; 'I' for Inactive)
REMARK    1  A    between atoms: C_2  and  C_3
REMARK    2  A    between atoms: C_2  and  C_18
REMARK    3  A    between atoms: C_3  and  N_4
REMARK                            x       y       z     vdW  Elec       q    Type
REMARK                         _______ _______ _______ _____ _____    ______ ____
ROOT
ATOM      1  N   UNL     1       3.182   6.199  17.766  0.00  0.00    +0.000 N 
ATOM      2  C   UNL     1       4.530   6.358  17.415  0.00  0.00    +0.000 C 
ATOM      3  O   UNL     1       5.103   7.425  17.223  0.00  0.00    +0.000 OA
ATOM      4  C   UNL     1       5.157   4.916  17.291  0.00  0.00    +0.000 C 
ATOM      5  O   UNL     1       5.654   4.663  15.976  0.00  0.00    +0.000 OA
ATOM      6  C   UNL     1       7.052   4.918  16.103  0.00  0.00    +0.000 C 
ATOM      7  C   UNL     1       7.359   4.406  17.485  0.00  0.00    +0.000 C 
ATOM      8  O   UNL     1       6.199   4.727  18.253  0.00  0.00    +0.000 OA
ATOM      9  C   UNL     1       3.970   4.047  17.607  0.00  0.00    +0.000 A 
ATOM     10  C   UNL     1       3.880   2.663  17.638  0.00  0.00    +0.000 A 
ATOM     11  C   UNL     1       2.651   2.084  17.964  0.00  0.00    +0.000 A 
ATOM     12  C   UNL     1       1.539   2.887  18.263  0.00  0.00    +0.000 A 
ATOM     13  C   UNL     1       1.640   4.279  18.241  0.00  0.00    +0.000 A 
ATOM     14  C   UNL     1       2.854   4.843  17.897  0.00  0.00    +0.000 A 
ENDROOT
BRANCH   1  15
ATOM     15  C   UNL     1       2.286   7.311  17.991  0.00  0.00    +0.000 C 
BRANCH  15  17
ATOM     16  O   UNL     1       2.501   7.025  20.391  0.00  0.00    +0.000 OA
ATOM     17  C   UNL     1       2.042   7.676  19.453  0.00  0.00    +0.000 C 
BRANCH  17  18
ATOM     18  C   UNL     1       1.235   8.879  19.757  0.00  0.00    +0.000 A 
ATOM     19  C   UNL     1       1.118   9.869  18.772  0.00  0.00    +0.000 A 
ATOM     20  C   UNL     1       0.392  11.030  19.035  0.00  0.00    +0.000 A 
ATOM     21  C   UNL     1      -0.200  11.214  20.286  0.00  0.00    +0.000 A 
ATOM     22  C   UNL     1      -0.072  10.228  21.264  0.00  0.00    +0.000 A 
ATOM     23 BR   UNL     1      -0.829  10.495  22.975  0.00  0.00    +0.000 Br
ATOM     24  C   UNL     1       0.633   9.057  21.004  0.00  0.00    +0.000 A 
ENDBRANCH  17  18
ENDBRANCH  15  17
ENDBRANCH   1  15
TORSDOF 3
ENDMDL
MODEL 4
REMARK VINA RESULT:      -7.5      3.208      6.301
REMARK  Name = 
REMARK  3 active torsions:
REMARK  status: ('A' for Active; 'I' for Inactive)
REMARK    1  A    between atoms: C_2  and  C_3
REMARK    2  A    between atoms: C_2  and  C_18
REMARK    3  A    between atoms: C_3  and  N_4
REMARK                            x       y       z     vdW  Elec       q    Type
REMARK                         _______ _______ _______ _____ _____    ______ ____
ROOT
ATOM      1  N   UNL     1       3.443   6.234  18.396  0.00  0.00    +0.000 N 
ATOM      2  C   UNL     1       4.638   6.370  17.676  0.00  0.00    +0.000 C 
ATOM      3  O   UNL     1       5.311   7.392  17.583  0.00  0.00    +0.000 OA
ATOM      4  C   UNL     1       4.937   4.981  16.992  0.00  0.00    +0.000 C 
ATOM      5  O   UNL     1       4.980   5.085  15.568  0.00  0.00    +0.000 OA
ATOM      6  C   UNL     1       6.377   5.167  15.291  0.00  0.00    +0.000 C 
ATOM      7  C   UNL     1       6.974   4.244  16.318  0.00  0.00    +0.000 C 
ATOM      8  O   UNL     1       6.162   4.424  17.478  0.00  0.00    +0.000 OA
ATOM      9  C   UNL     1       3.758   4.165  17.448  0.00  0.00    +0.000 A 
ATOM     10  C   UNL     1       3.437   2.847  17.155  0.00  0.00    +0.000 A 
ATOM     11  C   UNL     1       2.272   2.308  17.707  0.00  0.00    +0.000 A 
ATOM     12  C   UNL     1       1.455   3.080  18.547  0.00  0.00    +0.000 A 
ATOM     13  C   UNL     1       1.790   4.402  18.846  0.00  0.00    +0.000 A 
ATOM     14  C   UNL     1       2.933   4.934  18.278  0.00  0.00    +0.000 A 
ENDROOT
BRANCH   1  15
ATOM     15  C   UNL     1       2.862   7.303  19.176  0.00  0.00    +0.000 C 
BRANCH  15  17
ATOM     16  O   UNL     1       2.287   8.558  17.181  0.00  0.00    +0.000 OA
ATOM     17  C   UNL     1       2.102   8.361  18.381  0.00  0.00    +0.000 C 
BRANCH  17  18
ATOM     18  C   UNL     1       1.082   9.174  19.081  0.00  0.00    +0.000 A 
ATOM     19  C   UNL     1       0.343  10.103  18.336  0.00  0.00    +0.000 A 
ATOM     20  C   UNL     1      -0.605  10.907  18.968  0.00  0.00    +0.000 A 
ATOM     21  C   UNL     1      -0.801  10.800  20.346  0.00  0.00    +0.000 A 
ATOM     22  C   UNL     1      -0.055   9.880  21.083  0.00  0.00    +0.000 A 
ATOM     23 BR   UNL     1      -0.282   9.769  22.956  0.00  0.00    +0.000 Br
ATOM     24  C   UNL     1       0.877   9.059  20.457  0.00  0.00    +0.000 A 
ENDBRANCH  17  18
ENDBRANCH  15  17
ENDBRANCH   1  15
TORSDOF 3
ENDMDL
MODEL 5
REMARK VINA RESULT:      -7.3      2.983      6.166
REMARK  Name = 
REMARK  3 active torsions:
REMARK  status: ('A' for Active; 'I' for Inactive)
REMARK    1  A    between atoms: C_2  and  C_3
REMARK    2  A    between atoms: C_2  and  C_18
REMARK    3  A    between atoms: C_3  and  N_4
REMARK                            x       y       z     vdW  Elec       q    Type
REMARK                         _______ _______ _______ _____ _____    ______ ____
ROOT
ATOM      1  N   UNL     1       3.136   6.228  17.887  0.00  0.00    +0.000 N 
ATOM      2  C   UNL     1       4.449   6.411  17.430  0.00  0.00    +0.000 C 
ATOM      3  O   UNL     1       5.014   7.488  17.272  0.00  0.00    +0.000 OA
ATOM      4  C   UNL     1       5.047   4.982  17.133  0.00  0.00    +0.000 C 
ATOM      5  O   UNL     1       5.421   4.834  15.762  0.00  0.00    +0.000 OA
ATOM      6  C   UNL     1       6.828   5.074  15.782  0.00  0.00    +0.000 C 
ATOM      7  C   UNL     1       7.252   4.450  17.084  0.00  0.00    +0.000 C 
ATOM      8  O   UNL     1       6.169   4.711  17.977  0.00  0.00    +0.000 OA
ATOM      9  C   UNL     1       3.884   4.094  17.485  0.00  0.00    +0.000 A 
ATOM     10  C   UNL     1       3.783   2.712  17.412  0.00  0.00    +0.000 A 
ATOM     11  C   UNL     1       2.582   2.112  17.800  0.00  0.00    +0.000 A 
ATOM     12  C   UNL     1       1.511   2.891  18.263  0.00  0.00    +0.000 A 
ATOM     13  C   UNL     1       1.624   4.280  18.344  0.00  0.00    +0.000 A 
ATOM     14  C   UNL     1       2.808   4.867  17.937  0.00  0.00    +0.000 A 
ENDROOT
BRANCH   1  15
ATOM     15  C   UNL     1       2.276   7.320  18.282  0.00  0.00    +0.000 C 
BRANCH  15  17
ATOM     16  O   UNL     1       2.522   6.697  20.614  0.00  0.00    +0.000 OA
ATOM     17  C   UNL     1       2.060   7.480  19.785  0.00  0.00    +0.000 C 
BRANCH  17  18
ATOM     18  C   UNL     1       1.279   8.641  20.268  0.00  0.00    +0.000 A 
ATOM     19  C   UNL     1       0.991   8.728  21.637  0.00  0.00    +0.000 A 
ATOM     20  C   UNL     1       0.231   9.791  22.122  0.00  0.00    +0.000 A 
ATOM     21  C   UNL     1      -0.261  10.756  21.240  0.00  0.00    +0.000 A 
ATOM     22  C   UNL     1       0.022  10.657  19.878  0.00  0.00    +0.000 A 
ATOM     23 BR   UNL     1      -0.684  11.933  18.675  0.00  0.00    +0.000 Br
ATOM     24  C   UNL     1       0.797   9.612  19.388  0.00  0.00    +0.000 A 
ENDBRANCH  17  18
ENDBRANCH  15  17
ENDBRANCH   1  15
TORSDOF 3
ENDMDL
MODEL 6
REMARK VINA RESULT:      -7.3      3.228      5.916
REMARK  Name = 
REMARK  3 active torsions:
REMARK  status: ('A' for Active; 'I' for Inactive)
REMARK    1  A    between atoms: C_2  and  C_3
REMARK    2  A    between atoms: C_2  and  C_18
REMARK    3  A    between atoms: C_3  and  N_4
REMARK                            x       y       z     vdW  Elec       q    Type
REMARK                         _______ _______ _______ _____ _____    ______ ____
ROOT
ATOM      1  N   UNL     1       2.928   6.338  18.822  0.00  0.00    +0.000 N 
ATOM      2  C   UNL     1       2.119   5.365  19.426  0.00  0.00    +0.000 C 
ATOM      3  O   UNL     1       1.345   5.550  20.360  0.00  0.00    +0.000 OA
ATOM      4  C   UNL     1       2.409   3.995  18.701  0.00  0.00    +0.000 C 
ATOM      5  O   UNL     1       2.917   3.011  19.603  0.00  0.00    +0.000 OA
ATOM      6  C   UNL     1       1.762   2.237  19.924  0.00  0.00    +0.000 C 
ATOM      7  C   UNL     1       1.007   2.213  18.622  0.00  0.00    +0.000 C 
ATOM      8  O   UNL     1       1.234   3.502  18.051  0.00  0.00    +0.000 OA
ATOM      9  C   UNL     1       3.448   4.406  17.693  0.00  0.00    +0.000 A 
ATOM     10  C   UNL     1       4.121   3.629  16.762  0.00  0.00    +0.000 A 
ATOM     11  C   UNL     1       5.053   4.252  15.927  0.00  0.00    +0.000 A 
ATOM     12  C   UNL     1       5.290   5.631  16.023  0.00  0.00    +0.000 A 
ATOM     13  C   UNL     1       4.600   6.408  16.956  0.00  0.00    +0.000 A 
ATOM     14  C   UNL     1       3.697   5.781  17.792  0.00  0.00    +0.000 A 
ENDROOT
BRANCH   1  15
ATOM     15  C   UNL     1       2.917   7.730  19.212  0.00  0.00    +0.000 C 
BRANCH  15  17
ATOM     16  O   UNL     1       2.166   8.756  17.146  0.00  0.00    +0.000 OA
ATOM     17  C   UNL     1       2.037   8.645  18.364  0.00  0.00    +0.000 C 
BRANCH  17  18
ATOM     18  C   UNL     1       0.967   9.417  19.035  0.00  0.00    +0.000 A 
ATOM     19  C   UNL     1       0.930   9.426  20.436  0.00  0.00    +0.000 A 
ATOM     20  C   UNL     1      -0.082  10.117  21.101  0.00  0.00    +0.000 A 
ATOM     21  C   UNL     1      -1.070  10.781  20.370  0.00  0.00    +0.000 A 
ATOM     22  C   UNL     1      -1.031  10.759  18.976  0.00  0.00    +0.000 A 
ATOM     23 BR   UNL     1      -2.394  11.614  17.984  0.00  0.00    +0.000 Br
ATOM     24  C   UNL     1      -0.014  10.091  18.304  0.00  0.00    +0.000 A 
ENDBRANCH  17  18
ENDBRANCH  15  17
ENDBRANCH   1  15
TORSDOF 3
ENDMDL
MODEL 7
REMARK VINA RESULT:      -7.2      3.308      6.288
REMARK  Name = 
REMARK  3 active torsions:
REMARK  status: ('A' for Active; 'I' for Inactive)
REMARK    1  A    between atoms: C_2  and  C_3
REMARK    2  A    between atoms: C_2  and  C_18
REMARK    3  A    between atoms: C_3  and  N_4
REMARK                            x       y       z     vdW  Elec       q    Type
REMARK                         _______ _______ _______ _____ _____    ______ ____
ROOT
ATOM      1  N   UNL     1       3.431   6.267  18.351  0.00  0.00    +0.000 N 
ATOM      2  C   UNL     1       4.643   6.398  17.660  0.00  0.00    +0.000 C 
ATOM      3  O   UNL     1       5.311   7.423  17.565  0.00  0.00    +0.000 OA
ATOM      4  C   UNL     1       4.971   4.998  17.012  0.00  0.00    +0.000 C 
ATOM      5  O   UNL     1       5.051   5.075  15.588  0.00  0.00    +0.000 OA
ATOM      6  C   UNL     1       6.454   5.163  15.346  0.00  0.00    +0.000 C 
ATOM      7  C   UNL     1       7.030   4.264  16.408  0.00  0.00    +0.000 C 
ATOM      8  O   UNL     1       6.186   4.461  17.542  0.00  0.00    +0.000 OA
ATOM      9  C   UNL     1       3.785   4.182  17.453  0.00  0.00    +0.000 A 
ATOM     10  C   UNL     1       3.482   2.857  17.177  0.00  0.00    +0.000 A 
ATOM     11  C   UNL     1       2.307   2.320  17.709  0.00  0.00    +0.000 A 
ATOM     12  C   UNL     1       1.462   3.102  18.511  0.00  0.00    +0.000 A 
ATOM     13  C   UNL     1       1.780   4.432  18.793  0.00  0.00    +0.000 A 
ATOM     14  C   UNL     1       2.933   4.961  18.246  0.00  0.00    +0.000 A 
ENDROOT
BRANCH   1  15
ATOM     15  C   UNL     1       2.822   7.346  19.094  0.00  0.00    +0.000 C 
BRANCH  15  17
ATOM     16  O   UNL     1       2.394   8.613  17.070  0.00  0.00    +0.000 OA
ATOM     17  C   UNL     1       2.129   8.417  18.255  0.00  0.00    +0.000 C 
BRANCH  17  18
ATOM     18  C   UNL     1       1.075   9.241  18.889  0.00  0.00    +0.000 A 
ATOM     19  C   UNL     1       1.001   9.266  20.288  0.00  0.00    +0.000 A 
ATOM     20  C   UNL     1       0.002  10.007  20.919  0.00  0.00    +0.000 A 
ATOM     21  C   UNL     1      -0.935  10.705  20.155  0.00  0.00    +0.000 A 
ATOM     22  C   UNL     1      -0.860  10.668  18.763  0.00  0.00    +0.000 A 
ATOM     23 BR   UNL     1      -2.156  11.572  17.725  0.00  0.00    +0.000 Br
ATOM     24  C   UNL     1       0.146   9.949  18.125  0.00  0.00    +0.000 A 
ENDBRANCH  17  18
ENDBRANCH  15  17
ENDBRANCH   1  15
TORSDOF 3
ENDMDL
MODEL 8
REMARK VINA RESULT:      -7.2      2.814      3.465
REMARK  Name = 
REMARK  3 active torsions:
REMARK  status: ('A' for Active; 'I' for Inactive)
REMARK    1  A    between atoms: C_2  and  C_3
REMARK    2  A    between atoms: C_2  and  C_18
REMARK    3  A    between atoms: C_3  and  N_4
REMARK                            x       y       z     vdW  Elec       q    Type
REMARK                         _______ _______ _______ _____ _____    ______ ____
ROOT
ATOM      1  N   UNL     1       3.225   4.386  17.706  0.00  0.00    +0.000 N 
ATOM      2  C   UNL     1       2.910   3.380  18.630  0.00  0.00    +0.000 C 
ATOM      3  O   UNL     1       3.070   2.175  18.465  0.00  0.00    +0.000 OA
ATOM      4  C   UNL     1       2.291   4.083  19.899  0.00  0.00    +0.000 C 
ATOM      5  O   UNL     1       0.953   3.648  20.150  0.00  0.00    +0.000 OA
ATOM      6  C   UNL     1       1.119   2.660  21.167  0.00  0.00    +0.000 C 
ATOM      7  C   UNL     1       2.239   3.224  21.998  0.00  0.00    +0.000 C 
ATOM      8  O   UNL     1       3.102   3.859  21.055  0.00  0.00    +0.000 OA
ATOM      9  C   UNL     1       2.330   5.529  19.487  0.00  0.00    +0.000 A 
ATOM     10  C   UNL     1       1.897   6.651  20.180  0.00  0.00    +0.000 A 
ATOM     11  C   UNL     1       2.044   7.902  19.576  0.00  0.00    +0.000 A 
ATOM     12  C   UNL     1       2.627   8.020  18.305  0.00  0.00    +0.000 A 
ATOM     13  C   UNL     1       3.071   6.888  17.619  0.00  0.00    +0.000 A 
ATOM     14  C   UNL     1       2.902   5.652  18.214  0.00  0.00    +0.000 A 
ENDROOT
BRANCH   1  15
ATOM     15  C   UNL     1       3.836   4.121  16.423  0.00  0.00    +0.000 C 
BRANCH  15  17
ATOM     16  O   UNL     1       6.025   4.659  17.320  0.00  0.00    +0.000 OA
ATOM     17  C   UNL     1       5.333   4.403  16.335  0.00  0.00    +0.000 C 
BRANCH  17  18
ATOM     18  C   UNL     1       5.987   4.346  15.008  0.00  0.00    +0.000 A 
ATOM     19  C   UNL     1       7.091   5.177  14.772  0.00  0.00    +0.000 A 
ATOM     20  C   UNL     1       7.711   5.172  13.523  0.00  0.00    +0.000 A 
ATOM     21  C   UNL     1       7.219   4.355  12.504  0.00  0.00    +0.000 A 
ATOM     22  C   UNL     1       6.115   3.537  12.743  0.00  0.00    +0.000 A 
ATOM     23 BR   UNL     1       5.415   2.468  11.351  0.00  0.00    +0.000 Br
ATOM     24  C   UNL     1       5.502   3.520  13.992  0.00  0.00    +0.000 A 
ENDBRANCH  17  18
ENDBRANCH  15  17
ENDBRANCH   1  15
TORSDOF 3
ENDMDL
MODEL 9
REMARK VINA RESULT:      -7.1      1.073      1.183
REMARK  Name = 
REMARK  3 active torsions:
REMARK  status: ('A' for Active; 'I' for Inactive)
REMARK    1  A    between atoms: C_2  and  C_3
REMARK    2  A    between atoms: C_2  and  C_18
REMARK    3  A    between atoms: C_3  and  N_4
REMARK                            x       y       z     vdW  Elec       q    Type
REMARK                         _______ _______ _______ _____ _____    ______ ____
ROOT
ATOM      1  N   UNL     1       4.092   5.468  17.173  0.00  0.00    +0.000 N 
ATOM      2  C   UNL     1       4.281   4.098  17.401  0.00  0.00    +0.000 C 
ATOM      3  O   UNL     1       4.901   3.326  16.677  0.00  0.00    +0.000 OA
ATOM      4  C   UNL     1       3.530   3.736  18.740  0.00  0.00    +0.000 C 
ATOM      5  O   UNL     1       2.505   2.763  18.530  0.00  0.00    +0.000 OA
ATOM      6  C   UNL     1       3.132   1.542  18.919  0.00  0.00    +0.000 C 
ATOM      7  C   UNL     1       3.989   1.965  20.081  0.00  0.00    +0.000 C 
ATOM      8  O   UNL     1       4.449   3.271  19.732  0.00  0.00    +0.000 OA
ATOM      9  C   UNL     1       2.951   5.070  19.126  0.00  0.00    +0.000 A 
ATOM     10  C   UNL     1       2.157   5.398  20.216  0.00  0.00    +0.000 A 
ATOM     11  C   UNL     1       1.741   6.724  20.358  0.00  0.00    +0.000 A 
ATOM     12  C   UNL     1       2.128   7.700  19.426  0.00  0.00    +0.000 A 
ATOM     13  C   UNL     1       2.937   7.363  18.339  0.00  0.00    +0.000 A 
ATOM     14  C   UNL     1       3.326   6.045  18.194  0.00  0.00    +0.000 A 
ENDROOT
BRANCH   1  15
ATOM     15  C   UNL     1       4.658   6.168  16.042  0.00  0.00    +0.000 C 
BRANCH  15  17
ATOM     16  O   UNL     1       6.718   5.654  14.868  0.00  0.00    +0.000 OA
ATOM     17  C   UNL     1       6.174   6.063  15.892  0.00  0.00    +0.000 C 
BRANCH  17  18
ATOM     18  C   UNL     1       7.027   6.492  17.023  0.00  0.00    +0.000 A 
ATOM     19  C   UNL     1       7.337   5.555  18.018  0.00  0.00    +0.000 A 
ATOM     20  C   UNL     1       8.113   5.933  19.113  0.00  0.00    +0.000 A 
ATOM     21  C   UNL     1       8.562   7.250  19.227  0.00  0.00    +0.000 A 
ATOM     22  C   UNL     1       8.242   8.179  18.238  0.00  0.00    +0.000 A 
ATOM     23 BR   UNL     1       8.805   9.975  18.415  0.00  0.00    +0.000 Br
ATOM     24  C   UNL     1       7.486   7.806  17.131  0.00  0.00    +0.000 A 
ENDBRANCH  17  18
ENDBRANCH  15  17
ENDBRANCH   1  15
TORSDOF 3
ENDMDL
