MODEL 1
REMARK VINA RESULT:      -7.3      0.000      0.000
REMARK  Name = 
REMARK  8 active torsions:
REMARK  status: ('A' for Active; 'I' for Inactive)
REMARK    1  A    between atoms: C_1  and  O_2
REMARK    2  A    between atoms: O_2  and  C_3
REMARK    3  A    between atoms: C_5  and  N_6
REMARK    4  A    between atoms: C_7  and  C_9
REMARK    5  A    between atoms: C_16  and  C_17
REMARK    6  A    between atoms: N_19  and  C_20
REMARK    7  A    between atoms: N_23  and  C_24
REMARK    8  A    between atoms: C_24  and  C_25
REMARK                            x       y       z     vdW  Elec       q    Type
REMARK                         _______ _______ _______ _____ _____    ______ ____
ROOT
ATOM      1  C   UNL     1       1.155   8.913  19.277  0.00  0.00    +0.000 A 
ATOM      2  C   UNL     1       0.275   9.964  19.606  0.00  0.00    +0.000 A 
ATOM      3  C   UNL     1      -0.035  10.281  20.919  0.00  0.00    +0.000 A 
ATOM      4  C   UNL     1       0.312   9.351  21.901  0.00  0.00    +0.000 A 
ATOM      5 CL   UNL     1      -0.061   9.639  23.561  0.00  0.00    +0.000 Cl
ATOM      6  C   UNL     1       1.002   8.179  21.555  0.00  0.00    +0.000 A 
ATOM      7  C   UNL     1       1.456   7.940  20.240  0.00  0.00    +0.000 A 
ENDROOT
BRANCH   3   8
ATOM      8  N   UNL     1      -0.618  11.537  21.247  0.00  0.00    +0.000 N 
ATOM      9  C   UNL     1       0.107  12.705  21.543  0.00  0.00    +0.000 C 
ATOM     10  O   UNL     1       1.337  12.793  21.503  0.00  0.00    +0.000 OA
ATOM     11  H   UNL     1      -1.595  11.516  21.543  0.00  0.00    +0.000 HD
BRANCH   9  12
ATOM     12  C   UNL     1      -0.751  13.909  21.976  0.00  0.00    +0.000 C 
ATOM     13  F   UNL     1      -2.049  13.772  21.591  0.00  0.00    +0.000 F 
ATOM     14  F   UNL     1      -0.769  14.076  23.327  0.00  0.00    +0.000 F 
ATOM     15  F   UNL     1      -0.307  15.078  21.441  0.00  0.00    +0.000 F 
ENDBRANCH   9  12
ENDBRANCH   3   8
BRANCH   7  16
ATOM     16  C   UNL     1       2.229   6.654  20.044  0.00  0.00    +0.000 C 
ATOM     17  O   UNL     1       1.922   5.686  20.735  0.00  0.00    +0.000 OA
ATOM     18  N   UNL     1       3.232   6.570  19.092  0.00  0.00    +0.000 N 
ATOM     19  H   UNL     1       3.245   7.312  18.399  0.00  0.00    +0.000 HD
BRANCH  18  20
ATOM     20  C   UNL     1       3.865   5.285  18.724  0.00  0.00    +0.000 C 
ATOM     21  C   UNL     1       3.068   4.551  17.648  0.00  0.00    +0.000 C 
ATOM     22  C   UNL     1       4.107   3.725  16.907  0.00  0.00    +0.000 C 
ATOM     23  N   UNL     1       5.308   4.570  16.848  0.00  0.00    +0.000 NA
ATOM     24  C   UNL     1       5.302   5.316  18.133  0.00  0.00    +0.000 C 
BRANCH  23  25
ATOM     25  C   UNL     1       5.273   5.469  15.680  0.00  0.00    +0.000 C 
BRANCH  25  26
ATOM     26  C   UNL     1       5.943   4.895  14.452  0.00  0.00    +0.000 A 
ATOM     27  C   UNL     1       7.233   5.301  14.067  0.00  0.00    +0.000 A 
ATOM     28  C   UNL     1       7.822   4.793  12.907  0.00  0.00    +0.000 A 
ATOM     29  C   UNL     1       7.133   3.876  12.113  0.00  0.00    +0.000 A 
ATOM     30  C   UNL     1       5.863   3.448  12.490  0.00  0.00    +0.000 A 
ATOM     31  C   UNL     1       5.274   3.965  13.655  0.00  0.00    +0.000 A 
ENDBRANCH  25  26
ENDBRANCH  23  25
ENDBRANCH  18  20
ENDBRANCH   7  16
BRANCH   1  33
ATOM     32  C   UNL     1       2.394  10.182  17.741  0.00  0.00    +0.000 C 
ATOM     33  O   UNL     1       1.749   8.917  18.034  0.00  0.00    +0.000 OA
ENDBRANCH   1  33
TORSDOF 7
ENDMDL
MODEL 2
REMARK VINA RESULT:      -7.3      5.122     10.982
REMARK  Name = 
REMARK  8 active torsions:
REMARK  status: ('A' for Active; 'I' for Inactive)
REMARK    1  A    between atoms: C_1  and  O_2
REMARK    2  A    between atoms: O_2  and  C_3
REMARK    3  A    between atoms: C_5  and  N_6
REMARK    4  A    between atoms: C_7  and  C_9
REMARK    5  A    between atoms: C_16  and  C_17
REMARK    6  A    between atoms: N_19  and  C_20
REMARK    7  A    between atoms: N_23  and  C_24
REMARK    8  A    between atoms: C_24  and  C_25
REMARK                            x       y       z     vdW  Elec       q    Type
REMARK                         _______ _______ _______ _____ _____    ______ ____
ROOT
ATOM      1  C   UNL     1       1.358   9.171  19.334  0.00  0.00    +0.000 A 
ATOM      2  C   UNL     1       2.165   8.300  18.575  0.00  0.00    +0.000 A 
ATOM      3  C   UNL     1       2.377   6.981  18.946  0.00  0.00    +0.000 A 
ATOM      4  C   UNL     1       2.015   6.616  20.244  0.00  0.00    +0.000 A 
ATOM      5 CL   UNL     1       2.271   5.006  20.811  0.00  0.00    +0.000 Cl
ATOM      6  C   UNL     1       1.405   7.546  21.098  0.00  0.00    +0.000 A 
ATOM      7  C   UNL     1       1.045   8.839  20.660  0.00  0.00    +0.000 A 
ENDROOT
BRANCH   3   8
ATOM      8  N   UNL     1       2.879   6.032  18.011  0.00  0.00    +0.000 N 
ATOM      9  C   UNL     1       4.199   5.551  17.988  0.00  0.00    +0.000 C 
ATOM     10  O   UNL     1       5.070   5.856  18.808  0.00  0.00    +0.000 OA
ATOM     11  H   UNL     1       2.328   5.904  17.161  0.00  0.00    +0.000 HD
BRANCH   9  12
ATOM     12  C   UNL     1       4.527   4.615  16.809  0.00  0.00    +0.000 C 
ATOM     13  F   UNL     1       5.629   3.854  17.056  0.00  0.00    +0.000 F 
ATOM     14  F   UNL     1       3.515   3.745  16.537  0.00  0.00    +0.000 F 
ATOM     15  F   UNL     1       4.776   5.299  15.660  0.00  0.00    +0.000 F 
ENDBRANCH   9  12
ENDBRANCH   3   8
BRANCH   7  16
ATOM     16  C   UNL     1       0.349   9.703  21.688  0.00  0.00    +0.000 C 
ATOM     17  O   UNL     1       0.211   9.252  22.822  0.00  0.00    +0.000 OA
ATOM     18  N   UNL     1      -0.093  10.975  21.361  0.00  0.00    +0.000 N 
ATOM     19  H   UNL     1       0.285  11.366  20.504  0.00  0.00    +0.000 HD
BRANCH  18  20
ATOM     20  C   UNL     1      -0.586  11.926  22.381  0.00  0.00    +0.000 C 
ATOM     21  C   UNL     1      -0.552  13.366  21.873  0.00  0.00    +0.000 C 
ATOM     22  C   UNL     1      -1.666  14.062  22.639  0.00  0.00    +0.000 C 
ATOM     23  N   UNL     1      -2.747  13.071  22.742  0.00  0.00    +0.000 NA
ATOM     24  C   UNL     1      -2.047  11.768  22.887  0.00  0.00    +0.000 C 
BRANCH  23  25
ATOM     25  C   UNL     1      -3.620  13.107  21.555  0.00  0.00    +0.000 C 
BRANCH  25  26
ATOM     26  C   UNL     1      -5.065  12.776  21.853  0.00  0.00    +0.000 A 
ATOM     27  C   UNL     1      -5.899  12.203  20.878  0.00  0.00    +0.000 A 
ATOM     28  C   UNL     1      -7.242  11.942  21.154  0.00  0.00    +0.000 A 
ATOM     29  C   UNL     1      -7.774  12.252  22.406  0.00  0.00    +0.000 A 
ATOM     30  C   UNL     1      -6.958  12.803  23.391  0.00  0.00    +0.000 A 
ATOM     31  C   UNL     1      -5.608  13.067  23.105  0.00  0.00    +0.000 A 
ENDBRANCH  25  26
ENDBRANCH  23  25
ENDBRANCH  18  20
ENDBRANCH   7  16
BRANCH   1  33
ATOM     32  C   UNL     1      -0.379  10.005  17.997  0.00  0.00    +0.000 C 
ATOM     33  O   UNL     1       0.843  10.292  18.722  0.00  0.00    +0.000 OA
ENDBRANCH   1  33
TORSDOF 7
ENDMDL
MODEL 3
REMARK VINA RESULT:      -7.3      5.146     11.080
REMARK  Name = 
REMARK  8 active torsions:
REMARK  status: ('A' for Active; 'I' for Inactive)
REMARK    1  A    between atoms: C_1  and  O_2
REMARK    2  A    between atoms: O_2  and  C_3
REMARK    3  A    between atoms: C_5  and  N_6
REMARK    4  A    between atoms: C_7  and  C_9
REMARK    5  A    between atoms: C_16  and  C_17
REMARK    6  A    between atoms: N_19  and  C_20
REMARK    7  A    between atoms: N_23  and  C_24
REMARK    8  A    between atoms: C_24  and  C_25
REMARK                            x       y       z     vdW  Elec       q    Type
REMARK                         _______ _______ _______ _____ _____    ______ ____
ROOT
ATOM      1  C   UNL     1       1.416   9.219  19.292  0.00  0.00    +0.000 A 
ATOM      2  C   UNL     1       2.217   8.330  18.547  0.00  0.00    +0.000 A 
ATOM      3  C   UNL     1       2.387   7.005  18.918  0.00  0.00    +0.000 A 
ATOM      4  C   UNL     1       1.987   6.645  20.206  0.00  0.00    +0.000 A 
ATOM      5 CL   UNL     1       2.189   5.027  20.773  0.00  0.00    +0.000 Cl
ATOM      6  C   UNL     1       1.382   7.588  21.050  0.00  0.00    +0.000 A 
ATOM      7  C   UNL     1       1.066   8.891  20.609  0.00  0.00    +0.000 A 
ENDROOT
BRANCH   3   8
ATOM      8  N   UNL     1       2.884   6.047  17.990  0.00  0.00    +0.000 N 
ATOM      9  C   UNL     1       4.183   5.510  18.012  0.00  0.00    +0.000 C 
ATOM     10  O   UNL     1       5.033   5.768  18.869  0.00  0.00    +0.000 OA
ATOM     11  H   UNL     1       2.363   5.952  17.118  0.00  0.00    +0.000 HD
BRANCH   9  12
ATOM     12  C   UNL     1       4.518   4.574  16.834  0.00  0.00    +0.000 C 
ATOM     13  F   UNL     1       4.744   5.265  15.684  0.00  0.00    +0.000 F 
ATOM     14  F   UNL     1       5.636   3.831  17.061  0.00  0.00    +0.000 F 
ATOM     15  F   UNL     1       3.511   3.697  16.570  0.00  0.00    +0.000 F 
ENDBRANCH   9  12
ENDBRANCH   3   8
BRANCH   7  16
ATOM     16  C   UNL     1       0.369   9.769  21.625  0.00  0.00    +0.000 C 
ATOM     17  O   UNL     1       0.228   9.332  22.765  0.00  0.00    +0.000 OA
ATOM     18  N   UNL     1      -0.069  11.038  21.282  0.00  0.00    +0.000 N 
ATOM     19  H   UNL     1       0.311  11.417  20.420  0.00  0.00    +0.000 HD
BRANCH  18  20
ATOM     20  C   UNL     1      -0.562  12.002  22.289  0.00  0.00    +0.000 C 
ATOM     21  C   UNL     1      -0.726  13.401  21.697  0.00  0.00    +0.000 C 
ATOM     22  C   UNL     1      -1.831  14.034  22.528  0.00  0.00    +0.000 C 
ATOM     23  N   UNL     1      -2.788  12.951  22.795  0.00  0.00    +0.000 NA
ATOM     24  C   UNL     1      -1.945  11.736  22.946  0.00  0.00    +0.000 C 
BRANCH  23  25
ATOM     25  C   UNL     1      -3.766  12.820  21.700  0.00  0.00    +0.000 C 
BRANCH  25  26
ATOM     26  C   UNL     1      -5.200  12.730  22.174  0.00  0.00    +0.000 A 
ATOM     27  C   UNL     1      -5.536  12.930  23.524  0.00  0.00    +0.000 A 
ATOM     28  C   UNL     1      -6.859  12.803  23.954  0.00  0.00    +0.000 A 
ATOM     29  C   UNL     1      -7.864  12.471  23.045  0.00  0.00    +0.000 A 
ATOM     30  C   UNL     1      -7.551  12.288  21.700  0.00  0.00    +0.000 A 
ATOM     31  C   UNL     1      -6.219  12.413  21.275  0.00  0.00    +0.000 A 
ENDBRANCH  25  26
ENDBRANCH  23  25
ENDBRANCH  18  20
ENDBRANCH   7  16
BRANCH   1  33
ATOM     32  C   UNL     1       2.010  11.280  18.342  0.00  0.00    +0.000 C 
ATOM     33  O   UNL     1       0.944  10.355  18.673  0.00  0.00    +0.000 OA
ENDBRANCH   1  33
TORSDOF 7
ENDMDL
MODEL 4
REMARK VINA RESULT:      -7.2      5.180     10.915
REMARK  Name = 
REMARK  8 active torsions:
REMARK  status: ('A' for Active; 'I' for Inactive)
REMARK    1  A    between atoms: C_1  and  O_2
REMARK    2  A    between atoms: O_2  and  C_3
REMARK    3  A    between atoms: C_5  and  N_6
REMARK    4  A    between atoms: C_7  and  C_9
REMARK    5  A    between atoms: C_16  and  C_17
REMARK    6  A    between atoms: N_19  and  C_20
REMARK    7  A    between atoms: N_23  and  C_24
REMARK    8  A    between atoms: C_24  and  C_25
REMARK                            x       y       z     vdW  Elec       q    Type
REMARK                         _______ _______ _______ _____ _____    ______ ____
ROOT
ATOM      1  C   UNL     1       1.515   8.984  19.015  0.00  0.00    +0.000 A 
ATOM      2  C   UNL     1       2.167   7.935  18.334  0.00  0.00    +0.000 A 
ATOM      3  C   UNL     1       2.274   6.662  18.873  0.00  0.00    +0.000 A 
ATOM      4  C   UNL     1       1.982   6.515  20.230  0.00  0.00    +0.000 A 
ATOM      5 CL   UNL     1       2.119   4.976  21.000  0.00  0.00    +0.000 Cl
ATOM      6  C   UNL     1       1.539   7.613  20.983  0.00  0.00    +0.000 A 
ATOM      7  C   UNL     1       1.278   8.868  20.391  0.00  0.00    +0.000 A 
ENDROOT
BRANCH   3   8
ATOM      8  N   UNL     1       2.600   5.548  18.049  0.00  0.00    +0.000 N 
ATOM      9  C   UNL     1       3.881   4.979  17.941  0.00  0.00    +0.000 C 
ATOM     10  O   UNL     1       4.866   5.347  18.587  0.00  0.00    +0.000 OA
ATOM     11  H   UNL     1       1.935   5.327  17.306  0.00  0.00    +0.000 HD
BRANCH   9  12
ATOM     12  C   UNL     1       4.004   3.851  16.899  0.00  0.00    +0.000 C 
ATOM     13  F   UNL     1       4.688   4.252  15.793  0.00  0.00    +0.000 F 
ATOM     14  F   UNL     1       4.664   2.763  17.384  0.00  0.00    +0.000 F 
ATOM     15  F   UNL     1       2.790   3.412  16.468  0.00  0.00    +0.000 F 
ENDBRANCH   9  12
ENDBRANCH   3   8
BRANCH   7  16
ATOM     16  C   UNL     1       0.758   9.932  21.332  0.00  0.00    +0.000 C 
ATOM     17  O   UNL     1       1.329  10.081  22.409  0.00  0.00    +0.000 OA
ATOM     18  N   UNL     1      -0.316  10.731  20.971  0.00  0.00    +0.000 N 
ATOM     19  H   UNL     1      -0.557  10.725  19.985  0.00  0.00    +0.000 HD
BRANCH  18  20
ATOM     20  C   UNL     1      -0.722  11.913  21.763  0.00  0.00    +0.000 C 
ATOM     21  C   UNL     1      -0.661  13.195  20.934  0.00  0.00    +0.000 C 
ATOM     22  C   UNL     1      -1.709  14.099  21.563  0.00  0.00    +0.000 C 
ATOM     23  N   UNL     1      -2.818  13.211  21.937  0.00  0.00    +0.000 NA
ATOM     24  C   UNL     1      -2.160  11.945  22.351  0.00  0.00    +0.000 C 
BRANCH  23  25
ATOM     25  C   UNL     1      -3.749  13.014  20.811  0.00  0.00    +0.000 C 
BRANCH  25  26
ATOM     26  C   UNL     1      -5.151  12.646  21.238  0.00  0.00    +0.000 A 
ATOM     27  C   UNL     1      -6.011  11.930  20.386  0.00  0.00    +0.000 A 
ATOM     28  C   UNL     1      -7.317  11.634  20.778  0.00  0.00    +0.000 A 
ATOM     29  C   UNL     1      -7.787  12.048  22.024  0.00  0.00    +0.000 A 
ATOM     30  C   UNL     1      -6.944  12.741  22.890  0.00  0.00    +0.000 A 
ATOM     31  C   UNL     1      -5.632  13.040  22.487  0.00  0.00    +0.000 A 
ENDBRANCH  25  26
ENDBRANCH  23  25
ENDBRANCH  18  20
ENDBRANCH   7  16
BRANCH   1  33
ATOM     32  C   UNL     1       2.094  11.076  18.128  0.00  0.00    +0.000 C 
ATOM     33  O   UNL     1       1.069  10.063  18.286  0.00  0.00    +0.000 OA
ENDBRANCH   1  33
TORSDOF 7
ENDMDL
MODEL 5
REMARK VINA RESULT:      -7.1      5.172     11.165
REMARK  Name = 
REMARK  8 active torsions:
REMARK  status: ('A' for Active; 'I' for Inactive)
REMARK    1  A    between atoms: C_1  and  O_2
REMARK    2  A    between atoms: O_2  and  C_3
REMARK    3  A    between atoms: C_5  and  N_6
REMARK    4  A    between atoms: C_7  and  C_9
REMARK    5  A    between atoms: C_16  and  C_17
REMARK    6  A    between atoms: N_19  and  C_20
REMARK    7  A    between atoms: N_23  and  C_24
REMARK    8  A    between atoms: C_24  and  C_25
REMARK                            x       y       z     vdW  Elec       q    Type
REMARK                         _______ _______ _______ _____ _____    ______ ____
ROOT
ATOM      1  C   UNL     1       1.561   9.124  18.916  0.00  0.00    +0.000 A 
ATOM      2  C   UNL     1       2.235   8.032  18.333  0.00  0.00    +0.000 A 
ATOM      3  C   UNL     1       2.247   6.776  18.921  0.00  0.00    +0.000 A 
ATOM      4  C   UNL     1       1.828   6.687  20.249  0.00  0.00    +0.000 A 
ATOM      5 CL   UNL     1       1.840   5.173  21.078  0.00  0.00    +0.000 Cl
ATOM      6  C   UNL     1       1.357   7.824  20.922  0.00  0.00    +0.000 A 
ATOM      7  C   UNL     1       1.195   9.065  20.268  0.00  0.00    +0.000 A 
ENDROOT
BRANCH   3   8
ATOM      8  N   UNL     1       2.608   5.623  18.167  0.00  0.00    +0.000 N 
ATOM      9  C   UNL     1       3.887   5.039  18.160  0.00  0.00    +0.000 C 
ATOM     10  O   UNL     1       4.837   5.427  18.845  0.00  0.00    +0.000 OA
ATOM     11  H   UNL     1       1.985   5.376  17.397  0.00  0.00    +0.000 HD
BRANCH   9  12
ATOM     12  C   UNL     1       4.057   3.864  17.177  0.00  0.00    +0.000 C 
ATOM     13  F   UNL     1       4.377   2.708  17.819  0.00  0.00    +0.000 F 
ATOM     14  F   UNL     1       2.922   3.608  16.470  0.00  0.00    +0.000 F 
ATOM     15  F   UNL     1       5.043   4.091  16.268  0.00  0.00    +0.000 F 
ENDBRANCH   9  12
ENDBRANCH   3   8
BRANCH   7  16
ATOM     16  C   UNL     1       0.629  10.178  21.122  0.00  0.00    +0.000 C 
ATOM     17  O   UNL     1       1.049  10.296  22.270  0.00  0.00    +0.000 OA
ATOM     18  N   UNL     1      -0.316  11.053  20.608  0.00  0.00    +0.000 N 
ATOM     19  H   UNL     1      -0.412  11.052  19.597  0.00  0.00    +0.000 HD
BRANCH  18  20
ATOM     20  C   UNL     1      -0.739  12.272  21.330  0.00  0.00    +0.000 C 
ATOM     21  C   UNL     1      -1.202  13.365  20.369  0.00  0.00    +0.000 C 
ATOM     22  C   UNL     1      -2.208  14.172  21.175  0.00  0.00    +0.000 C 
ATOM     23  N   UNL     1      -2.939  13.189  21.986  0.00  0.00    +0.000 NA
ATOM     24  C   UNL     1      -1.923  12.160  22.330  0.00  0.00    +0.000 C 
BRANCH  23  25
ATOM     25  C   UNL     1      -4.078  12.623  21.241  0.00  0.00    +0.000 C 
BRANCH  25  26
ATOM     26  C   UNL     1      -5.402  12.762  21.958  0.00  0.00    +0.000 A 
ATOM     27  C   UNL     1      -5.462  12.955  23.350  0.00  0.00    +0.000 A 
ATOM     28  C   UNL     1      -6.692  13.040  24.004  0.00  0.00    +0.000 A 
ATOM     29  C   UNL     1      -7.881  12.930  23.282  0.00  0.00    +0.000 A 
ATOM     30  C   UNL     1      -7.840  12.758  21.900  0.00  0.00    +0.000 A 
ATOM     31  C   UNL     1      -6.599  12.669  21.248  0.00  0.00    +0.000 A 
ENDBRANCH  25  26
ENDBRANCH  23  25
ENDBRANCH  18  20
ENDBRANCH   7  16
BRANCH   1  33
ATOM     32  C   UNL     1       2.250  11.213  18.101  0.00  0.00    +0.000 C 
ATOM     33  O   UNL     1       1.221  10.191  18.115  0.00  0.00    +0.000 OA
ENDBRANCH   1  33
TORSDOF 7
ENDMDL
MODEL 6
REMARK VINA RESULT:      -7.1      5.056     10.478
REMARK  Name = 
REMARK  8 active torsions:
REMARK  status: ('A' for Active; 'I' for Inactive)
REMARK    1  A    between atoms: C_1  and  O_2
REMARK    2  A    between atoms: O_2  and  C_3
REMARK    3  A    between atoms: C_5  and  N_6
REMARK    4  A    between atoms: C_7  and  C_9
REMARK    5  A    between atoms: C_16  and  C_17
REMARK    6  A    between atoms: N_19  and  C_20
REMARK    7  A    between atoms: N_23  and  C_24
REMARK    8  A    between atoms: C_24  and  C_25
REMARK                            x       y       z     vdW  Elec       q    Type
REMARK                         _______ _______ _______ _____ _____    ______ ____
ROOT
ATOM      1  C   UNL     1       1.478   9.087  19.000  0.00  0.00    +0.000 A 
ATOM      2  C   UNL     1       2.348   8.234  18.291  0.00  0.00    +0.000 A 
ATOM      3  C   UNL     1       2.607   6.937  18.705  0.00  0.00    +0.000 A 
ATOM      4  C   UNL     1       2.221   6.590  20.001  0.00  0.00    +0.000 A 
ATOM      5 CL   UNL     1       2.530   5.009  20.621  0.00  0.00    +0.000 Cl
ATOM      6  C   UNL     1       1.541   7.514  20.809  0.00  0.00    +0.000 A 
ATOM      7  C   UNL     1       1.138   8.777  20.324  0.00  0.00    +0.000 A 
ENDROOT
BRANCH   3   8
ATOM      8  N   UNL     1       3.181   5.988  17.813  0.00  0.00    +0.000 N 
ATOM      9  C   UNL     1       4.543   5.931  17.471  0.00  0.00    +0.000 C 
ATOM     10  O   UNL     1       5.414   6.666  17.944  0.00  0.00    +0.000 OA
ATOM     11  H   UNL     1       2.530   5.504  17.192  0.00  0.00    +0.000 HD
BRANCH   9  12
ATOM     12  C   UNL     1       4.899   4.883  16.399  0.00  0.00    +0.000 C 
ATOM     13  F   UNL     1       5.086   5.451  15.176  0.00  0.00    +0.000 F 
ATOM     14  F   UNL     1       6.047   4.211  16.688  0.00  0.00    +0.000 F 
ATOM     15  F   UNL     1       3.924   3.947  16.248  0.00  0.00    +0.000 F 
ENDBRANCH   9  12
ENDBRANCH   3   8
BRANCH   7  16
ATOM     16  C   UNL     1       0.371   9.635  21.306  0.00  0.00    +0.000 C 
ATOM     17  O   UNL     1      -0.074   9.098  22.317  0.00  0.00    +0.000 OA
ATOM     18  N   UNL     1       0.202  10.991  21.079  0.00  0.00    +0.000 N 
ATOM     19  H   UNL     1       0.810  11.399  20.374  0.00  0.00    +0.000 HD
BRANCH  18  20
ATOM     20  C   UNL     1      -0.354  11.900  22.104  0.00  0.00    +0.000 C 
ATOM     21  C   UNL     1      -0.023  13.361  21.803  0.00  0.00    +0.000 C 
ATOM     22  C   UNL     1      -1.165  14.143  22.432  0.00  0.00    +0.000 C 
ATOM     23  N   UNL     1      -2.368  13.331  22.203  0.00  0.00    +0.000 NA
ATOM     24  C   UNL     1      -1.895  11.926  22.305  0.00  0.00    +0.000 C 
BRANCH  23  25
ATOM     25  C   UNL     1      -2.969  13.624  20.889  0.00  0.00    +0.000 C 
BRANCH  25  26
ATOM     26  C   UNL     1      -4.296  12.936  20.661  0.00  0.00    +0.000 A 
ATOM     27  C   UNL     1      -4.577  12.275  19.452  0.00  0.00    +0.000 A 
ATOM     28  C   UNL     1      -5.822  11.681  19.240  0.00  0.00    +0.000 A 
ATOM     29  C   UNL     1      -6.806  11.738  20.228  0.00  0.00    +0.000 A 
ATOM     30  C   UNL     1      -6.538  12.372  21.438  0.00  0.00    +0.000 A 
ATOM     31  C   UNL     1      -5.285  12.972  21.644  0.00  0.00    +0.000 A 
ENDBRANCH  25  26
ENDBRANCH  23  25
ENDBRANCH  18  20
ENDBRANCH   7  16
BRANCH   1  33
ATOM     32  C   UNL     1      -0.385   9.876  17.814  0.00  0.00    +0.000 C 
ATOM     33  O   UNL     1       0.934  10.167  18.341  0.00  0.00    +0.000 OA
ENDBRANCH   1  33
TORSDOF 7
ENDMDL
MODEL 7
REMARK VINA RESULT:      -7.0      1.999      2.635
REMARK  Name = 
REMARK  8 active torsions:
REMARK  status: ('A' for Active; 'I' for Inactive)
REMARK    1  A    between atoms: C_1  and  O_2
REMARK    2  A    between atoms: O_2  and  C_3
REMARK    3  A    between atoms: C_5  and  N_6
REMARK    4  A    between atoms: C_7  and  C_9
REMARK    5  A    between atoms: C_16  and  C_17
REMARK    6  A    between atoms: N_19  and  C_20
REMARK    7  A    between atoms: N_23  and  C_24
REMARK    8  A    between atoms: C_24  and  C_25
REMARK                            x       y       z     vdW  Elec       q    Type
REMARK                         _______ _______ _______ _____ _____    ______ ____
ROOT
ATOM      1  C   UNL     1       1.383   8.926  19.474  0.00  0.00    +0.000 A 
ATOM      2  C   UNL     1       0.722  10.148  19.715  0.00  0.00    +0.000 A 
ATOM      3  C   UNL     1       0.297  10.518  20.982  0.00  0.00    +0.000 A 
ATOM      4  C   UNL     1       0.274   9.526  21.964  0.00  0.00    +0.000 A 
ATOM      5 CL   UNL     1      -0.271   9.881  23.563  0.00  0.00    +0.000 Cl
ATOM      6  C   UNL     1       0.728   8.231  21.675  0.00  0.00    +0.000 A 
ATOM      7  C   UNL     1       1.309   7.903  20.430  0.00  0.00    +0.000 A 
ENDROOT
BRANCH   3   8
ATOM      8  N   UNL     1      -0.032  11.872  21.273  0.00  0.00    +0.000 N 
ATOM      9  C   UNL     1      -1.218  12.512  20.873  0.00  0.00    +0.000 C 
ATOM     10  O   UNL     1      -2.140  11.960  20.265  0.00  0.00    +0.000 OA
ATOM     11  H   UNL     1       0.745  12.474  21.548  0.00  0.00    +0.000 HD
BRANCH   9  12
ATOM     12  C   UNL     1      -1.292  14.012  21.214  0.00  0.00    +0.000 C 
ATOM     13  F   UNL     1      -0.055  14.560  21.367  0.00  0.00    +0.000 F 
ATOM     14  F   UNL     1      -1.915  14.737  20.244  0.00  0.00    +0.000 F 
ATOM     15  F   UNL     1      -1.967  14.246  22.372  0.00  0.00    +0.000 F 
ENDBRANCH   9  12
ENDBRANCH   3   8
BRANCH   7  16
ATOM     16  C   UNL     1       1.793   6.477  20.296  0.00  0.00    +0.000 C 
ATOM     17  O   UNL     1       1.743   5.754  21.288  0.00  0.00    +0.000 OA
ATOM     18  N   UNL     1       2.254   5.997  19.080  0.00  0.00    +0.000 N 
ATOM     19  H   UNL     1       2.021   6.562  18.268  0.00  0.00    +0.000 HD
BRANCH  18  20
ATOM     20  C   UNL     1       2.537   4.564  18.852  0.00  0.00    +0.000 C 
ATOM     21  C   UNL     1       2.000   4.090  17.503  0.00  0.00    +0.000 C 
ATOM     22  C   UNL     1       2.922   2.945  17.113  0.00  0.00    +0.000 C 
ATOM     23  N   UNL     1       4.261   3.351  17.561  0.00  0.00    +0.000 NA
ATOM     24  C   UNL     1       4.021   4.105  18.819  0.00  0.00    +0.000 C 
BRANCH  23  25
ATOM     25  C   UNL     1       4.941   4.168  16.540  0.00  0.00    +0.000 C 
BRANCH  25  26
ATOM     26  C   UNL     1       5.963   5.125  17.111  0.00  0.00    +0.000 A 
ATOM     27  C   UNL     1       6.973   4.681  17.983  0.00  0.00    +0.000 A 
ATOM     28  C   UNL     1       7.884   5.584  18.535  0.00  0.00    +0.000 A 
ATOM     29  C   UNL     1       7.800   6.942  18.228  0.00  0.00    +0.000 A 
ATOM     30  C   UNL     1       6.818   7.397  17.352  0.00  0.00    +0.000 A 
ATOM     31  C   UNL     1       5.902   6.485  16.803  0.00  0.00    +0.000 A 
ENDBRANCH  25  26
ENDBRANCH  23  25
ENDBRANCH  18  20
ENDBRANCH   7  16
BRANCH   1  33
ATOM     32  C   UNL     1       2.402  10.086  17.708  0.00  0.00    +0.000 C 
ATOM     33  O   UNL     1       2.143   8.803  18.332  0.00  0.00    +0.000 OA
ENDBRANCH   1  33
TORSDOF 7
ENDMDL
MODEL 8
REMARK VINA RESULT:      -7.0      2.835      4.612
REMARK  Name = 
REMARK  8 active torsions:
REMARK  status: ('A' for Active; 'I' for Inactive)
REMARK    1  A    between atoms: C_1  and  O_2
REMARK    2  A    between atoms: O_2  and  C_3
REMARK    3  A    between atoms: C_5  and  N_6
REMARK    4  A    between atoms: C_7  and  C_9
REMARK    5  A    between atoms: C_16  and  C_17
REMARK    6  A    between atoms: N_19  and  C_20
REMARK    7  A    between atoms: N_23  and  C_24
REMARK    8  A    between atoms: C_24  and  C_25
REMARK                            x       y       z     vdW  Elec       q    Type
REMARK                         _______ _______ _______ _____ _____    ______ ____
ROOT
ATOM      1  C   UNL     1       1.317   9.028  20.286  0.00  0.00    +0.000 A 
ATOM      2  C   UNL     1       0.543   9.986  20.971  0.00  0.00    +0.000 A 
ATOM      3  C   UNL     1      -0.375  10.795  20.319  0.00  0.00    +0.000 A 
ATOM      4  C   UNL     1      -0.305  10.847  18.926  0.00  0.00    +0.000 A 
ATOM      5 CL   UNL     1      -1.383  11.851  18.025  0.00  0.00    +0.000 Cl
ATOM      6  C   UNL     1       0.622  10.055  18.232  0.00  0.00    +0.000 A 
ATOM      7  C   UNL     1       1.443   9.114  18.892  0.00  0.00    +0.000 A 
ENDROOT
BRANCH   3   8
ATOM      8  N   UNL     1      -1.387  11.483  21.047  0.00  0.00    +0.000 N 
ATOM      9  C   UNL     1      -1.381  11.674  22.439  0.00  0.00    +0.000 C 
ATOM     10  O   UNL     1      -0.473  11.311  23.192  0.00  0.00    +0.000 OA
ATOM     11  H   UNL     1      -2.280  11.605  20.569  0.00  0.00    +0.000 HD
BRANCH   9  12
ATOM     12  C   UNL     1      -2.643  12.353  23.005  0.00  0.00    +0.000 C 
ATOM     13  F   UNL     1      -2.363  13.564  23.561  0.00  0.00    +0.000 F 
ATOM     14  F   UNL     1      -3.586  12.580  22.049  0.00  0.00    +0.000 F 
ATOM     15  F   UNL     1      -3.240  11.608  23.975  0.00  0.00    +0.000 F 
ENDBRANCH   9  12
ENDBRANCH   3   8
BRANCH   7  16
ATOM     16  C   UNL     1       2.352   8.305  17.995  0.00  0.00    +0.000 C 
ATOM     17  O   UNL     1       2.586   8.736  16.869  0.00  0.00    +0.000 OA
ATOM     18  N   UNL     1       2.923   7.125  18.446  0.00  0.00    +0.000 N 
ATOM     19  H   UNL     1       2.894   6.978  19.450  0.00  0.00    +0.000 HD
BRANCH  18  20
ATOM     20  C   UNL     1       3.974   6.416  17.685  0.00  0.00    +0.000 C 
ATOM     21  C   UNL     1       5.307   6.413  18.432  0.00  0.00    +0.000 C 
ATOM     22  C   UNL     1       6.002   5.147  17.956  0.00  0.00    +0.000 C 
ATOM     23  N   UNL     1       4.938   4.143  17.821  0.00  0.00    +0.000 NA
ATOM     24  C   UNL     1       3.755   4.913  17.355  0.00  0.00    +0.000 C 
BRANCH  23  25
ATOM     25  C   UNL     1       4.688   3.454  19.100  0.00  0.00    +0.000 C 
BRANCH  25  26
ATOM     26  C   UNL     1       3.225   3.181  19.367  0.00  0.00    +0.000 A 
ATOM     27  C   UNL     1       2.462   2.378  18.500  0.00  0.00    +0.000 A 
ATOM     28  C   UNL     1       1.102   2.169  18.737  0.00  0.00    +0.000 A 
ATOM     29  C   UNL     1       0.482   2.759  19.839  0.00  0.00    +0.000 A 
ATOM     30  C   UNL     1       1.227   3.542  20.718  0.00  0.00    +0.000 A 
ATOM     31  C   UNL     1       2.593   3.752  20.472  0.00  0.00    +0.000 A 
ENDBRANCH  25  26
ENDBRANCH  23  25
ENDBRANCH  18  20
ENDBRANCH   7  16
BRANCH   1  33
ATOM     32  C   UNL     1       0.883   6.999  21.378  0.00  0.00    +0.000 C 
ATOM     33  O   UNL     1       1.871   7.993  21.005  0.00  0.00    +0.000 OA
ENDBRANCH   1  33
TORSDOF 7
ENDMDL
MODEL 9
REMARK VINA RESULT:      -7.0      3.891      5.420
REMARK  Name = 
REMARK  8 active torsions:
REMARK  status: ('A' for Active; 'I' for Inactive)
REMARK    1  A    between atoms: C_1  and  O_2
REMARK    2  A    between atoms: O_2  and  C_3
REMARK    3  A    between atoms: C_5  and  N_6
REMARK    4  A    between atoms: C_7  and  C_9
REMARK    5  A    between atoms: C_16  and  C_17
REMARK    6  A    between atoms: N_19  and  C_20
REMARK    7  A    between atoms: N_23  and  C_24
REMARK    8  A    between atoms: C_24  and  C_25
REMARK                            x       y       z     vdW  Elec       q    Type
REMARK                         _______ _______ _______ _____ _____    ______ ____
ROOT
ATOM      1  C   UNL     1      -1.844  10.665  18.310  0.00  0.00    +0.000 A 
ATOM      2  C   UNL     1      -3.166  11.137  18.444  0.00  0.00    +0.000 A 
ATOM      3  C   UNL     1      -3.503  12.137  19.343  0.00  0.00    +0.000 A 
ATOM      4  C   UNL     1      -2.562  12.461  20.322  0.00  0.00    +0.000 A 
ATOM      5 CL   UNL     1      -2.903  13.669  21.507  0.00  0.00    +0.000 Cl
ATOM      6  C   UNL     1      -1.309  11.832  20.336  0.00  0.00    +0.000 A 
ATOM      7  C   UNL     1      -0.912  10.933  19.322  0.00  0.00    +0.000 A 
ENDROOT
BRANCH   3   8
ATOM      8  N   UNL     1      -4.732  12.845  19.218  0.00  0.00    +0.000 N 
ATOM      9  C   UNL     1      -5.860  12.640  20.032  0.00  0.00    +0.000 C 
ATOM     10  O   UNL     1      -5.903  11.857  20.985  0.00  0.00    +0.000 OA
ATOM     11  H   UNL     1      -4.886  13.325  18.331  0.00  0.00    +0.000 HD
BRANCH   9  12
ATOM     12  C   UNL     1      -7.107  13.450  19.627  0.00  0.00    +0.000 C 
ATOM     13  F   UNL     1      -7.916  13.703  20.691  0.00  0.00    +0.000 F 
ATOM     14  F   UNL     1      -6.790  14.661  19.091  0.00  0.00    +0.000 F 
ATOM     15  F   UNL     1      -7.867  12.800  18.705  0.00  0.00    +0.000 F 
ENDBRANCH   9  12
ENDBRANCH   3   8
BRANCH   7  16
ATOM     16  C   UNL     1       0.490  10.381  19.457  0.00  0.00    +0.000 C 
ATOM     17  O   UNL     1       1.261  10.945  20.229  0.00  0.00    +0.000 OA
ATOM     18  N   UNL     1       0.877   9.255  18.748  0.00  0.00    +0.000 N 
ATOM     19  H   UNL     1       0.123   8.706  18.347  0.00  0.00    +0.000 HD
BRANCH  18  20
ATOM     20  C   UNL     1       2.159   8.562  19.005  0.00  0.00    +0.000 C 
ATOM     21  C   UNL     1       1.996   7.433  20.021  0.00  0.00    +0.000 C 
ATOM     22  C   UNL     1       3.086   6.438  19.655  0.00  0.00    +0.000 C 
ATOM     23  N   UNL     1       3.150   6.451  18.187  0.00  0.00    +0.000 NA
ATOM     24  C   UNL     1       2.867   7.861  17.813  0.00  0.00    +0.000 C 
BRANCH  23  25
ATOM     25  C   UNL     1       2.178   5.511  17.601  0.00  0.00    +0.000 C 
BRANCH  25  26
ATOM     26  C   UNL     1       2.388   4.075  18.025  0.00  0.00    +0.000 A 
ATOM     27  C   UNL     1       3.551   3.371  17.667  0.00  0.00    +0.000 A 
ATOM     28  C   UNL     1       3.713   2.033  18.030  0.00  0.00    +0.000 A 
ATOM     29  C   UNL     1       2.717   1.376  18.753  0.00  0.00    +0.000 A 
ATOM     30  C   UNL     1       1.567   2.063  19.133  0.00  0.00    +0.000 A 
ATOM     31  C   UNL     1       1.408   3.408  18.761  0.00  0.00    +0.000 A 
ENDBRANCH  25  26
ENDBRANCH  23  25
ENDBRANCH  18  20
ENDBRANCH   7  16
BRANCH   1  33
ATOM     32  C   UNL     1      -2.481  10.190  16.103  0.00  0.00    +0.000 C 
ATOM     33  O   UNL     1      -1.493  10.012  17.150  0.00  0.00    +0.000 OA
ENDBRANCH   1  33
TORSDOF 7
ENDMDL
