MODEL 1
REMARK VINA RESULT:      -7.1      0.000      0.000
REMARK  Name = 
REMARK  5 active torsions:
REMARK  status: ('A' for Active; 'I' for Inactive)
REMARK    1  A    between atoms: C_1  and  N_2
REMARK    2  A    between atoms: N_2  and  C_3
REMARK    3  A    between atoms: N_2  and  C_11
REMARK    4  A    between atoms: C_3  and  C_4
REMARK    5  A    between atoms: C_11  and  N_12
REMARK                            x       y       z     vdW  Elec       q    Type
REMARK                         _______ _______ _______ _____ _____    ______ ____
ROOT
ATOM      1  C   UNL     1       5.880   5.591  18.449  0.00  0.00    +0.000 C 
ATOM      2  N   UNL     1       4.418   5.435  18.530  0.00  0.00    +0.000 NA
ENDROOT
BRANCH   2   3
ATOM      3  C   UNL     1       3.832   6.514  17.702  0.00  0.00    +0.000 C 
BRANCH   3   4
ATOM      4  C   UNL     1       2.837   7.400  18.419  0.00  0.00    +0.000 A 
ATOM      5  C   UNL     1       2.276   8.515  17.782  0.00  0.00    +0.000 A 
ATOM      6  C   UNL     1       1.361   9.328  18.457  0.00  0.00    +0.000 A 
ATOM      7  C   UNL     1       1.003   9.025  19.770  0.00  0.00    +0.000 A 
ATOM      8 CL   UNL     1      -0.107  10.036  20.609  0.00  0.00    +0.000 Cl
ATOM      9  C   UNL     1       1.543   7.913  20.411  0.00  0.00    +0.000 A 
ATOM     10  C   UNL     1       2.455   7.100  19.736  0.00  0.00    +0.000 A 
ENDBRANCH   3   4
ENDBRANCH   2   3
BRANCH   2  11
ATOM     11  C   UNL     1       4.000   4.114  18.033  0.00  0.00    +0.000 C 
BRANCH  11  12
ATOM     12  N   UNL     1       2.818   3.672  18.726  0.00  0.00    +0.000 N 
ATOM     13  C   UNL     1       1.508   3.728  18.219  0.00  0.00    +0.000 C 
ATOM     14  O   UNL     1       1.106   4.310  17.231  0.00  0.00    +0.000 OA
ATOM     15  C   UNL     1       0.698   2.856  19.192  0.00  0.00    +0.000 C 
ATOM     16  C   UNL     1       0.710   3.583  20.517  0.00  0.00    +0.000 C 
ATOM     17  C   UNL     1       1.988   3.565  20.941  0.00  0.00    +0.000 C 
ATOM     18  C   UNL     1       2.812   2.823  19.905  0.00  0.00    +0.000 C 
ATOM     19  C   UNL     1       1.764   1.789  19.498  0.00  0.00    +0.000 C 
ENDBRANCH  11  12
ENDBRANCH   2  11
TORSDOF 4
ENDMDL
MODEL 2
REMARK VINA RESULT:      -6.7      2.192      4.527
REMARK  Name = 
REMARK  5 active torsions:
REMARK  status: ('A' for Active; 'I' for Inactive)
REMARK    1  A    between atoms: C_1  and  N_2
REMARK    2  A    between atoms: N_2  and  C_3
REMARK    3  A    between atoms: N_2  and  C_11
REMARK    4  A    between atoms: C_3  and  C_4
REMARK    5  A    between atoms: C_11  and  N_12
REMARK                            x       y       z     vdW  Elec       q    Type
REMARK                         _______ _______ _______ _____ _____    ______ ____
ROOT
ATOM      1  C   UNL     1       3.530   2.074  18.003  0.00  0.00    +0.000 C 
ATOM      2  N   UNL     1       3.675   3.494  18.364  0.00  0.00    +0.000 NA
ENDROOT
BRANCH   2   3
ATOM      3  C   UNL     1       2.509   3.837  19.209  0.00  0.00    +0.000 C 
BRANCH   3   4
ATOM      4  C   UNL     1       2.234   5.318  19.347  0.00  0.00    +0.000 A 
ATOM      5  C   UNL     1       1.810   5.861  20.568  0.00  0.00    +0.000 A 
ATOM      6  C   UNL     1       1.556   7.230  20.682  0.00  0.00    +0.000 A 
ATOM      7  C   UNL     1       1.729   8.060  19.575  0.00  0.00    +0.000 A 
ATOM      8 CL   UNL     1       1.397   9.743  19.708  0.00  0.00    +0.000 Cl
ATOM      9  C   UNL     1       2.163   7.537  18.360  0.00  0.00    +0.000 A 
ATOM     10  C   UNL     1       2.419   6.170  18.247  0.00  0.00    +0.000 A 
ENDBRANCH   3   4
ENDBRANCH   2   3
BRANCH   2  11
ATOM     11  C   UNL     1       4.932   3.727  19.095  0.00  0.00    +0.000 C 
BRANCH  11  12
ATOM     12  N   UNL     1       5.744   4.689  18.396  0.00  0.00    +0.000 N 
ATOM     13  C   UNL     1       6.843   5.375  18.942  0.00  0.00    +0.000 C 
ATOM     14  O   UNL     1       7.190   5.439  20.105  0.00  0.00    +0.000 OA
ATOM     15  C   UNL     1       7.528   6.006  17.719  0.00  0.00    +0.000 C 
ATOM     16  C   UNL     1       6.563   7.037  17.184  0.00  0.00    +0.000 C 
ATOM     17  C   UNL     1       5.497   6.352  16.729  0.00  0.00    +0.000 C 
ATOM     18  C   UNL     1       5.763   4.875  16.956  0.00  0.00    +0.000 C 
ATOM     19  C   UNL     1       7.268   4.885  16.697  0.00  0.00    +0.000 C 
ENDBRANCH  11  12
ENDBRANCH   2  11
TORSDOF 4
ENDMDL
MODEL 3
REMARK VINA RESULT:      -6.7      2.179      4.381
REMARK  Name = 
REMARK  5 active torsions:
REMARK  status: ('A' for Active; 'I' for Inactive)
REMARK    1  A    between atoms: C_1  and  N_2
REMARK    2  A    between atoms: N_2  and  C_3
REMARK    3  A    between atoms: N_2  and  C_11
REMARK    4  A    between atoms: C_3  and  C_4
REMARK    5  A    between atoms: C_11  and  N_12
REMARK                            x       y       z     vdW  Elec       q    Type
REMARK                         _______ _______ _______ _____ _____    ______ ____
ROOT
ATOM      1  C   UNL     1       2.830   2.940  18.920  0.00  0.00    +0.000 C 
ATOM      2  N   UNL     1       3.485   4.252  19.054  0.00  0.00    +0.000 NA
ENDROOT
BRANCH   2   3
ATOM      3  C   UNL     1       2.709   5.010  20.061  0.00  0.00    +0.000 C 
BRANCH   3   4
ATOM      4  C   UNL     1       2.331   6.416  19.650  0.00  0.00    +0.000 A 
ATOM      5  C   UNL     1       2.517   6.856  18.332  0.00  0.00    +0.000 A 
ATOM      6  C   UNL     1       2.167   8.158  17.966  0.00  0.00    +0.000 A 
ATOM      7  C   UNL     1       1.627   9.023  18.916  0.00  0.00    +0.000 A 
ATOM      8 CL   UNL     1       1.215  10.633  18.472  0.00  0.00    +0.000 Cl
ATOM      9  C   UNL     1       1.424   8.596  20.226  0.00  0.00    +0.000 A 
ATOM     10  C   UNL     1       1.771   7.294  20.591  0.00  0.00    +0.000 A 
ENDBRANCH   3   4
ENDBRANCH   2   3
BRANCH   2  11
ATOM     11  C   UNL     1       4.885   4.102  19.483  0.00  0.00    +0.000 C 
BRANCH  11  12
ATOM     12  N   UNL     1       5.745   4.930  18.678  0.00  0.00    +0.000 N 
ATOM     13  C   UNL     1       6.978   5.466  19.091  0.00  0.00    +0.000 C 
ATOM     14  O   UNL     1       7.448   5.501  20.211  0.00  0.00    +0.000 OA
ATOM     15  C   UNL     1       7.613   5.975  17.787  0.00  0.00    +0.000 C 
ATOM     16  C   UNL     1       6.748   7.121  17.318  0.00  0.00    +0.000 C 
ATOM     17  C   UNL     1       5.557   6.583  16.993  0.00  0.00    +0.000 C 
ATOM     18  C   UNL     1       5.641   5.087  17.238  0.00  0.00    +0.000 C 
ATOM     19  C   UNL     1       7.099   4.884  16.830  0.00  0.00    +0.000 C 
ENDBRANCH  11  12
ENDBRANCH   2  11
TORSDOF 4
ENDMDL
MODEL 4
REMARK VINA RESULT:      -6.6      2.166      4.398
REMARK  Name = 
REMARK  5 active torsions:
REMARK  status: ('A' for Active; 'I' for Inactive)
REMARK    1  A    between atoms: C_1  and  N_2
REMARK    2  A    between atoms: N_2  and  C_3
REMARK    3  A    between atoms: N_2  and  C_11
REMARK    4  A    between atoms: C_3  and  C_4
REMARK    5  A    between atoms: C_11  and  N_12
REMARK                            x       y       z     vdW  Elec       q    Type
REMARK                         _______ _______ _______ _____ _____    ______ ____
ROOT
ATOM      1  C   UNL     1       1.742   4.313  18.135  0.00  0.00    +0.000 C 
ATOM      2  N   UNL     1       2.973   5.114  18.249  0.00  0.00    +0.000 NA
ENDROOT
BRANCH   2   3
ATOM      3  C   UNL     1       2.847   5.906  19.494  0.00  0.00    +0.000 C 
BRANCH   3   4
ATOM      4  C   UNL     1       2.264   7.290  19.314  0.00  0.00    +0.000 A 
ATOM      5  C   UNL     1       1.605   7.937  20.368  0.00  0.00    +0.000 A 
ATOM      6  C   UNL     1       1.068   9.214  20.188  0.00  0.00    +0.000 A 
ATOM      7  C   UNL     1       1.192   9.849  18.953  0.00  0.00    +0.000 A 
ATOM      8 CL   UNL     1       0.514  11.414  18.723  0.00  0.00    +0.000 Cl
ATOM      9  C   UNL     1       1.857   9.225  17.901  0.00  0.00    +0.000 A 
ATOM     10  C   UNL     1       2.395   7.950  18.082  0.00  0.00    +0.000 A 
ENDBRANCH   3   4
ENDBRANCH   2   3
BRANCH   2  11
ATOM     11  C   UNL     1       4.163   4.249  18.303  0.00  0.00    +0.000 C 
BRANCH  11  12
ATOM     12  N   UNL     1       5.340   4.999  17.949  0.00  0.00    +0.000 N 
ATOM     13  C   UNL     1       6.446   5.222  18.788  0.00  0.00    +0.000 C 
ATOM     14  O   UNL     1       6.543   5.008  19.980  0.00  0.00    +0.000 OA
ATOM     15  C   UNL     1       7.523   5.775  17.840  0.00  0.00    +0.000 C 
ATOM     16  C   UNL     1       7.020   7.122  17.375  0.00  0.00    +0.000 C 
ATOM     17  C   UNL     1       5.926   6.876  16.629  0.00  0.00    +0.000 C 
ATOM     18  C   UNL     1       5.715   5.373  16.596  0.00  0.00    +0.000 C 
ATOM     19  C   UNL     1       7.182   4.950  16.587  0.00  0.00    +0.000 C 
ENDBRANCH  11  12
ENDBRANCH   2  11
TORSDOF 4
ENDMDL
MODEL 5
REMARK VINA RESULT:      -6.6      3.763      5.312
REMARK  Name = 
REMARK  5 active torsions:
REMARK  status: ('A' for Active; 'I' for Inactive)
REMARK    1  A    between atoms: C_1  and  N_2
REMARK    2  A    between atoms: N_2  and  C_3
REMARK    3  A    between atoms: N_2  and  C_11
REMARK    4  A    between atoms: C_3  and  C_4
REMARK    5  A    between atoms: C_11  and  N_12
REMARK                            x       y       z     vdW  Elec       q    Type
REMARK                         _______ _______ _______ _____ _____    ______ ____
ROOT
ATOM      1  C   UNL     1       4.065   6.832  17.685  0.00  0.00    +0.000 C 
ATOM      2  N   UNL     1       4.389   5.495  18.211  0.00  0.00    +0.000 NA
ENDROOT
BRANCH   2   3
ATOM      3  C   UNL     1       5.793   5.220  17.830  0.00  0.00    +0.000 C 
BRANCH   3   4
ATOM      4  C   UNL     1       5.998   4.831  16.382  0.00  0.00    +0.000 A 
ATOM      5  C   UNL     1       5.081   4.000  15.724  0.00  0.00    +0.000 A 
ATOM      6  C   UNL     1       5.283   3.645  14.388  0.00  0.00    +0.000 A 
ATOM      7  C   UNL     1       6.401   4.122  13.706  0.00  0.00    +0.000 A 
ATOM      8 CL   UNL     1       6.661   3.670  12.067  0.00  0.00    +0.000 Cl
ATOM      9  C   UNL     1       7.313   4.960  14.343  0.00  0.00    +0.000 A 
ATOM     10  C   UNL     1       7.109   5.317  15.677  0.00  0.00    +0.000 A 
ENDBRANCH   3   4
ENDBRANCH   2   3
BRANCH   2  11
ATOM     11  C   UNL     1       4.231   5.451  19.674  0.00  0.00    +0.000 C 
BRANCH  11  12
ATOM     12  N   UNL     1       3.091   4.645  20.028  0.00  0.00    +0.000 N 
ATOM     13  C   UNL     1       1.833   5.140  20.412  0.00  0.00    +0.000 C 
ATOM     14  O   UNL     1       1.526   6.280  20.699  0.00  0.00    +0.000 OA
ATOM     15  C   UNL     1       0.919   3.904  20.359  0.00  0.00    +0.000 C 
ATOM     16  C   UNL     1       1.401   2.978  21.450  0.00  0.00    +0.000 C 
ATOM     17  C   UNL     1       2.632   2.575  21.082  0.00  0.00    +0.000 C 
ATOM     18  C   UNL     1       2.955   3.226  19.749  0.00  0.00    +0.000 C 
ATOM     19  C   UNL     1       1.551   3.194  19.149  0.00  0.00    +0.000 C 
ENDBRANCH  11  12
ENDBRANCH   2  11
TORSDOF 4
ENDMDL
MODEL 6
REMARK VINA RESULT:      -6.6      3.774      5.303
REMARK  Name = 
REMARK  5 active torsions:
REMARK  status: ('A' for Active; 'I' for Inactive)
REMARK    1  A    between atoms: C_1  and  N_2
REMARK    2  A    between atoms: N_2  and  C_3
REMARK    3  A    between atoms: N_2  and  C_11
REMARK    4  A    between atoms: C_3  and  C_4
REMARK    5  A    between atoms: C_11  and  N_12
REMARK                            x       y       z     vdW  Elec       q    Type
REMARK                         _______ _______ _______ _____ _____    ______ ____
ROOT
ATOM      1  C   UNL     1       4.062   6.734  17.517  0.00  0.00    +0.000 C 
ATOM      2  N   UNL     1       4.320   5.433  18.157  0.00  0.00    +0.000 NA
ENDROOT
BRANCH   2   3
ATOM      3  C   UNL     1       5.727   5.086  17.855  0.00  0.00    +0.000 C 
BRANCH   3   4
ATOM      4  C   UNL     1       6.010   4.771  16.402  0.00  0.00    +0.000 A 
ATOM      5  C   UNL     1       7.092   5.361  15.735  0.00  0.00    +0.000 A 
ATOM      6  C   UNL     1       7.339   5.065  14.392  0.00  0.00    +0.000 A 
ATOM      7  C   UNL     1       6.507   4.176  13.714  0.00  0.00    +0.000 A 
ATOM      8 CL   UNL     1       6.799   3.826  12.055  0.00  0.00    +0.000 Cl
ATOM      9  C   UNL     1       5.437   3.571  14.368  0.00  0.00    +0.000 A 
ATOM     10  C   UNL     1       5.191   3.865  15.711  0.00  0.00    +0.000 A 
ENDBRANCH   3   4
ENDBRANCH   2   3
BRANCH   2  11
ATOM     11  C   UNL     1       4.105   5.508  19.611  0.00  0.00    +0.000 C 
BRANCH  11  12
ATOM     12  N   UNL     1       2.993   4.678  19.994  0.00  0.00    +0.000 N 
ATOM     13  C   UNL     1       1.757   5.145  20.475  0.00  0.00    +0.000 C 
ATOM     14  O   UNL     1       1.462   6.269  20.832  0.00  0.00    +0.000 OA
ATOM     15  C   UNL     1       0.848   3.906  20.419  0.00  0.00    +0.000 C 
ATOM     16  C   UNL     1       1.399   2.935  21.436  0.00  0.00    +0.000 C 
ATOM     17  C   UNL     1       2.608   2.559  20.978  0.00  0.00    +0.000 C 
ATOM     18  C   UNL     1       2.848   3.273  19.659  0.00  0.00    +0.000 C 
ATOM     19  C   UNL     1       1.411   3.257  19.142  0.00  0.00    +0.000 C 
ENDBRANCH  11  12
ENDBRANCH   2  11
TORSDOF 4
ENDMDL
MODEL 7
REMARK VINA RESULT:      -6.6      2.022      4.262
REMARK  Name = 
REMARK  5 active torsions:
REMARK  status: ('A' for Active; 'I' for Inactive)
REMARK    1  A    between atoms: C_1  and  N_2
REMARK    2  A    between atoms: N_2  and  C_3
REMARK    3  A    between atoms: N_2  and  C_11
REMARK    4  A    between atoms: C_3  and  C_4
REMARK    5  A    between atoms: C_11  and  N_12
REMARK                            x       y       z     vdW  Elec       q    Type
REMARK                         _______ _______ _______ _____ _____    ______ ____
ROOT
ATOM      1  C   UNL     1       1.747   2.868  18.388  0.00  0.00    +0.000 C 
ATOM      2  N   UNL     1       2.831   3.856  18.262  0.00  0.00    +0.000 NA
ENDROOT
BRANCH   2   3
ATOM      3  C   UNL     1       2.842   4.635  19.522  0.00  0.00    +0.000 C 
BRANCH   3   4
ATOM      4  C   UNL     1       2.442   6.087  19.377  0.00  0.00    +0.000 A 
ATOM      5  C   UNL     1       1.831   6.774  20.435  0.00  0.00    +0.000 A 
ATOM      6  C   UNL     1       1.463   8.113  20.288  0.00  0.00    +0.000 A 
ATOM      7  C   UNL     1       1.708   8.770  19.083  0.00  0.00    +0.000 A 
ATOM      8 CL   UNL     1       1.237  10.414  18.893  0.00  0.00    +0.000 Cl
ATOM      9  C   UNL     1       2.327   8.104  18.028  0.00  0.00    +0.000 A 
ATOM     10  C   UNL     1       2.696   6.766  18.176  0.00  0.00    +0.000 A 
ENDBRANCH   3   4
ENDBRANCH   2   3
BRANCH   2  11
ATOM     11  C   UNL     1       4.128   3.192  18.053  0.00  0.00    +0.000 C 
BRANCH  11  12
ATOM     12  N   UNL     1       5.086   4.126  17.521  0.00  0.00    +0.000 N 
ATOM     13  C   UNL     1       6.193   4.641  18.218  0.00  0.00    +0.000 C 
ATOM     14  O   UNL     1       6.441   4.561  19.405  0.00  0.00    +0.000 OA
ATOM     15  C   UNL     1       7.041   5.309  17.123  0.00  0.00    +0.000 C 
ATOM     16  C   UNL     1       6.228   6.480  16.620  0.00  0.00    +0.000 C 
ATOM     17  C   UNL     1       5.146   5.953  16.016  0.00  0.00    +0.000 C 
ATOM     18  C   UNL     1       5.250   4.441  16.113  0.00  0.00    +0.000 C 
ATOM     19  C   UNL     1       6.766   4.321  15.975  0.00  0.00    +0.000 C 
ENDBRANCH  11  12
ENDBRANCH   2  11
TORSDOF 4
ENDMDL
MODEL 8
REMARK VINA RESULT:      -6.5      1.289      2.105
REMARK  Name = 
REMARK  5 active torsions:
REMARK  status: ('A' for Active; 'I' for Inactive)
REMARK    1  A    between atoms: C_1  and  N_2
REMARK    2  A    between atoms: N_2  and  C_3
REMARK    3  A    between atoms: N_2  and  C_11
REMARK    4  A    between atoms: C_3  and  C_4
REMARK    5  A    between atoms: C_11  and  N_12
REMARK                            x       y       z     vdW  Elec       q    Type
REMARK                         _______ _______ _______ _____ _____    ______ ____
ROOT
ATOM      1  C   UNL     1       5.557   6.361  17.839  0.00  0.00    +0.000 C 
ATOM      2  N   UNL     1       4.120   6.141  18.075  0.00  0.00    +0.000 NA
ENDROOT
BRANCH   2   3
ATOM      3  C   UNL     1       3.408   7.264  17.425  0.00  0.00    +0.000 C 
BRANCH   3   4
ATOM      4  C   UNL     1       2.467   8.031  18.329  0.00  0.00    +0.000 A 
ATOM      5  C   UNL     1       2.257   7.631  19.656  0.00  0.00    +0.000 A 
ATOM      6  C   UNL     1       1.383   8.345  20.479  0.00  0.00    +0.000 A 
ATOM      7  C   UNL     1       0.719   9.464  19.978  0.00  0.00    +0.000 A 
ATOM      8 CL   UNL     1      -0.372  10.334  20.984  0.00  0.00    +0.000 Cl
ATOM      9  C   UNL     1       0.929   9.882  18.666  0.00  0.00    +0.000 A 
ATOM     10  C   UNL     1       1.804   9.169  17.844  0.00  0.00    +0.000 A 
ENDBRANCH   3   4
ENDBRANCH   2   3
BRANCH   2  11
ATOM     11  C   UNL     1       3.684   4.853  17.510  0.00  0.00    +0.000 C 
BRANCH  11  12
ATOM     12  N   UNL     1       3.012   4.070  18.513  0.00  0.00    +0.000 N 
ATOM     13  C   UNL     1       3.644   3.359  19.548  0.00  0.00    +0.000 C 
ATOM     14  O   UNL     1       4.827   3.112  19.682  0.00  0.00    +0.000 OA
ATOM     15  C   UNL     1       2.492   2.985  20.496  0.00  0.00    +0.000 C 
ATOM     16  C   UNL     1       1.622   2.013  19.735  0.00  0.00    +0.000 C 
ATOM     17  C   UNL     1       1.084   2.710  18.716  0.00  0.00    +0.000 C 
ATOM     18  C   UNL     1       1.592   4.138  18.811  0.00  0.00    +0.000 C 
ATOM     19  C   UNL     1       1.632   4.251  20.334  0.00  0.00    +0.000 C 
ENDBRANCH  11  12
ENDBRANCH   2  11
TORSDOF 4
ENDMDL
MODEL 9
REMARK VINA RESULT:      -6.5      1.033      1.595
REMARK  Name = 
REMARK  5 active torsions:
REMARK  status: ('A' for Active; 'I' for Inactive)
REMARK    1  A    between atoms: C_1  and  N_2
REMARK    2  A    between atoms: N_2  and  C_3
REMARK    3  A    between atoms: N_2  and  C_11
REMARK    4  A    between atoms: C_3  and  C_4
REMARK    5  A    between atoms: C_11  and  N_12
REMARK                            x       y       z     vdW  Elec       q    Type
REMARK                         _______ _______ _______ _____ _____    ______ ____
ROOT
ATOM      1  C   UNL     1       5.679   6.172  18.259  0.00  0.00    +0.000 C 
ATOM      2  N   UNL     1       4.441   5.627  18.841  0.00  0.00    +0.000 NA
ENDROOT
BRANCH   2   3
ATOM      3  C   UNL     1       3.332   6.068  17.965  0.00  0.00    +0.000 C 
BRANCH   3   4
ATOM      4  C   UNL     1       2.572   7.279  18.460  0.00  0.00    +0.000 A 
ATOM      5  C   UNL     1       2.175   7.382  19.800  0.00  0.00    +0.000 A 
ATOM      6  C   UNL     1       1.470   8.504  20.244  0.00  0.00    +0.000 A 
ATOM      7  C   UNL     1       1.164   9.528  19.349  0.00  0.00    +0.000 A 
ATOM      8 CL   UNL     1       0.279  10.901  19.888  0.00  0.00    +0.000 Cl
ATOM      9  C   UNL     1       1.565   9.446  18.017  0.00  0.00    +0.000 A 
ATOM     10  C   UNL     1       2.271   8.326  17.575  0.00  0.00    +0.000 A 
ENDBRANCH   3   4
ENDBRANCH   2   3
BRANCH   2  11
ATOM     11  C   UNL     1       4.494   4.157  18.910  0.00  0.00    +0.000 C 
BRANCH  11  12
ATOM     12  N   UNL     1       3.265   3.640  19.453  0.00  0.00    +0.000 N 
ATOM     13  C   UNL     1       2.524   2.572  18.916  0.00  0.00    +0.000 C 
ATOM     14  O   UNL     1       2.656   2.029  17.837  0.00  0.00    +0.000 OA
ATOM     15  C   UNL     1       1.518   2.226  20.026  0.00  0.00    +0.000 C 
ATOM     16  C   UNL     1       0.594   3.415  20.141  0.00  0.00    +0.000 C 
ATOM     17  C   UNL     1       1.349   4.434  20.595  0.00  0.00    +0.000 C 
ATOM     18  C   UNL     1       2.762   3.914  20.788  0.00  0.00    +0.000 C 
ATOM     19  C   UNL     1       2.411   2.502  21.249  0.00  0.00    +0.000 C 
ENDBRANCH  11  12
ENDBRANCH   2  11
TORSDOF 4
ENDMDL
