MODEL 1
REMARK VINA RESULT:      -6.6      0.000      0.000
REMARK  Name = 
REMARK  10 active torsions:
REMARK  status: ('A' for Active; 'I' for Inactive)
REMARK    1  A    between atoms: C_1  and  C_2
REMARK    2  A    between atoms: C_2  and  S_4
REMARK    3  A    between atoms: S_4  and  C_5
REMARK    4  A    between atoms: C_5  and  C_6
REMARK    5  A    between atoms: C_5  and  C_28
REMARK    6  A    between atoms: N_8  and  CA_9
REMARK    7  A    between atoms: CA_21  and  C_22
REMARK    8  A    between atoms: C_22  and  OXT_24
REMARK    9  A    between atoms: C_28  and  C_29
REMARK   10  A    between atoms: C_28  and  C_30
REMARK                            x       y       z     vdW  Elec       q    Type
REMARK                         _______ _______ _______ _____ _____    ______ ____
ROOT
ATOM      1  CA  UNL     1      -1.519  12.693  20.156  0.00  0.00    +0.000 C 
ATOM      2  C   UNL     1      -2.871  12.339  19.556  0.00  0.00    +0.000 C 
ATOM      3  C   UNL     1      -2.923  11.533  18.287  0.00  0.00    +0.000 A 
ATOM      4  C   UNL     1      -4.026  11.782  17.431  0.00  0.00    +0.000 A 
ATOM      5  C   UNL     1      -4.243  11.048  16.269  0.00  0.00    +0.000 A 
ATOM      6  C   UNL     1      -3.354  10.048  15.924  0.00  0.00    +0.000 A 
ATOM      7  C   UNL     1      -2.270   9.784  16.760  0.00  0.00    +0.000 A 
ATOM      8  C   UNL     1      -2.040  10.501  17.967  0.00  0.00    +0.000 A 
ATOM      9  C   UNL     1      -0.869  10.012  18.794  0.00  0.00    +0.000 C 
ATOM     10  C   UNL     1       0.513  10.322  18.183  0.00  0.00    +0.000 C 
ATOM     11  C   UNL     1       1.590   9.413  18.777  0.00  0.00    +0.000 C 
ATOM     12  C   UNL     1       1.580   9.471  20.309  0.00  0.00    +0.000 C 
ATOM     13  CA  UNL     1       0.154   9.260  20.861  0.00  0.00    +0.000 C 
ATOM     14  N   UNL     1      -0.806  10.236  20.252  0.00  0.00    +0.000 N 
ATOM     15  C   UNL     1      -0.723  11.534  20.758  0.00  0.00    +0.000 C 
ATOM     16  O   UNL     1       0.059  11.792  21.681  0.00  0.00    +0.000 OA
ENDROOT
BRANCH   1  19
ATOM     17  C   UNL     1      -0.077  14.686  19.812  0.00  0.00    +0.000 C 
ATOM     18  O   UNL     1      -0.494  15.259  20.816  0.00  0.00    +0.000 OA
ATOM     19  N   UNL     1      -0.595  13.489  19.365  0.00  0.00    +0.000 N 
ATOM     20  H   UNL     1       0.045  12.962  18.776  0.00  0.00    +0.000 HD
BRANCH  17  21
ATOM     21  C   UNL     1       1.013  15.283  18.907  0.00  0.00    +0.000 C 
BRANCH  21  22
ATOM     22  C   UNL     1       2.388  14.573  19.079  0.00  0.00    +0.000 C 
ATOM     23  C   UNL     1       2.654  13.955  20.452  0.00  0.00    +0.000 C 
ATOM     24  C   UNL     1       2.578  13.462  18.031  0.00  0.00    +0.000 C 
ENDBRANCH  21  22
BRANCH  21  25
ATOM     25  S   UNL     1       1.164  17.098  19.229  0.00  0.00    +0.000 S 
BRANCH  25  27
ATOM     26  C   UNL     1       0.186  18.208  16.919  0.00  0.00    +0.000 C 
ATOM     27  C   UNL     1       1.428  17.693  17.593  0.00  0.00    +0.000 C 
ATOM     28  O   UNL     1       2.537  17.713  17.081  0.00  0.00    +0.000 OA
ENDBRANCH  25  27
ENDBRANCH  21  25
ENDBRANCH  17  21
ENDBRANCH   1  19
BRANCH  13  29
ATOM     29  C   UNL     1       0.133   9.054  22.388  0.00  0.00    +0.000 C 
ATOM     30  O   UNL     1      -0.848   8.665  23.007  0.00  0.00    +0.000 OA
BRANCH  29  31
ATOM     31  OXT UNL     1       1.246   9.503  23.021  0.00  0.00    +0.000 OA
ATOM     32  HXT UNL     1       1.827   8.763  23.270  0.00  0.00    +0.000 HD
ENDBRANCH  29  31
ENDBRANCH  13  29
TORSDOF 7
ENDMDL
MODEL 2
REMARK VINA RESULT:      -6.5      2.821      6.332
REMARK  Name = 
REMARK  10 active torsions:
REMARK  status: ('A' for Active; 'I' for Inactive)
REMARK    1  A    between atoms: C_1  and  C_2
REMARK    2  A    between atoms: C_2  and  S_4
REMARK    3  A    between atoms: S_4  and  C_5
REMARK    4  A    between atoms: C_5  and  C_6
REMARK    5  A    between atoms: C_5  and  C_28
REMARK    6  A    between atoms: N_8  and  CA_9
REMARK    7  A    between atoms: CA_21  and  C_22
REMARK    8  A    between atoms: C_22  and  OXT_24
REMARK    9  A    between atoms: C_28  and  C_29
REMARK   10  A    between atoms: C_28  and  C_30
REMARK                            x       y       z     vdW  Elec       q    Type
REMARK                         _______ _______ _______ _____ _____    ______ ____
ROOT
ATOM      1  CA  UNL     1      -1.604  13.321  20.251  0.00  0.00    +0.000 C 
ATOM      2  C   UNL     1      -1.527  12.795  21.675  0.00  0.00    +0.000 C 
ATOM      3  C   UNL     1      -0.734  11.549  21.956  0.00  0.00    +0.000 A 
ATOM      4  C   UNL     1      -1.192  10.742  23.028  0.00  0.00    +0.000 A 
ATOM      5  C   UNL     1      -0.504   9.608  23.451  0.00  0.00    +0.000 A 
ATOM      6  C   UNL     1       0.661   9.244  22.803  0.00  0.00    +0.000 A 
ATOM      7  C   UNL     1       1.131  10.031  21.754  0.00  0.00    +0.000 A 
ATOM      8  C   UNL     1       0.462  11.209  21.321  0.00  0.00    +0.000 A 
ATOM      9  C   UNL     1       1.170  11.990  20.232  0.00  0.00    +0.000 C 
ATOM     10  C   UNL     1       1.156  11.306  18.849  0.00  0.00    +0.000 C 
ATOM     11  C   UNL     1       2.259  11.867  17.951  0.00  0.00    +0.000 C 
ATOM     12  C   UNL     1       2.181  13.397  17.870  0.00  0.00    +0.000 C 
ATOM     13  CA  UNL     1       2.090  14.022  19.278  0.00  0.00    +0.000 C 
ATOM     14  N   UNL     1       0.945  13.438  20.050  0.00  0.00    +0.000 N 
ATOM     15  C   UNL     1      -0.314  13.910  19.677  0.00  0.00    +0.000 C 
ATOM     16  O   UNL     1      -0.418  14.788  18.813  0.00  0.00    +0.000 OA
ENDROOT
BRANCH   1  19
ATOM     17  C   UNL     1      -3.518  12.120  19.219  0.00  0.00    +0.000 C 
ATOM     18  O   UNL     1      -4.269  12.342  20.166  0.00  0.00    +0.000 OA
ATOM     19  N   UNL     1      -2.184  12.469  19.226  0.00  0.00    +0.000 N 
ATOM     20  H   UNL     1      -1.784  12.565  18.296  0.00  0.00    +0.000 HD
BRANCH  17  21
ATOM     21  C   UNL     1      -3.970  11.360  17.961  0.00  0.00    +0.000 C 
BRANCH  21  22
ATOM     22  C   UNL     1      -2.806  11.131  16.952  0.00  0.00    +0.000 C 
ATOM     23  C   UNL     1      -1.940   9.895  17.200  0.00  0.00    +0.000 C 
ATOM     24  C   UNL     1      -3.328  11.042  15.507  0.00  0.00    +0.000 C 
ENDBRANCH  21  22
BRANCH  21  25
ATOM     25  S   UNL     1      -5.370  12.262  17.158  0.00  0.00    +0.000 S 
BRANCH  25  27
ATOM     26  C   UNL     1      -6.613  10.282  18.592  0.00  0.00    +0.000 C 
ATOM     27  C   UNL     1      -6.716  11.716  18.154  0.00  0.00    +0.000 C 
ATOM     28  O   UNL     1      -7.624  12.465  18.481  0.00  0.00    +0.000 OA
ENDBRANCH  25  27
ENDBRANCH  21  25
ENDBRANCH  17  21
ENDBRANCH   1  19
BRANCH  13  29
ATOM     29  C   UNL     1       2.269  15.552  19.261  0.00  0.00    +0.000 C 
ATOM     30  O   UNL     1       2.338  16.238  20.271  0.00  0.00    +0.000 OA
BRANCH  29  31
ATOM     31  OXT UNL     1       2.173  16.105  18.026  0.00  0.00    +0.000 OA
ATOM     32  HXT UNL     1       2.695  16.925  17.971  0.00  0.00    +0.000 HD
ENDBRANCH  29  31
ENDBRANCH  13  29
TORSDOF 7
ENDMDL
MODEL 3
REMARK VINA RESULT:      -6.3      3.272      6.227
REMARK  Name = 
REMARK  10 active torsions:
REMARK  status: ('A' for Active; 'I' for Inactive)
REMARK    1  A    between atoms: C_1  and  C_2
REMARK    2  A    between atoms: C_2  and  S_4
REMARK    3  A    between atoms: S_4  and  C_5
REMARK    4  A    between atoms: C_5  and  C_6
REMARK    5  A    between atoms: C_5  and  C_28
REMARK    6  A    between atoms: N_8  and  CA_9
REMARK    7  A    between atoms: CA_21  and  C_22
REMARK    8  A    between atoms: C_22  and  OXT_24
REMARK    9  A    between atoms: C_28  and  C_29
REMARK   10  A    between atoms: C_28  and  C_30
REMARK                            x       y       z     vdW  Elec       q    Type
REMARK                         _______ _______ _______ _____ _____    ______ ____
ROOT
ATOM      1  CA  UNL     1      -1.278  12.373  18.152  0.00  0.00    +0.000 C 
ATOM      2  C   UNL     1      -0.536  13.700  18.214  0.00  0.00    +0.000 C 
ATOM      3  C   UNL     1      -0.122  14.248  19.551  0.00  0.00    +0.000 A 
ATOM      4  C   UNL     1      -0.074  15.661  19.662  0.00  0.00    +0.000 A 
ATOM      5  C   UNL     1       0.374  16.301  20.814  0.00  0.00    +0.000 A 
ATOM      6  C   UNL     1       0.779  15.541  21.895  0.00  0.00    +0.000 A 
ATOM      7  C   UNL     1       0.747  14.150  21.800  0.00  0.00    +0.000 A 
ATOM      8  C   UNL     1       0.320  13.473  20.625  0.00  0.00    +0.000 A 
ATOM      9  C   UNL     1       0.444  11.963  20.669  0.00  0.00    +0.000 C 
ATOM     10  C   UNL     1      -0.567  11.270  21.605  0.00  0.00    +0.000 C 
ATOM     11  C   UNL     1      -0.093   9.865  21.978  0.00  0.00    +0.000 C 
ATOM     12  C   UNL     1       0.234   9.042  20.726  0.00  0.00    +0.000 C 
ATOM     13  CA  UNL     1       1.163   9.825  19.776  0.00  0.00    +0.000 C 
ATOM     14  N   UNL     1       0.578  11.163  19.436  0.00  0.00    +0.000 N 
ATOM     15  C   UNL     1      -0.464  11.128  18.507  0.00  0.00    +0.000 C 
ATOM     16  O   UNL     1      -0.799  10.056  17.989  0.00  0.00    +0.000 OA
ENDROOT
BRANCH   1  19
ATOM     17  C   UNL     1      -3.692  11.790  18.201  0.00  0.00    +0.000 C 
ATOM     18  O   UNL     1      -3.752  11.609  16.987  0.00  0.00    +0.000 OA
ATOM     19  N   UNL     1      -2.558  12.262  18.829  0.00  0.00    +0.000 N 
ATOM     20  H   UNL     1      -2.514  12.027  19.818  0.00  0.00    +0.000 HD
BRANCH  17  21
ATOM     21  C   UNL     1      -4.896  11.584  19.133  0.00  0.00    +0.000 C 
BRANCH  21  22
ATOM     22  C   UNL     1      -6.127  10.979  18.395  0.00  0.00    +0.000 C 
ATOM     23  C   UNL     1      -6.930   9.939  19.177  0.00  0.00    +0.000 C 
ATOM     24  C   UNL     1      -7.109  12.078  17.952  0.00  0.00    +0.000 C 
ENDBRANCH  21  22
BRANCH  21  25
ATOM     25  S   UNL     1      -5.337  13.187  19.943  0.00  0.00    +0.000 S 
BRANCH  25  27
ATOM     26  C   UNL     1      -3.537  13.551  21.981  0.00  0.00    +0.000 C 
ATOM     27  C   UNL     1      -4.818  12.864  21.595  0.00  0.00    +0.000 C 
ATOM     28  O   UNL     1      -5.475  12.172  22.357  0.00  0.00    +0.000 OA
ENDBRANCH  25  27
ENDBRANCH  21  25
ENDBRANCH  17  21
ENDBRANCH   1  19
BRANCH  13  29
ATOM     29  C   UNL     1       1.724   8.951  18.638  0.00  0.00    +0.000 C 
ATOM     30  O   UNL     1       2.045   7.779  18.777  0.00  0.00    +0.000 OA
BRANCH  29  31
ATOM     31  OXT UNL     1       1.995   9.636  17.498  0.00  0.00    +0.000 OA
ATOM     32  HXT UNL     1       2.687   9.189  16.980  0.00  0.00    +0.000 HD
ENDBRANCH  29  31
ENDBRANCH  13  29
TORSDOF 7
ENDMDL
MODEL 4
REMARK VINA RESULT:      -6.3      4.268      7.304
REMARK  Name = 
REMARK  10 active torsions:
REMARK  status: ('A' for Active; 'I' for Inactive)
REMARK    1  A    between atoms: C_1  and  C_2
REMARK    2  A    between atoms: C_2  and  S_4
REMARK    3  A    between atoms: S_4  and  C_5
REMARK    4  A    between atoms: C_5  and  C_6
REMARK    5  A    between atoms: C_5  and  C_28
REMARK    6  A    between atoms: N_8  and  CA_9
REMARK    7  A    between atoms: CA_21  and  C_22
REMARK    8  A    between atoms: C_22  and  OXT_24
REMARK    9  A    between atoms: C_28  and  C_29
REMARK   10  A    between atoms: C_28  and  C_30
REMARK                            x       y       z     vdW  Elec       q    Type
REMARK                         _______ _______ _______ _____ _____    ______ ____
ROOT
ATOM      1  CA  UNL     1      -3.148  13.439  20.341  0.00  0.00    +0.000 C 
ATOM      2  C   UNL     1      -2.915  14.838  20.889  0.00  0.00    +0.000 C 
ATOM      3  C   UNL     1      -2.617  15.014  22.353  0.00  0.00    +0.000 A 
ATOM      4  C   UNL     1      -3.057  16.226  22.941  0.00  0.00    +0.000 A 
ATOM      5  C   UNL     1      -2.774  16.555  24.263  0.00  0.00    +0.000 A 
ATOM      6  C   UNL     1      -2.046  15.672  25.039  0.00  0.00    +0.000 A 
ATOM      7  C   UNL     1      -1.597  14.481  24.473  0.00  0.00    +0.000 A 
ATOM      8  C   UNL     1      -1.850  14.133  23.117  0.00  0.00    +0.000 A 
ATOM      9  C   UNL     1      -1.202  12.845  22.650  0.00  0.00    +0.000 C 
ATOM     10  C   UNL     1      -1.832  11.567  23.241  0.00  0.00    +0.000 C 
ATOM     11  C   UNL     1      -0.869  10.384  23.135  0.00  0.00    +0.000 C 
ATOM     12  C   UNL     1      -0.372  10.203  21.695  0.00  0.00    +0.000 C 
ATOM     13  CA  UNL     1       0.148  11.536  21.118  0.00  0.00    +0.000 C 
ATOM     14  N   UNL     1      -0.893  12.609  21.226  0.00  0.00    +0.000 N 
ATOM     15  C   UNL     1      -1.924  12.521  20.290  0.00  0.00    +0.000 C 
ATOM     16  O   UNL     1      -1.902  11.642  19.421  0.00  0.00    +0.000 OA
ENDROOT
BRANCH   1  19
ATOM     17  C   UNL     1      -5.543  12.786  20.407  0.00  0.00    +0.000 C 
ATOM     18  O   UNL     1      -5.891  13.688  19.648  0.00  0.00    +0.000 OA
ATOM     19  N   UNL     1      -4.252  12.659  20.874  0.00  0.00    +0.000 N 
ATOM     20  H   UNL     1      -4.019  11.716  21.176  0.00  0.00    +0.000 HD
BRANCH  17  21
ATOM     21  C   UNL     1      -6.529  11.753  20.976  0.00  0.00    +0.000 C 
BRANCH  21  22
ATOM     22  C   UNL     1      -7.148  10.847  19.872  0.00  0.00    +0.000 C 
ATOM     23  C   UNL     1      -6.260  10.570  18.658  0.00  0.00    +0.000 C 
ATOM     24  C   UNL     1      -7.580   9.484  20.443  0.00  0.00    +0.000 C 
ENDBRANCH  21  22
BRANCH  21  25
ATOM     25  S   UNL     1      -7.852  12.617  21.937  0.00  0.00    +0.000 S 
BRANCH  25  27
ATOM     26  C   UNL     1      -7.753  13.784  24.418  0.00  0.00    +0.000 C 
ATOM     27  C   UNL     1      -7.015  12.887  23.463  0.00  0.00    +0.000 C 
ATOM     28  O   UNL     1      -5.948  12.351  23.720  0.00  0.00    +0.000 OA
ENDBRANCH  25  27
ENDBRANCH  21  25
ENDBRANCH  17  21
ENDBRANCH   1  19
BRANCH  13  29
ATOM     29  C   UNL     1       0.889  11.355  19.780  0.00  0.00    +0.000 C 
ATOM     30  O   UNL     1       1.530  12.242  19.232  0.00  0.00    +0.000 OA
BRANCH  29  31
ATOM     31  OXT UNL     1       0.635  10.173  19.163  0.00  0.00    +0.000 OA
ATOM     32  HXT UNL     1       1.034   9.432  19.653  0.00  0.00    +0.000 HD
ENDBRANCH  29  31
ENDBRANCH  13  29
TORSDOF 7
ENDMDL
MODEL 5
REMARK VINA RESULT:      -6.3      1.087      1.129
REMARK  Name = 
REMARK  10 active torsions:
REMARK  status: ('A' for Active; 'I' for Inactive)
REMARK    1  A    between atoms: C_1  and  C_2
REMARK    2  A    between atoms: C_2  and  S_4
REMARK    3  A    between atoms: S_4  and  C_5
REMARK    4  A    between atoms: C_5  and  C_6
REMARK    5  A    between atoms: C_5  and  C_28
REMARK    6  A    between atoms: N_8  and  CA_9
REMARK    7  A    between atoms: CA_21  and  C_22
REMARK    8  A    between atoms: C_22  and  OXT_24
REMARK    9  A    between atoms: C_28  and  C_29
REMARK   10  A    between atoms: C_28  and  C_30
REMARK                            x       y       z     vdW  Elec       q    Type
REMARK                         _______ _______ _______ _____ _____    ______ ____
ROOT
ATOM      1  CA  UNL     1      -2.059  12.745  20.154  0.00  0.00    +0.000 C 
ATOM      2  C   UNL     1      -3.306  12.248  19.439  0.00  0.00    +0.000 C 
ATOM      3  C   UNL     1      -3.162  11.494  18.147  0.00  0.00    +0.000 A 
ATOM      4  C   UNL     1      -4.222  11.636  17.216  0.00  0.00    +0.000 A 
ATOM      5  C   UNL     1      -4.258  10.928  16.018  0.00  0.00    +0.000 A 
ATOM      6  C   UNL     1      -3.225  10.062  15.713  0.00  0.00    +0.000 A 
ATOM      7  C   UNL     1      -2.180   9.903  16.622  0.00  0.00    +0.000 A 
ATOM      8  C   UNL     1      -2.133  10.593  17.864  0.00  0.00    +0.000 A 
ATOM      9  C   UNL     1      -0.972  10.222  18.765  0.00  0.00    +0.000 C 
ATOM     10  C   UNL     1       0.400  10.728  18.273  0.00  0.00    +0.000 C 
ATOM     11  C   UNL     1       1.538   9.938  18.921  0.00  0.00    +0.000 C 
ATOM     12  C   UNL     1       1.407   9.933  20.449  0.00  0.00    +0.000 C 
ATOM     13  CA  UNL     1      -0.015   9.523  20.882  0.00  0.00    +0.000 C 
ATOM     14  N   UNL     1      -1.046  10.394  20.230  0.00  0.00    +0.000 N 
ATOM     15  C   UNL     1      -1.167  11.671  20.780  0.00  0.00    +0.000 C 
ATOM     16  O   UNL     1      -0.495  11.988  21.768  0.00  0.00    +0.000 OA
ENDROOT
BRANCH   1  19
ATOM     17  C   UNL     1      -0.788  14.875  20.023  0.00  0.00    +0.000 C 
ATOM     18  O   UNL     1      -1.279  15.322  21.057  0.00  0.00    +0.000 OA
ATOM     19  N   UNL     1      -1.189  13.681  19.462  0.00  0.00    +0.000 N 
ATOM     20  H   UNL     1      -0.490  13.263  18.852  0.00  0.00    +0.000 HD
BRANCH  17  21
ATOM     21  C   UNL     1       0.267  15.638  19.206  0.00  0.00    +0.000 C 
BRANCH  21  22
ATOM     22  C   UNL     1       1.711  15.111  19.454  0.00  0.00    +0.000 C 
ATOM     23  C   UNL     1       1.953  14.438  20.805  0.00  0.00    +0.000 C 
ATOM     24  C   UNL     1       2.138  14.114  18.362  0.00  0.00    +0.000 C 
ENDBRANCH  21  22
BRANCH  21  25
ATOM     25  S   UNL     1       0.153  17.446  19.576  0.00  0.00    +0.000 S 
BRANCH  25  27
ATOM     26  C   UNL     1      -0.157  18.113  16.933  0.00  0.00    +0.000 C 
ATOM     27  C   UNL     1      -0.874  17.981  18.249  0.00  0.00    +0.000 C 
ATOM     28  O   UNL     1      -2.069  18.185  18.396  0.00  0.00    +0.000 OA
ENDBRANCH  25  27
ENDBRANCH  21  25
ENDBRANCH  17  21
ENDBRANCH   1  19
BRANCH  13  29
ATOM     29  C   UNL     1      -0.122   9.254  22.395  0.00  0.00    +0.000 C 
ATOM     30  O   UNL     1      -1.040   8.633  22.912  0.00  0.00    +0.000 OA
BRANCH  29  31
ATOM     31  OXT UNL     1       0.803   9.912  23.139  0.00  0.00    +0.000 OA
ATOM     32  HXT UNL     1       0.589  10.860  23.201  0.00  0.00    +0.000 HD
ENDBRANCH  29  31
ENDBRANCH  13  29
TORSDOF 7
ENDMDL
MODEL 6
REMARK VINA RESULT:      -6.2      1.449      2.512
REMARK  Name = 
REMARK  10 active torsions:
REMARK  status: ('A' for Active; 'I' for Inactive)
REMARK    1  A    between atoms: C_1  and  C_2
REMARK    2  A    between atoms: C_2  and  S_4
REMARK    3  A    between atoms: S_4  and  C_5
REMARK    4  A    between atoms: C_5  and  C_6
REMARK    5  A    between atoms: C_5  and  C_28
REMARK    6  A    between atoms: N_8  and  CA_9
REMARK    7  A    between atoms: CA_21  and  C_22
REMARK    8  A    between atoms: C_22  and  OXT_24
REMARK    9  A    between atoms: C_28  and  C_29
REMARK   10  A    between atoms: C_28  and  C_30
REMARK                            x       y       z     vdW  Elec       q    Type
REMARK                         _______ _______ _______ _____ _____    ______ ____
ROOT
ATOM      1  CA  UNL     1      -2.529  12.847  20.557  0.00  0.00    +0.000 C 
ATOM      2  C   UNL     1      -3.662  12.229  19.752  0.00  0.00    +0.000 C 
ATOM      3  C   UNL     1      -3.360  11.602  18.419  0.00  0.00    +0.000 A 
ATOM      4  C   UNL     1      -4.393  11.658  17.451  0.00  0.00    +0.000 A 
ATOM      5  C   UNL     1      -4.280  11.042  16.207  0.00  0.00    +0.000 A 
ATOM      6  C   UNL     1      -3.119  10.359  15.895  0.00  0.00    +0.000 A 
ATOM      7  C   UNL     1      -2.097  10.286  16.839  0.00  0.00    +0.000 A 
ATOM      8  C   UNL     1      -2.199  10.883  18.127  0.00  0.00    +0.000 A 
ATOM      9  C   UNL     1      -1.031  10.618  19.054  0.00  0.00    +0.000 C 
ATOM     10  C   UNL     1       0.269  11.352  18.664  0.00  0.00    +0.000 C 
ATOM     11  C   UNL     1       1.486  10.688  19.310  0.00  0.00    +0.000 C 
ATOM     12  C   UNL     1       1.301  10.552  20.827  0.00  0.00    +0.000 C 
ATOM     13  CA  UNL     1      -0.061   9.909  21.162  0.00  0.00    +0.000 C 
ATOM     14  N   UNL     1      -1.184  10.669  20.522  0.00  0.00    +0.000 N 
ATOM     15  C   UNL     1      -1.513  11.870  21.151  0.00  0.00    +0.000 C 
ATOM     16  O   UNL     1      -0.932  12.207  22.190  0.00  0.00    +0.000 OA
ENDROOT
BRANCH   1  19
ATOM     17  C   UNL     1      -1.693  15.186  20.572  0.00  0.00    +0.000 C 
ATOM     18  O   UNL     1      -2.383  15.509  21.536  0.00  0.00    +0.000 OA
ATOM     19  N   UNL     1      -1.782  13.948  19.972  0.00  0.00    +0.000 N 
ATOM     20  H   UNL     1      -0.946  13.686  19.455  0.00  0.00    +0.000 HD
BRANCH  17  21
ATOM     21  C   UNL     1      -0.717  16.156  19.887  0.00  0.00    +0.000 C 
BRANCH  21  22
ATOM     22  C   UNL     1      -1.440  17.178  18.961  0.00  0.00    +0.000 C 
ATOM     23  C   UNL     1      -1.870  18.489  19.621  0.00  0.00    +0.000 C 
ATOM     24  C   UNL     1      -0.573  17.540  17.743  0.00  0.00    +0.000 C 
ENDBRANCH  21  22
BRANCH  21  25
ATOM     25  S   UNL     1       0.553  15.198  18.944  0.00  0.00    +0.000 S 
BRANCH  25  27
ATOM     26  C   UNL     1       2.193  14.101  20.851  0.00  0.00    +0.000 C 
ATOM     27  C   UNL     1       1.931  15.335  20.032  0.00  0.00    +0.000 C 
ATOM     28  O   UNL     1       2.625  16.340  20.074  0.00  0.00    +0.000 OA
ENDBRANCH  25  27
ENDBRANCH  21  25
ENDBRANCH  17  21
ENDBRANCH   1  19
BRANCH  13  29
ATOM     29  C   UNL     1      -0.184   9.517  22.647  0.00  0.00    +0.000 C 
ATOM     30  O   UNL     1       0.608   9.869  23.510  0.00  0.00    +0.000 OA
BRANCH  29  31
ATOM     31  OXT UNL     1      -1.154   8.602  22.898  0.00  0.00    +0.000 OA
ATOM     32  HXT UNL     1      -2.009   9.038  23.060  0.00  0.00    +0.000 HD
ENDBRANCH  29  31
ENDBRANCH  13  29
TORSDOF 7
ENDMDL
MODEL 7
REMARK VINA RESULT:      -6.1      3.193      6.312
REMARK  Name = 
REMARK  10 active torsions:
REMARK  status: ('A' for Active; 'I' for Inactive)
REMARK    1  A    between atoms: C_1  and  C_2
REMARK    2  A    between atoms: C_2  and  S_4
REMARK    3  A    between atoms: S_4  and  C_5
REMARK    4  A    between atoms: C_5  and  C_6
REMARK    5  A    between atoms: C_5  and  C_28
REMARK    6  A    between atoms: N_8  and  CA_9
REMARK    7  A    between atoms: CA_21  and  C_22
REMARK    8  A    between atoms: C_22  and  OXT_24
REMARK    9  A    between atoms: C_28  and  C_29
REMARK   10  A    between atoms: C_28  and  C_30
REMARK                            x       y       z     vdW  Elec       q    Type
REMARK                         _______ _______ _______ _____ _____    ______ ____
ROOT
ATOM      1  CA  UNL     1      -1.281  12.179  18.595  0.00  0.00    +0.000 C 
ATOM      2  C   UNL     1      -0.478  13.469  18.535  0.00  0.00    +0.000 C 
ATOM      3  C   UNL     1      -0.198  14.220  19.807  0.00  0.00    +0.000 A 
ATOM      4  C   UNL     1      -0.084  15.628  19.691  0.00  0.00    +0.000 A 
ATOM      5  C   UNL     1       0.257  16.437  20.772  0.00  0.00    +0.000 A 
ATOM      6  C   UNL     1       0.485  15.856  22.005  0.00  0.00    +0.000 A 
ATOM      7  C   UNL     1       0.386  14.472  22.134  0.00  0.00    +0.000 A 
ATOM      8  C   UNL     1       0.066  13.621  21.040  0.00  0.00    +0.000 A 
ATOM      9  C   UNL     1       0.098  12.138  21.345  0.00  0.00    +0.000 C 
ATOM     10  C   UNL     1      -1.057  11.649  22.244  0.00  0.00    +0.000 C 
ATOM     11  C   UNL     1      -0.712  10.311  22.898  0.00  0.00    +0.000 C 
ATOM     12  C   UNL     1      -0.283   9.277  21.850  0.00  0.00    +0.000 C 
ATOM     13  CA  UNL     1       0.798   9.855  20.912  0.00  0.00    +0.000 C 
ATOM     14  N   UNL     1       0.334  11.136  20.286  0.00  0.00    +0.000 N 
ATOM     15  C   UNL     1      -0.588  10.982  19.250  0.00  0.00    +0.000 C 
ATOM     16  O   UNL     1      -0.918   9.851  18.875  0.00  0.00    +0.000 OA
ENDROOT
BRANCH   1  19
ATOM     17  C   UNL     1      -3.727  11.802  18.379  0.00  0.00    +0.000 C 
ATOM     18  O   UNL     1      -3.658  11.528  17.183  0.00  0.00    +0.000 OA
ATOM     19  N   UNL     1      -2.638  12.229  19.111  0.00  0.00    +0.000 N 
ATOM     20  H   UNL     1      -2.734  12.073  20.112  0.00  0.00    +0.000 HD
BRANCH  17  21
ATOM     21  C   UNL     1      -5.048  11.774  19.164  0.00  0.00    +0.000 C 
BRANCH  21  22
ATOM     22  C   UNL     1      -6.218  11.157  18.342  0.00  0.00    +0.000 C 
ATOM     23  C   UNL     1      -7.042  10.084  19.054  0.00  0.00    +0.000 C 
ATOM     24  C   UNL     1      -7.197  12.243  17.861  0.00  0.00    +0.000 C 
ENDBRANCH  21  22
BRANCH  21  25
ATOM     25  S   UNL     1      -5.472  13.481  19.733  0.00  0.00    +0.000 S 
BRANCH  25  27
ATOM     26  C   UNL     1      -7.072  14.148  21.859  0.00  0.00    +0.000 C 
ATOM     27  C   UNL     1      -6.081  13.139  21.349  0.00  0.00    +0.000 C 
ATOM     28  O   UNL     1      -5.745  12.142  21.970  0.00  0.00    +0.000 OA
ENDBRANCH  25  27
ENDBRANCH  21  25
ENDBRANCH  17  21
ENDBRANCH   1  19
BRANCH  13  29
ATOM     29  C   UNL     1       1.441   8.782  20.014  0.00  0.00    +0.000 C 
ATOM     30  O   UNL     1       1.687   7.643  20.385  0.00  0.00    +0.000 OA
BRANCH  29  31
ATOM     31  OXT UNL     1       1.874   9.252  18.816  0.00  0.00    +0.000 OA
ATOM     32  HXT UNL     1       2.046   8.521  18.197  0.00  0.00    +0.000 HD
ENDBRANCH  29  31
ENDBRANCH  13  29
TORSDOF 7
ENDMDL
MODEL 8
REMARK VINA RESULT:      -6.1      4.394      6.657
REMARK  Name = 
REMARK  10 active torsions:
REMARK  status: ('A' for Active; 'I' for Inactive)
REMARK    1  A    between atoms: C_1  and  C_2
REMARK    2  A    between atoms: C_2  and  S_4
REMARK    3  A    between atoms: S_4  and  C_5
REMARK    4  A    between atoms: C_5  and  C_6
REMARK    5  A    between atoms: C_5  and  C_28
REMARK    6  A    between atoms: N_8  and  CA_9
REMARK    7  A    between atoms: CA_21  and  C_22
REMARK    8  A    between atoms: C_22  and  OXT_24
REMARK    9  A    between atoms: C_28  and  C_29
REMARK   10  A    between atoms: C_28  and  C_30
REMARK                            x       y       z     vdW  Elec       q    Type
REMARK                         _______ _______ _______ _____ _____    ______ ____
ROOT
ATOM      1  CA  UNL     1      -3.546  14.037  22.402  0.00  0.00    +0.000 C 
ATOM      2  C   UNL     1      -3.577  15.554  22.303  0.00  0.00    +0.000 C 
ATOM      3  C   UNL     1      -4.178  16.199  21.085  0.00  0.00    +0.000 A 
ATOM      4  C   UNL     1      -3.629  17.449  20.702  0.00  0.00    +0.000 A 
ATOM      5  C   UNL     1      -4.146  18.195  19.647  0.00  0.00    +0.000 A 
ATOM      6  C   UNL     1      -5.227  17.704  18.938  0.00  0.00    +0.000 A 
ATOM      7  C   UNL     1      -5.785  16.482  19.308  0.00  0.00    +0.000 A 
ATOM      8  C   UNL     1      -5.292  15.713  20.399  0.00  0.00    +0.000 A 
ATOM      9  C   UNL     1      -6.084  14.461  20.715  0.00  0.00    +0.000 C 
ATOM     10  C   UNL     1      -5.933  13.334  19.672  0.00  0.00    +0.000 C 
ATOM     11  C   UNL     1      -7.087  12.335  19.775  0.00  0.00    +0.000 C 
ATOM     12  C   UNL     1      -7.240  11.815  21.210  0.00  0.00    +0.000 C 
ATOM     13  CA  UNL     1      -7.279  12.980  22.220  0.00  0.00    +0.000 C 
ATOM     14  N   UNL     1      -6.078  13.864  22.065  0.00  0.00    +0.000 N 
ATOM     15  C   UNL     1      -4.896  13.345  22.597  0.00  0.00    +0.000 C 
ATOM     16  O   UNL     1      -4.906  12.262  23.193  0.00  0.00    +0.000 OA
ENDROOT
BRANCH   1  19
ATOM     17  C   UNL     1      -1.729  12.500  21.690  0.00  0.00    +0.000 C 
ATOM     18  O   UNL     1      -1.180  12.515  22.789  0.00  0.00    +0.000 OA
ATOM     19  N   UNL     1      -2.819  13.290  21.389  0.00  0.00    +0.000 N 
ATOM     20  H   UNL     1      -3.379  12.935  20.618  0.00  0.00    +0.000 HD
BRANCH  17  21
ATOM     21  C   UNL     1      -1.210  11.659  20.512  0.00  0.00    +0.000 C 
BRANCH  21  22
ATOM     22  C   UNL     1       0.305  11.324  20.639  0.00  0.00    +0.000 C 
ATOM     23  C   UNL     1       0.705   9.893  20.278  0.00  0.00    +0.000 C 
ATOM     24  C   UNL     1       1.161  12.270  19.778  0.00  0.00    +0.000 C 
ENDBRANCH  21  22
BRANCH  21  25
ATOM     25  S   UNL     1      -1.560  12.533  18.921  0.00  0.00    +0.000 S 
BRANCH  25  27
ATOM     26  C   UNL     1      -3.643  11.500  17.464  0.00  0.00    +0.000 C 
ATOM     27  C   UNL     1      -2.259  11.218  17.980  0.00  0.00    +0.000 C 
ATOM     28  O   UNL     1      -1.641  10.190  17.746  0.00  0.00    +0.000 OA
ENDBRANCH  25  27
ENDBRANCH  21  25
ENDBRANCH  17  21
ENDBRANCH   1  19
BRANCH  13  29
ATOM     29  C   UNL     1      -7.688  12.527  23.635  0.00  0.00    +0.000 C 
ATOM     30  O   UNL     1      -7.901  13.298  24.560  0.00  0.00    +0.000 OA
BRANCH  29  31
ATOM     31  OXT UNL     1      -7.629  11.184  23.822  0.00  0.00    +0.000 OA
ATOM     32  HXT UNL     1      -7.460  10.970  24.757  0.00  0.00    +0.000 HD
ENDBRANCH  29  31
ENDBRANCH  13  29
TORSDOF 7
ENDMDL
MODEL 9
REMARK VINA RESULT:      -6.1      3.721      7.032
REMARK  Name = 
REMARK  10 active torsions:
REMARK  status: ('A' for Active; 'I' for Inactive)
REMARK    1  A    between atoms: C_1  and  C_2
REMARK    2  A    between atoms: C_2  and  S_4
REMARK    3  A    between atoms: S_4  and  C_5
REMARK    4  A    between atoms: C_5  and  C_6
REMARK    5  A    between atoms: C_5  and  C_28
REMARK    6  A    between atoms: N_8  and  CA_9
REMARK    7  A    between atoms: CA_21  and  C_22
REMARK    8  A    between atoms: C_22  and  OXT_24
REMARK    9  A    between atoms: C_28  and  C_29
REMARK   10  A    between atoms: C_28  and  C_30
REMARK                            x       y       z     vdW  Elec       q    Type
REMARK                         _______ _______ _______ _____ _____    ______ ____
ROOT
ATOM      1  CA  UNL     1      -2.344  12.818  22.665  0.00  0.00    +0.000 C 
ATOM      2  C   UNL     1      -1.564  11.600  23.135  0.00  0.00    +0.000 C 
ATOM      3  C   UNL     1      -0.733  10.832  22.145  0.00  0.00    +0.000 A 
ATOM      4  C   UNL     1      -0.592   9.443  22.388  0.00  0.00    +0.000 A 
ATOM      5  C   UNL     1       0.218   8.630  21.601  0.00  0.00    +0.000 A 
ATOM      6  C   UNL     1       0.905   9.186  20.538  0.00  0.00    +0.000 A 
ATOM      7  C   UNL     1       0.785  10.552  20.291  0.00  0.00    +0.000 A 
ATOM      8  C   UNL     1      -0.014  11.410  21.097  0.00  0.00    +0.000 A 
ATOM      9  C   UNL     1       0.054  12.880  20.737  0.00  0.00    +0.000 C 
ATOM     10  C   UNL     1      -0.647  13.242  19.411  0.00  0.00    +0.000 C 
ATOM     11  C   UNL     1      -0.142  14.582  18.874  0.00  0.00    +0.000 C 
ATOM     12  C   UNL     1      -0.254  15.682  19.938  0.00  0.00    +0.000 C 
ATOM     13  CA  UNL     1       0.368  15.225  21.274  0.00  0.00    +0.000 C 
ATOM     14  N   UNL     1      -0.236  13.932  21.732  0.00  0.00    +0.000 N 
ATOM     15  C   UNL     1      -1.515  14.044  22.281  0.00  0.00    +0.000 C 
ATOM     16  O   UNL     1      -2.039  15.157  22.412  0.00  0.00    +0.000 OA
ENDROOT
BRANCH   1  19
ATOM     17  C   UNL     1      -4.705  12.600  21.922  0.00  0.00    +0.000 C 
ATOM     18  O   UNL     1      -5.140  12.524  23.068  0.00  0.00    +0.000 OA
ATOM     19  N   UNL     1      -3.356  12.640  21.637  0.00  0.00    +0.000 N 
ATOM     20  H   UNL     1      -3.143  13.056  20.734  0.00  0.00    +0.000 HD
BRANCH  17  21
ATOM     21  C   UNL     1      -5.615  12.581  20.684  0.00  0.00    +0.000 C 
BRANCH  21  22
ATOM     22  C   UNL     1      -5.711  13.972  19.991  0.00  0.00    +0.000 C 
ATOM     23  C   UNL     1      -6.507  14.016  18.686  0.00  0.00    +0.000 C 
ATOM     24  C   UNL     1      -6.317  15.026  20.933  0.00  0.00    +0.000 C 
ENDBRANCH  21  22
BRANCH  21  25
ATOM     25  S   UNL     1      -7.293  11.963  21.154  0.00  0.00    +0.000 S 
BRANCH  25  27
ATOM     26  C   UNL     1      -6.863  10.386  18.951  0.00  0.00    +0.000 C 
ATOM     27  C   UNL     1      -7.273  10.373  20.398  0.00  0.00    +0.000 C 
ATOM     28  O   UNL     1      -7.536   9.356  21.022  0.00  0.00    +0.000 OA
ENDBRANCH  25  27
ENDBRANCH  21  25
ENDBRANCH  17  21
ENDBRANCH   1  19
BRANCH  13  29
ATOM     29  C   UNL     1       0.510  16.376  22.287  0.00  0.00    +0.000 C 
ATOM     30  O   UNL     1       0.468  17.560  21.981  0.00  0.00    +0.000 OA
BRANCH  29  31
ATOM     31  OXT UNL     1       0.859  15.973  23.535  0.00  0.00    +0.000 OA
ATOM     32  HXT UNL     1       1.424  16.636  23.970  0.00  0.00    +0.000 HD
ENDBRANCH  29  31
ENDBRANCH  13  29
TORSDOF 7
ENDMDL
