MODEL 1
REMARK VINA RESULT:      -7.1      0.000      0.000
REMARK  Name = 
REMARK  7 active torsions:
REMARK  status: ('A' for Active; 'I' for Inactive)
REMARK    1  A    between atoms: C_5  and  C_6
REMARK    2  A    between atoms: N_7  and  C_8
REMARK    3  A    between atoms: C_8  and  C_9
REMARK    4  A    between atoms: C_9  and  C_10
REMARK    5  A    between atoms: C_10  and  C_11
REMARK    6  A    between atoms: C_11  and  N_12
REMARK    7  A    between atoms: C_13  and  C_14
REMARK                            x       y       z     vdW  Elec       q    Type
REMARK                         _______ _______ _______ _____ _____    ______ ____
ROOT
ATOM      1  C   UNL     1       7.275   7.257  17.386  0.00  0.00    +0.000 C 
ENDROOT
BRANCH   1   2
ATOM      2  C   UNL     1       7.614   6.321  18.547  0.00  0.00    +0.000 C 
BRANCH   2   4
ATOM      3  C   UNL     1       5.545   5.468  17.925  0.00  0.00    +0.000 C 
ATOM      4  N   UNL     1       6.415   5.540  18.866  0.00  0.00    +0.000 NA
BRANCH   3   9
ATOM      5 CL   UNL     1       0.542   2.227  18.646  0.00  0.00    +0.000 Cl
ATOM      6  C   UNL     1       1.965   3.172  18.441  0.00  0.00    +0.000 A 
ATOM      7  C   UNL     1       3.125   2.571  17.962  0.00  0.00    +0.000 A 
ATOM      8  C   UNL     1       4.281   3.338  17.798  0.00  0.00    +0.000 A 
ATOM      9  C   UNL     1       4.283   4.707  18.114  0.00  0.00    +0.000 A 
ATOM     10  C   UNL     1       3.108   5.300  18.592  0.00  0.00    +0.000 A 
ATOM     11 CL   UNL     1       3.005   6.975  19.003  0.00  0.00    +0.000 Cl
ATOM     12  C   UNL     1       1.949   4.530  18.754  0.00  0.00    +0.000 A 
ENDBRANCH   3   9
ENDBRANCH   2   4
ENDBRANCH   1   2
BRANCH   1  13
ATOM     13  C   UNL     1       7.937   8.627  17.533  0.00  0.00    +0.000 C 
BRANCH  13  14
ATOM     14  C   UNL     1       8.752   8.743  18.823  0.00  0.00    +0.000 C 
BRANCH  14  15
ATOM     15  N   UNL     1       8.881  10.161  19.145  0.00  0.00    +0.000 NA
ATOM     16  C   UNL     1       9.634  10.832  18.341  0.00  0.00    +0.000 C 
BRANCH  16  17
ATOM     17  C   UNL     1       9.826  12.285  18.527  0.00  0.00    +0.000 A 
ATOM     18  C   UNL     1       8.818  13.158  18.092  0.00  0.00    +0.000 A 
ATOM     19  C   UNL     1       8.975  14.538  18.227  0.00  0.00    +0.000 A 
ATOM     20  C   UNL     1      10.142  15.046  18.793  0.00  0.00    +0.000 A 
ATOM     21 CL   UNL     1      10.339  16.748  18.950  0.00  0.00    +0.000 Cl
ATOM     22  C   UNL     1      11.151  14.189  19.229  0.00  0.00    +0.000 A 
ATOM     23  C   UNL     1      10.995  12.805  19.099  0.00  0.00    +0.000 A 
ATOM     24 CL   UNL     1      12.292  11.801  19.641  0.00  0.00    +0.000 Cl
ENDBRANCH  16  17
ENDBRANCH  14  15
ENDBRANCH  13  14
ENDBRANCH   1  13
TORSDOF 7
ENDMDL
MODEL 2
REMARK VINA RESULT:      -6.9      6.339      8.474
REMARK  Name = 
REMARK  7 active torsions:
REMARK  status: ('A' for Active; 'I' for Inactive)
REMARK    1  A    between atoms: C_5  and  C_6
REMARK    2  A    between atoms: N_7  and  C_8
REMARK    3  A    between atoms: C_8  and  C_9
REMARK    4  A    between atoms: C_9  and  C_10
REMARK    5  A    between atoms: C_10  and  C_11
REMARK    6  A    between atoms: C_11  and  N_12
REMARK    7  A    between atoms: C_13  and  C_14
REMARK                            x       y       z     vdW  Elec       q    Type
REMARK                         _______ _______ _______ _____ _____    ______ ____
ROOT
ATOM      1  C   UNL     1       1.448   2.999  20.708  0.00  0.00    +0.000 C 
ENDROOT
BRANCH   1   2
ATOM      2  C   UNL     1       2.174   4.240  21.229  0.00  0.00    +0.000 C 
BRANCH   2   4
ATOM      3  C   UNL     1       2.181   6.525  20.809  0.00  0.00    +0.000 C 
ATOM      4  N   UNL     1       1.562   5.418  20.607  0.00  0.00    +0.000 NA
BRANCH   3   9
ATOM      5 CL   UNL     1       0.037  11.708  18.665  0.00  0.00    +0.000 Cl
ATOM      6  C   UNL     1       0.656  10.218  19.262  0.00  0.00    +0.000 A 
ATOM      7  C   UNL     1       0.326   9.802  20.548  0.00  0.00    +0.000 A 
ATOM      8  C   UNL     1       0.832   8.594  21.033  0.00  0.00    +0.000 A 
ATOM      9  C   UNL     1       1.670   7.796  20.235  0.00  0.00    +0.000 A 
ATOM     10  C   UNL     1       1.992   8.224  18.942  0.00  0.00    +0.000 A 
ATOM     11 CL   UNL     1       3.009   7.315  17.881  0.00  0.00    +0.000 Cl
ATOM     12  C   UNL     1       1.483   9.437  18.456  0.00  0.00    +0.000 A 
ENDBRANCH   3   9
ENDBRANCH   2   4
ENDBRANCH   1   2
BRANCH   1  13
ATOM     13  C   UNL     1       2.118   2.415  19.464  0.00  0.00    +0.000 C 
BRANCH  13  14
ATOM     14  C   UNL     1       1.402   2.821  18.174  0.00  0.00    +0.000 C 
BRANCH  14  15
ATOM     15  N   UNL     1       2.418   3.215  17.202  0.00  0.00    +0.000 NA
ATOM     16  C   UNL     1       3.458   3.788  17.708  0.00  0.00    +0.000 C 
BRANCH  16  17
ATOM     17  C   UNL     1       4.581   4.206  16.845  0.00  0.00    +0.000 A 
ATOM     18  C   UNL     1       4.521   3.913  15.475  0.00  0.00    +0.000 A 
ATOM     19  C   UNL     1       5.576   4.269  14.633  0.00  0.00    +0.000 A 
ATOM     20  C   UNL     1       6.691   4.917  15.160  0.00  0.00    +0.000 A 
ATOM     21 CL   UNL     1       7.994   5.347  14.124  0.00  0.00    +0.000 Cl
ATOM     22  C   UNL     1       6.761   5.214  16.521  0.00  0.00    +0.000 A 
ATOM     23  C   UNL     1       5.705   4.861  17.367  0.00  0.00    +0.000 A 
ATOM     24 CL   UNL     1       5.865   5.240  19.045  0.00  0.00    +0.000 Cl
ENDBRANCH  16  17
ENDBRANCH  14  15
ENDBRANCH  13  14
ENDBRANCH   1  13
TORSDOF 7
ENDMDL
MODEL 3
REMARK VINA RESULT:      -6.9      1.216     10.822
REMARK  Name = 
REMARK  7 active torsions:
REMARK  status: ('A' for Active; 'I' for Inactive)
REMARK    1  A    between atoms: C_5  and  C_6
REMARK    2  A    between atoms: N_7  and  C_8
REMARK    3  A    between atoms: C_8  and  C_9
REMARK    4  A    between atoms: C_9  and  C_10
REMARK    5  A    between atoms: C_10  and  C_11
REMARK    6  A    between atoms: C_11  and  N_12
REMARK    7  A    between atoms: C_13  and  C_14
REMARK                            x       y       z     vdW  Elec       q    Type
REMARK                         _______ _______ _______ _____ _____    ______ ____
ROOT
ATOM      1  C   UNL     1       7.777   8.638  17.674  0.00  0.00    +0.000 C 
ENDROOT
BRANCH   1   2
ATOM      2  C   UNL     1       8.805   8.840  18.789  0.00  0.00    +0.000 C 
BRANCH   2   4
ATOM      3  C   UNL     1      10.037  10.681  19.488  0.00  0.00    +0.000 C 
ATOM      4  N   UNL     1       8.892  10.276  19.071  0.00  0.00    +0.000 NA
BRANCH   3   9
ATOM      5 CL   UNL     1      10.905  16.432  20.981  0.00  0.00    +0.000 Cl
ATOM      6  C   UNL     1      10.658  14.789  20.535  0.00  0.00    +0.000 A 
ATOM      7  C   UNL     1      10.129  13.897  21.462  0.00  0.00    +0.000 A 
ATOM      8  C   UNL     1       9.931  12.562  21.101  0.00  0.00    +0.000 A 
ATOM      9  C   UNL     1      10.264  12.113  19.811  0.00  0.00    +0.000 A 
ATOM     10  C   UNL     1      10.793  13.021  18.886  0.00  0.00    +0.000 A 
ATOM     11 CL   UNL     1      11.229  12.570  17.276  0.00  0.00    +0.000 Cl
ATOM     12  C   UNL     1      10.989  14.360  19.251  0.00  0.00    +0.000 A 
ENDBRANCH   3   9
ENDBRANCH   2   4
ENDBRANCH   1   2
BRANCH   1  13
ATOM     13  C   UNL     1       7.554   7.159  17.354  0.00  0.00    +0.000 C 
BRANCH  13  14
ATOM     14  C   UNL     1       7.675   6.271  18.594  0.00  0.00    +0.000 C 
BRANCH  14  15
ATOM     15  N   UNL     1       6.584   5.302  18.560  0.00  0.00    +0.000 NA
ATOM     16  C   UNL     1       5.427   5.778  18.876  0.00  0.00    +0.000 C 
BRANCH  16  17
ATOM     17  C   UNL     1       4.227   4.917  18.849  0.00  0.00    +0.000 A 
ATOM     18  C   UNL     1       4.361   3.565  19.194  0.00  0.00    +0.000 A 
ATOM     19  C   UNL     1       3.255   2.716  19.154  0.00  0.00    +0.000 A 
ATOM     20  C   UNL     1       2.014   3.218  18.768  0.00  0.00    +0.000 A 
ATOM     21 CL   UNL     1       0.652   2.168  18.710  0.00  0.00    +0.000 Cl
ATOM     22  C   UNL     1       1.868   4.561  18.423  0.00  0.00    +0.000 A 
ATOM     23  C   UNL     1       2.975   5.415  18.465  0.00  0.00    +0.000 A 
ATOM     24 CL   UNL     1       2.728   7.063  18.006  0.00  0.00    +0.000 Cl
ENDBRANCH  16  17
ENDBRANCH  14  15
ENDBRANCH  13  14
ENDBRANCH   1  13
TORSDOF 7
ENDMDL
MODEL 4
REMARK VINA RESULT:      -6.8      4.327      8.057
REMARK  Name = 
REMARK  7 active torsions:
REMARK  status: ('A' for Active; 'I' for Inactive)
REMARK    1  A    between atoms: C_5  and  C_6
REMARK    2  A    between atoms: N_7  and  C_8
REMARK    3  A    between atoms: C_8  and  C_9
REMARK    4  A    between atoms: C_9  and  C_10
REMARK    5  A    between atoms: C_10  and  C_11
REMARK    6  A    between atoms: C_11  and  N_12
REMARK    7  A    between atoms: C_13  and  C_14
REMARK                            x       y       z     vdW  Elec       q    Type
REMARK                         _______ _______ _______ _____ _____    ______ ____
ROOT
ATOM      1  C   UNL     1       2.394   3.086  18.040  0.00  0.00    +0.000 C 
ENDROOT
BRANCH   1   2
ATOM      2  C   UNL     1       3.883   2.873  18.320  0.00  0.00    +0.000 C 
BRANCH   2   4
ATOM      3  C   UNL     1       5.670   4.290  17.884  0.00  0.00    +0.000 C 
ATOM      4  N   UNL     1       4.516   4.190  18.437  0.00  0.00    +0.000 NA
BRANCH   3   9
ATOM      5 CL   UNL     1       8.839   9.382  18.186  0.00  0.00    +0.000 Cl
ATOM      6  C   UNL     1       7.918   7.933  18.089  0.00  0.00    +0.000 A 
ATOM      7  C   UNL     1       8.215   6.872  18.938  0.00  0.00    +0.000 A 
ATOM      8  C   UNL     1       7.469   5.693  18.858  0.00  0.00    +0.000 A 
ATOM      9  C   UNL     1       6.423   5.570  17.927  0.00  0.00    +0.000 A 
ATOM     10  C   UNL     1       6.132   6.646  17.079  0.00  0.00    +0.000 A 
ATOM     11 CL   UNL     1       4.865   6.597  15.905  0.00  0.00    +0.000 Cl
ATOM     12  C   UNL     1       6.881   7.828  17.163  0.00  0.00    +0.000 A 
ENDBRANCH   3   9
ENDBRANCH   2   4
ENDBRANCH   1   2
BRANCH   1  13
ATOM     13  C   UNL     1       1.876   4.400  18.626  0.00  0.00    +0.000 C 
BRANCH  13  14
ATOM     14  C   UNL     1       2.166   4.523  20.123  0.00  0.00    +0.000 C 
BRANCH  14  15
ATOM     15  N   UNL     1       1.577   5.773  20.592  0.00  0.00    +0.000 NA
ATOM     16  C   UNL     1       2.037   6.836  20.022  0.00  0.00    +0.000 C 
BRANCH  16  17
ATOM     17  C   UNL     1       1.506   8.168  20.374  0.00  0.00    +0.000 A 
ATOM     18  C   UNL     1       1.160   8.424  21.709  0.00  0.00    +0.000 A 
ATOM     19  C   UNL     1       0.630   9.662  22.074  0.00  0.00    +0.000 A 
ATOM     20  C   UNL     1       0.442  10.645  21.104  0.00  0.00    +0.000 A 
ATOM     21 CL   UNL     1      -0.220  12.167  21.553  0.00  0.00    +0.000 Cl
ATOM     22  C   UNL     1       0.782  10.402  19.773  0.00  0.00    +0.000 A 
ATOM     23  C   UNL     1       1.317   9.163  19.405  0.00  0.00    +0.000 A 
ATOM     24 CL   UNL     1       1.697   8.922  17.737  0.00  0.00    +0.000 Cl
ENDBRANCH  16  17
ENDBRANCH  14  15
ENDBRANCH  13  14
ENDBRANCH   1  13
TORSDOF 7
ENDMDL
MODEL 5
REMARK VINA RESULT:      -6.7      5.042      8.759
REMARK  Name = 
REMARK  7 active torsions:
REMARK  status: ('A' for Active; 'I' for Inactive)
REMARK    1  A    between atoms: C_5  and  C_6
REMARK    2  A    between atoms: N_7  and  C_8
REMARK    3  A    between atoms: C_8  and  C_9
REMARK    4  A    between atoms: C_9  and  C_10
REMARK    5  A    between atoms: C_10  and  C_11
REMARK    6  A    between atoms: C_11  and  N_12
REMARK    7  A    between atoms: C_13  and  C_14
REMARK                            x       y       z     vdW  Elec       q    Type
REMARK                         _______ _______ _______ _____ _____    ______ ____
ROOT
ATOM      1  C   UNL     1       7.725   7.202  17.451  0.00  0.00    +0.000 C 
ENDROOT
BRANCH   1   2
ATOM      2  C   UNL     1       6.316   7.598  17.007  0.00  0.00    +0.000 C 
BRANCH   2   4
ATOM      3  C   UNL     1       6.845   5.941  15.467  0.00  0.00    +0.000 C 
ATOM      4  N   UNL     1       5.913   6.700  15.920  0.00  0.00    +0.000 NA
BRANCH   3   9
ATOM      5 CL   UNL     1       5.581   2.014  11.104  0.00  0.00    +0.000 Cl
ATOM      6  C   UNL     1       5.961   3.141  12.346  0.00  0.00    +0.000 A 
ATOM      7  C   UNL     1       5.166   3.201  13.486  0.00  0.00    +0.000 A 
ATOM      8  C   UNL     1       5.472   4.119  14.494  0.00  0.00    +0.000 A 
ATOM      9  C   UNL     1       6.574   4.982  14.365  0.00  0.00    +0.000 A 
ATOM     10  C   UNL     1       7.367   4.910  13.214  0.00  0.00    +0.000 A 
ATOM     11 CL   UNL     1       8.745   5.923  12.962  0.00  0.00    +0.000 Cl
ATOM     12  C   UNL     1       7.059   3.988  12.205  0.00  0.00    +0.000 A 
ENDBRANCH   3   9
ENDBRANCH   2   4
ENDBRANCH   1   2
BRANCH   1  13
ATOM     13  C   UNL     1       7.744   6.619  18.865  0.00  0.00    +0.000 C 
BRANCH  13  14
ATOM     14  C   UNL     1       8.057   5.122  18.872  0.00  0.00    +0.000 C 
BRANCH  14  15
ATOM     15  N   UNL     1       6.803   4.401  18.672  0.00  0.00    +0.000 NA
ATOM     16  C   UNL     1       5.797   4.873  19.328  0.00  0.00    +0.000 C 
BRANCH  16  17
ATOM     17  C   UNL     1       4.458   4.264  19.193  0.00  0.00    +0.000 A 
ATOM     18  C   UNL     1       4.316   2.891  19.438  0.00  0.00    +0.000 A 
ATOM     19  C   UNL     1       3.071   2.276  19.294  0.00  0.00    +0.000 A 
ATOM     20  C   UNL     1       1.969   3.033  18.902  0.00  0.00    +0.000 A 
ATOM     21 CL   UNL     1       0.438   2.273  18.716  0.00  0.00    +0.000 Cl
ATOM     22  C   UNL     1       2.098   4.399  18.656  0.00  0.00    +0.000 A 
ATOM     23  C   UNL     1       3.344   5.019  18.803  0.00  0.00    +0.000 A 
ATOM     24 CL   UNL     1       3.438   6.710  18.462  0.00  0.00    +0.000 Cl
ENDBRANCH  16  17
ENDBRANCH  14  15
ENDBRANCH  13  14
ENDBRANCH   1  13
TORSDOF 7
ENDMDL
MODEL 6
REMARK VINA RESULT:      -6.7      6.518      8.394
REMARK  Name = 
REMARK  7 active torsions:
REMARK  status: ('A' for Active; 'I' for Inactive)
REMARK    1  A    between atoms: C_5  and  C_6
REMARK    2  A    between atoms: N_7  and  C_8
REMARK    3  A    between atoms: C_8  and  C_9
REMARK    4  A    between atoms: C_9  and  C_10
REMARK    5  A    between atoms: C_10  and  C_11
REMARK    6  A    between atoms: C_11  and  N_12
REMARK    7  A    between atoms: C_13  and  C_14
REMARK                            x       y       z     vdW  Elec       q    Type
REMARK                         _______ _______ _______ _____ _____    ______ ____
ROOT
ATOM      1  C   UNL     1       2.034   3.365  19.787  0.00  0.00    +0.000 C 
ENDROOT
BRANCH   1   2
ATOM      2  C   UNL     1       1.250   3.533  18.485  0.00  0.00    +0.000 C 
BRANCH   2   4
ATOM      3  C   UNL     1       3.414   3.803  17.686  0.00  0.00    +0.000 C 
ATOM      4  N   UNL     1       2.172   4.035  17.461  0.00  0.00    +0.000 NA
BRANCH   3   9
ATOM      5 CL   UNL     1       7.645   5.449  13.755  0.00  0.00    +0.000 Cl
ATOM      6  C   UNL     1       6.433   4.995  14.889  0.00  0.00    +0.000 A 
ATOM      7  C   UNL     1       6.141   3.649  15.079  0.00  0.00    +0.000 A 
ATOM      8  C   UNL     1       5.154   3.280  15.998  0.00  0.00    +0.000 A 
ATOM      9  C   UNL     1       4.456   4.257  16.728  0.00  0.00    +0.000 A 
ATOM     10  C   UNL     1       4.762   5.608  16.530  0.00  0.00    +0.000 A 
ATOM     11 CL   UNL     1       3.965   6.883  17.381  0.00  0.00    +0.000 Cl
ATOM     12  C   UNL     1       5.752   5.975  15.609  0.00  0.00    +0.000 A 
ENDBRANCH   3   9
ENDBRANCH   2   4
ENDBRANCH   1   2
BRANCH   1  13
ATOM     13  C   UNL     1       1.671   4.428  20.824  0.00  0.00    +0.000 C 
BRANCH  13  14
ATOM     14  C   UNL     1       2.154   5.822  20.421  0.00  0.00    +0.000 C 
BRANCH  14  15
ATOM     15  N   UNL     1       1.295   6.802  21.079  0.00  0.00    +0.000 NA
ATOM     16  C   UNL     1       1.448   8.017  20.670  0.00  0.00    +0.000 C 
BRANCH  16  17
ATOM     17  C   UNL     1       0.618   9.107  21.223  0.00  0.00    +0.000 A 
ATOM     18  C   UNL     1       0.281   9.070  22.584  0.00  0.00    +0.000 A 
ATOM     19  C   UNL     1      -0.523  10.068  23.136  0.00  0.00    +0.000 A 
ATOM     20  C   UNL     1      -0.993  11.101  22.328  0.00  0.00    +0.000 A 
ATOM     21 CL   UNL     1      -1.992  12.325  23.007  0.00  0.00    +0.000 Cl
ATOM     22  C   UNL     1      -0.665  11.148  20.973  0.00  0.00    +0.000 A 
ATOM     23  C   UNL     1       0.144  10.151  20.418  0.00  0.00    +0.000 A 
ATOM     24 CL   UNL     1       0.496  10.258  18.729  0.00  0.00    +0.000 Cl
ENDBRANCH  16  17
ENDBRANCH  14  15
ENDBRANCH  13  14
ENDBRANCH   1  13
TORSDOF 7
ENDMDL
MODEL 7
REMARK VINA RESULT:      -6.7      6.284      7.917
REMARK  Name = 
REMARK  7 active torsions:
REMARK  status: ('A' for Active; 'I' for Inactive)
REMARK    1  A    between atoms: C_5  and  C_6
REMARK    2  A    between atoms: N_7  and  C_8
REMARK    3  A    between atoms: C_8  and  C_9
REMARK    4  A    between atoms: C_9  and  C_10
REMARK    5  A    between atoms: C_10  and  C_11
REMARK    6  A    between atoms: C_11  and  N_12
REMARK    7  A    between atoms: C_13  and  C_14
REMARK                            x       y       z     vdW  Elec       q    Type
REMARK                         _______ _______ _______ _____ _____    ______ ____
ROOT
ATOM      1  C   UNL     1       3.572   2.405  19.562  0.00  0.00    +0.000 C 
ENDROOT
BRANCH   1   2
ATOM      2  C   UNL     1       2.613   2.448  18.371  0.00  0.00    +0.000 C 
BRANCH   2   4
ATOM      3  C   UNL     1       4.554   3.332  17.452  0.00  0.00    +0.000 C 
ATOM      4  N   UNL     1       3.354   2.945  17.208  0.00  0.00    +0.000 NA
BRANCH   3   9
ATOM      5 CL   UNL     1       7.902   5.413  12.922  0.00  0.00    +0.000 Cl
ATOM      6  C   UNL     1       6.958   4.819  14.232  0.00  0.00    +0.000 A 
ATOM      7  C   UNL     1       5.756   4.169  13.973  0.00  0.00    +0.000 A 
ATOM      8  C   UNL     1       4.987   3.689  15.036  0.00  0.00    +0.000 A 
ATOM      9  C   UNL     1       5.417   3.859  16.363  0.00  0.00    +0.000 A 
ATOM     10  C   UNL     1       6.631   4.512  16.611  0.00  0.00    +0.000 A 
ATOM     11 CL   UNL     1       7.249   4.766  18.204  0.00  0.00    +0.000 Cl
ATOM     12  C   UNL     1       7.400   4.992  15.542  0.00  0.00    +0.000 A 
ENDBRANCH   3   9
ENDBRANCH   2   4
ENDBRANCH   1   2
BRANCH   1  13
ATOM     13  C   UNL     1       3.118   3.315  20.705  0.00  0.00    +0.000 C 
BRANCH  13  14
ATOM     14  C   UNL     1       1.595   3.452  20.768  0.00  0.00    +0.000 C 
BRANCH  14  15
ATOM     15  N   UNL     1       1.267   4.868  20.635  0.00  0.00    +0.000 NA
ATOM     16  C   UNL     1       2.171   5.581  20.051  0.00  0.00    +0.000 C 
BRANCH  16  17
ATOM     17  C   UNL     1       1.956   7.023  19.817  0.00  0.00    +0.000 A 
ATOM     18  C   UNL     1       1.205   7.752  20.751  0.00  0.00    +0.000 A 
ATOM     19  C   UNL     1       0.960   9.111  20.549  0.00  0.00    +0.000 A 
ATOM     20  C   UNL     1       1.462   9.741  19.413  0.00  0.00    +0.000 A 
ATOM     21 CL   UNL     1       1.150  11.413  19.160  0.00  0.00    +0.000 Cl
ATOM     22  C   UNL     1       2.210   9.027  18.477  0.00  0.00    +0.000 A 
ATOM     23  C   UNL     1       2.461   7.666  18.678  0.00  0.00    +0.000 A 
ATOM     24 CL   UNL     1       3.377   6.837  17.471  0.00  0.00    +0.000 Cl
ENDBRANCH  16  17
ENDBRANCH  14  15
ENDBRANCH  13  14
ENDBRANCH   1  13
TORSDOF 7
ENDMDL
MODEL 8
REMARK VINA RESULT:      -6.6      1.263     10.766
REMARK  Name = 
REMARK  7 active torsions:
REMARK  status: ('A' for Active; 'I' for Inactive)
REMARK    1  A    between atoms: C_5  and  C_6
REMARK    2  A    between atoms: N_7  and  C_8
REMARK    3  A    between atoms: C_8  and  C_9
REMARK    4  A    between atoms: C_9  and  C_10
REMARK    5  A    between atoms: C_10  and  C_11
REMARK    6  A    between atoms: C_11  and  N_12
REMARK    7  A    between atoms: C_13  and  C_14
REMARK                            x       y       z     vdW  Elec       q    Type
REMARK                         _______ _______ _______ _____ _____    ______ ____
ROOT
ATOM      1  C   UNL     1       8.059   8.536  17.775  0.00  0.00    +0.000 C 
ENDROOT
BRANCH   1   2
ATOM      2  C   UNL     1       8.843   8.839  19.053  0.00  0.00    +0.000 C 
BRANCH   2   4
ATOM      3  C   UNL     1       9.844  10.825  18.386  0.00  0.00    +0.000 C 
ATOM      4  N   UNL     1       8.978  10.294  19.170  0.00  0.00    +0.000 NA
BRANCH   3   9
ATOM      5 CL   UNL     1      10.982  16.720  18.519  0.00  0.00    +0.000 Cl
ATOM      6  C   UNL     1      10.638  15.035  18.476  0.00  0.00    +0.000 A 
ATOM      7  C   UNL     1      11.534  14.136  19.045  0.00  0.00    +0.000 A 
ATOM      8  C   UNL     1      11.256  12.767  19.007  0.00  0.00    +0.000 A 
ATOM      9  C   UNL     1      10.082  12.292  18.400  0.00  0.00    +0.000 A 
ATOM     10  C   UNL     1       9.186  13.207  17.834  0.00  0.00    +0.000 A 
ATOM     11 CL   UNL     1       7.713  12.725  17.069  0.00  0.00    +0.000 Cl
ATOM     12  C   UNL     1       9.466  14.580  17.874  0.00  0.00    +0.000 A 
ENDBRANCH   3   9
ENDBRANCH   2   4
ENDBRANCH   1   2
BRANCH   1  13
ATOM     13  C   UNL     1       7.444   7.136  17.790  0.00  0.00    +0.000 C 
BRANCH  13  14
ATOM     14  C   UNL     1       7.001   6.681  16.399  0.00  0.00    +0.000 C 
BRANCH  14  15
ATOM     15  N   UNL     1       5.931   5.703  16.566  0.00  0.00    +0.000 NA
ATOM     16  C   UNL     1       5.199   5.876  17.615  0.00  0.00    +0.000 C 
BRANCH  16  17
ATOM     17  C   UNL     1       4.056   4.981  17.891  0.00  0.00    +0.000 A 
ATOM     18  C   UNL     1       4.254   3.595  17.813  0.00  0.00    +0.000 A 
ATOM     19  C   UNL     1       3.192   2.719  18.041  0.00  0.00    +0.000 A 
ATOM     20  C   UNL     1       1.931   3.229  18.344  0.00  0.00    +0.000 A 
ATOM     21 CL   UNL     1       0.620   2.149  18.615  0.00  0.00    +0.000 Cl
ATOM     22  C   UNL     1       1.722   4.605  18.423  0.00  0.00    +0.000 A 
ATOM     23  C   UNL     1       2.786   5.485  18.199  0.00  0.00    +0.000 A 
ATOM     24 CL   UNL     1       2.454   7.178  18.293  0.00  0.00    +0.000 Cl
ENDBRANCH  16  17
ENDBRANCH  14  15
ENDBRANCH  13  14
ENDBRANCH   1  13
TORSDOF 7
ENDMDL
MODEL 9
REMARK VINA RESULT:      -6.6      1.417     10.925
REMARK  Name = 
REMARK  7 active torsions:
REMARK  status: ('A' for Active; 'I' for Inactive)
REMARK    1  A    between atoms: C_5  and  C_6
REMARK    2  A    between atoms: N_7  and  C_8
REMARK    3  A    between atoms: C_8  and  C_9
REMARK    4  A    between atoms: C_9  and  C_10
REMARK    5  A    between atoms: C_10  and  C_11
REMARK    6  A    between atoms: C_11  and  N_12
REMARK    7  A    between atoms: C_13  and  C_14
REMARK                            x       y       z     vdW  Elec       q    Type
REMARK                         _______ _______ _______ _____ _____    ______ ____
ROOT
ATOM      1  C   UNL     1       8.377   8.674  17.447  0.00  0.00    +0.000 C 
ENDROOT
BRANCH   1   2
ATOM      2  C   UNL     1       8.656   9.588  18.641  0.00  0.00    +0.000 C 
BRANCH   2   4
ATOM      3  C   UNL     1       9.387  11.775  18.923  0.00  0.00    +0.000 C 
ATOM      4  N   UNL     1       8.770  10.963  18.143  0.00  0.00    +0.000 NA
BRANCH   3   9
ATOM      5 CL   UNL     1       9.976  17.573  17.476  0.00  0.00    +0.000 Cl
ATOM      6  C   UNL     1       9.822  15.908  17.878  0.00  0.00    +0.000 A 
ATOM      7  C   UNL     1       8.672  15.460  18.521  0.00  0.00    +0.000 A 
ATOM      8  C   UNL     1       8.548  14.108  18.851  0.00  0.00    +0.000 A 
ATOM      9  C   UNL     1       9.574  13.199  18.541  0.00  0.00    +0.000 A 
ATOM     10  C   UNL     1      10.725  13.662  17.892  0.00  0.00    +0.000 A 
ATOM     11 CL   UNL     1      12.039  12.625  17.464  0.00  0.00    +0.000 Cl
ATOM     12  C   UNL     1      10.846  15.018  17.561  0.00  0.00    +0.000 A 
ENDBRANCH   3   9
ENDBRANCH   2   4
ENDBRANCH   1   2
BRANCH   1  13
ATOM     13  C   UNL     1       7.276   7.655  17.744  0.00  0.00    +0.000 C 
BRANCH  13  14
ATOM     14  C   UNL     1       7.784   6.477  18.577  0.00  0.00    +0.000 C 
BRANCH  14  15
ATOM     15  N   UNL     1       6.673   5.547  18.763  0.00  0.00    +0.000 NA
ATOM     16  C   UNL     1       5.556   5.929  18.243  0.00  0.00    +0.000 C 
BRANCH  16  17
ATOM     17  C   UNL     1       4.357   5.070  18.323  0.00  0.00    +0.000 A 
ATOM     18  C   UNL     1       3.581   5.106  19.491  0.00  0.00    +0.000 A 
ATOM     19  C   UNL     1       2.456   4.289  19.613  0.00  0.00    +0.000 A 
ATOM     20  C   UNL     1       2.108   3.433  18.570  0.00  0.00    +0.000 A 
ATOM     21 CL   UNL     1       0.728   2.419  18.726  0.00  0.00    +0.000 Cl
ATOM     22  C   UNL     1       2.872   3.388  17.405  0.00  0.00    +0.000 A 
ATOM     23  C   UNL     1       3.998   4.208  17.278  0.00  0.00    +0.000 A 
ATOM     24 CL   UNL     1       4.911   4.088  15.816  0.00  0.00    +0.000 Cl
ENDBRANCH  16  17
ENDBRANCH  14  15
ENDBRANCH  13  14
ENDBRANCH   1  13
TORSDOF 7
ENDMDL
