MODEL 1
REMARK VINA RESULT:      -9.4      0.000      0.000
REMARK  Name = 
REMARK  6 active torsions:
REMARK  status: ('A' for Active; 'I' for Inactive)
REMARK    1  A    between atoms: C_2  and  C_4
REMARK    2  A    between atoms: C_8  and  N_9
REMARK    3  A    between atoms: C_10  and  C_12
REMARK    4  A    between atoms: C_12  and  N_13
REMARK    5  A    between atoms: N_13  and  S_14
REMARK    6  A    between atoms: S_14  and  C_17
REMARK                            x       y       z     vdW  Elec       q    Type
REMARK                         _______ _______ _______ _____ _____    ______ ____
ROOT
ATOM      1  N   UNL     1       6.221   4.745  15.934  0.00  0.00    +0.000 N 
ATOM      2  C   UNL     1       7.027   4.516  17.044  0.00  0.00    +0.000 C 
ATOM      3  O   UNL     1       8.204   4.167  17.018  0.00  0.00    +0.000 OA
ATOM      4  H   UNL     1       5.264   5.036  16.106  0.00  0.00    +0.000 HD
ENDROOT
BRANCH   1   9
ATOM      5  C   UNL     1       6.201   3.540  12.441  0.00  0.00    +0.000 A 
ATOM      6  C   UNL     1       7.214   4.298  11.850  0.00  0.00    +0.000 A 
ATOM      7  C   UNL     1       7.917   5.219  12.621  0.00  0.00    +0.000 A 
ATOM      8  C   UNL     1       7.609   5.379  13.976  0.00  0.00    +0.000 A 
ATOM      9  C   UNL     1       6.588   4.637  14.575  0.00  0.00    +0.000 A 
ATOM     10  C   UNL     1       5.875   3.714  13.792  0.00  0.00    +0.000 A 
BRANCH   5  12
ATOM     11  N   UNL     1       6.037   1.371  11.417  0.00  0.00    +0.000 NA
ATOM     12  C   UNL     1       5.480   2.518  11.636  0.00  0.00    +0.000 C 
ATOM     13  N   UNL     1       4.256   2.810  11.115  0.00  0.00    +0.000 N 
ATOM     14  H   UNL     1       5.402   0.777  10.877  0.00  0.00    +0.000 HD
ATOM     15  H   UNL     1       3.934   2.223  10.358  0.00  0.00    +0.000 HD
ATOM     16  H   UNL     1       4.095   3.798  10.915  0.00  0.00    +0.000 HD
ENDBRANCH   5  12
ENDBRANCH   1   9
BRANCH   2  17
ATOM     17  C   UNL     1       6.304   4.761  18.374  0.00  0.00    +0.000 C 
BRANCH  17  18
ATOM     18  N   UNL     1       5.646   3.525  18.822  0.00  0.00    +0.000 NA
ATOM     19  H   UNL     1       5.901   3.172  19.745  0.00  0.00    +0.000 HD
BRANCH  18  20
ATOM     20  S   UNL     1       4.041   3.269  18.414  0.00  0.00    +0.000 S 
ATOM     21  O   UNL     1       3.932   3.590  17.007  0.00  0.00    +0.000 OA
ATOM     22  O   UNL     1       3.702   1.953  18.909  0.00  0.00    +0.000 OA
BRANCH  20  23
ATOM     23  C   UNL     1       3.198   4.560  19.317  0.00  0.00    +0.000 A 
ATOM     24  C   UNL     1       2.549   4.139  20.495  0.00  0.00    +0.000 A 
ATOM     25  C   UNL     1       1.803   5.036  21.247  0.00  0.00    +0.000 A 
ATOM     26  C   UNL     1       1.631   6.337  20.787  0.00  0.00    +0.000 A 
ATOM     27  C   UNL     1       2.221   6.763  19.588  0.00  0.00    +0.000 A 
ATOM     28  C   UNL     1       1.903   8.035  19.087  0.00  0.00    +0.000 A 
ATOM     29  C   UNL     1       2.471   8.506  17.907  0.00  0.00    +0.000 A 
ATOM     30  C   UNL     1       3.459   7.760  17.285  0.00  0.00    +0.000 A 
ATOM     31  C   UNL     1       3.781   6.490  17.771  0.00  0.00    +0.000 A 
ATOM     32  C   UNL     1       3.101   5.909  18.870  0.00  0.00    +0.000 A 
ENDBRANCH  20  23
ENDBRANCH  18  20
ENDBRANCH  17  18
ENDBRANCH   2  17
TORSDOF 6
ENDMDL
MODEL 2
REMARK VINA RESULT:      -9.4      5.513      7.493
REMARK  Name = 
REMARK  6 active torsions:
REMARK  status: ('A' for Active; 'I' for Inactive)
REMARK    1  A    between atoms: C_2  and  C_4
REMARK    2  A    between atoms: C_8  and  N_9
REMARK    3  A    between atoms: C_10  and  C_12
REMARK    4  A    between atoms: C_12  and  N_13
REMARK    5  A    between atoms: N_13  and  S_14
REMARK    6  A    between atoms: S_14  and  C_17
REMARK                            x       y       z     vdW  Elec       q    Type
REMARK                         _______ _______ _______ _____ _____    ______ ____
ROOT
ATOM      1  N   UNL     1       8.971   9.055  19.263  0.00  0.00    +0.000 N 
ATOM      2  C   UNL     1       8.224   8.582  18.190  0.00  0.00    +0.000 C 
ATOM      3  O   UNL     1       7.822   9.251  17.243  0.00  0.00    +0.000 OA
ATOM      4  H   UNL     1       9.240   8.385  19.975  0.00  0.00    +0.000 HD
ENDROOT
BRANCH   1   9
ATOM      5  C   UNL     1      10.507  12.334  18.519  0.00  0.00    +0.000 A 
ATOM      6  C   UNL     1      10.385  13.011  19.734  0.00  0.00    +0.000 A 
ATOM      7  C   UNL     1       9.789  12.372  20.817  0.00  0.00    +0.000 A 
ATOM      8  C   UNL     1       9.320  11.061  20.685  0.00  0.00    +0.000 A 
ATOM      9  C   UNL     1       9.423  10.378  19.471  0.00  0.00    +0.000 A 
ATOM     10  C   UNL     1      10.018  11.029  18.378  0.00  0.00    +0.000 A 
BRANCH   5  12
ATOM     11  N   UNL     1      12.333  12.545  16.970  0.00  0.00    +0.000 NA
ATOM     12  C   UNL     1      11.187  12.992  17.372  0.00  0.00    +0.000 C 
ATOM     13  N   UNL     1      10.613  14.074  16.778  0.00  0.00    +0.000 N 
ATOM     14  H   UNL     1      12.649  13.085  16.160  0.00  0.00    +0.000 HD
ATOM     15  H   UNL     1      11.218  14.655  16.213  0.00  0.00    +0.000 HD
ATOM     16  H   UNL     1      10.017  14.637  17.385  0.00  0.00    +0.000 HD
ENDBRANCH   5  12
ENDBRANCH   1   9
BRANCH   2  17
ATOM     17  C   UNL     1       7.938   7.078  18.274  0.00  0.00    +0.000 C 
BRANCH  17  18
ATOM     18  N   UNL     1       6.636   6.780  17.657  0.00  0.00    +0.000 NA
ATOM     19  H   UNL     1       6.340   7.378  16.885  0.00  0.00    +0.000 HD
BRANCH  18  20
ATOM     20  S   UNL     1       6.164   5.180  17.501  0.00  0.00    +0.000 S 
ATOM     21  O   UNL     1       6.417   4.821  16.122  0.00  0.00    +0.000 OA
ATOM     22  O   UNL     1       6.794   4.463  18.588  0.00  0.00    +0.000 OA
BRANCH  20  23
ATOM     23  C   UNL     1       4.391   5.275  17.703  0.00  0.00    +0.000 A 
ATOM     24  C   UNL     1       3.866   6.582  17.763  0.00  0.00    +0.000 A 
ATOM     25  C   UNL     1       2.511   6.787  17.987  0.00  0.00    +0.000 A 
ATOM     26  C   UNL     1       1.685   5.695  18.233  0.00  0.00    +0.000 A 
ATOM     27  C   UNL     1       2.197   4.389  18.235  0.00  0.00    +0.000 A 
ATOM     28  C   UNL     1       1.363   3.332  18.632  0.00  0.00    +0.000 A 
ATOM     29  C   UNL     1       1.822   2.018  18.639  0.00  0.00    +0.000 A 
ATOM     30  C   UNL     1       3.078   1.736  18.129  0.00  0.00    +0.000 A 
ATOM     31  C   UNL     1       3.920   2.779  17.735  0.00  0.00    +0.000 A 
ATOM     32  C   UNL     1       3.548   4.140  17.874  0.00  0.00    +0.000 A 
ENDBRANCH  20  23
ENDBRANCH  18  20
ENDBRANCH  17  18
ENDBRANCH   2  17
TORSDOF 6
ENDMDL
MODEL 3
REMARK VINA RESULT:      -9.0      5.787      8.214
REMARK  Name = 
REMARK  6 active torsions:
REMARK  status: ('A' for Active; 'I' for Inactive)
REMARK    1  A    between atoms: C_2  and  C_4
REMARK    2  A    between atoms: C_8  and  N_9
REMARK    3  A    between atoms: C_10  and  C_12
REMARK    4  A    between atoms: C_12  and  N_13
REMARK    5  A    between atoms: N_13  and  S_14
REMARK    6  A    between atoms: S_14  and  C_17
REMARK                            x       y       z     vdW  Elec       q    Type
REMARK                         _______ _______ _______ _____ _____    ______ ____
ROOT
ATOM      1  N   UNL     1       9.191   9.305  19.183  0.00  0.00    +0.000 N 
ATOM      2  C   UNL     1       8.258   9.054  18.183  0.00  0.00    +0.000 C 
ATOM      3  O   UNL     1       7.669   9.902  17.520  0.00  0.00    +0.000 OA
ATOM      4  H   UNL     1       9.604   8.504  19.648  0.00  0.00    +0.000 HD
ENDROOT
BRANCH   1   9
ATOM      5  C   UNL     1       9.592  12.264  21.361  0.00  0.00    +0.000 A 
ATOM      6  C   UNL     1      10.472  13.064  20.631  0.00  0.00    +0.000 A 
ATOM      7  C   UNL     1      10.937  12.620  19.397  0.00  0.00    +0.000 A 
ATOM      8  C   UNL     1      10.521  11.382  18.896  0.00  0.00    +0.000 A 
ATOM      9  C   UNL     1       9.652  10.566  19.623  0.00  0.00    +0.000 A 
ATOM     10  C   UNL     1       9.191  11.014  20.873  0.00  0.00    +0.000 A 
BRANCH   5  12
ATOM     11  N   UNL     1       8.968  14.028  22.872  0.00  0.00    +0.000 NA
ATOM     12  C   UNL     1       9.051  12.755  22.657  0.00  0.00    +0.000 C 
ATOM     13  N   UNL     1       8.677  11.861  23.613  0.00  0.00    +0.000 N 
ATOM     14  H   UNL     1       8.551  14.197  23.791  0.00  0.00    +0.000 HD
ATOM     15  H   UNL     1       8.591  12.215  24.556  0.00  0.00    +0.000 HD
ATOM     16  H   UNL     1       9.175  10.971  23.593  0.00  0.00    +0.000 HD
ENDBRANCH   5  12
ENDBRANCH   1   9
BRANCH   2  17
ATOM     17  C   UNL     1       8.019   7.558  17.946  0.00  0.00    +0.000 C 
BRANCH  17  18
ATOM     18  N   UNL     1       6.973   7.372  16.929  0.00  0.00    +0.000 NA
ATOM     19  H   UNL     1       7.039   7.941  16.085  0.00  0.00    +0.000 HD
BRANCH  18  20
ATOM     20  S   UNL     1       6.363   5.833  16.669  0.00  0.00    +0.000 S 
ATOM     21  O   UNL     1       6.362   5.641  15.235  0.00  0.00    +0.000 OA
ATOM     22  O   UNL     1       7.107   4.950  17.541  0.00  0.00    +0.000 OA
BRANCH  20  23
ATOM     23  C   UNL     1       4.659   5.997  17.181  0.00  0.00    +0.000 A 
ATOM     24  C   UNL     1       4.228   7.319  17.409  0.00  0.00    +0.000 A 
ATOM     25  C   UNL     1       2.945   7.571  17.876  0.00  0.00    +0.000 A 
ATOM     26  C   UNL     1       2.112   6.505  18.196  0.00  0.00    +0.000 A 
ATOM     27  C   UNL     1       2.539   5.179  18.031  0.00  0.00    +0.000 A 
ATOM     28  C   UNL     1       1.726   4.137  18.502  0.00  0.00    +0.000 A 
ATOM     29  C   UNL     1       2.102   2.806  18.351  0.00  0.00    +0.000 A 
ATOM     30  C   UNL     1       3.236   2.501  17.615  0.00  0.00    +0.000 A 
ATOM     31  C   UNL     1       4.057   3.529  17.144  0.00  0.00    +0.000 A 
ATOM     32  C   UNL     1       3.794   4.893  17.427  0.00  0.00    +0.000 A 
ENDBRANCH  20  23
ENDBRANCH  18  20
ENDBRANCH  17  18
ENDBRANCH   2  17
TORSDOF 6
ENDMDL
MODEL 4
REMARK VINA RESULT:      -8.8      5.407      7.548
REMARK  Name = 
REMARK  6 active torsions:
REMARK  status: ('A' for Active; 'I' for Inactive)
REMARK    1  A    between atoms: C_2  and  C_4
REMARK    2  A    between atoms: C_8  and  N_9
REMARK    3  A    between atoms: C_10  and  C_12
REMARK    4  A    between atoms: C_12  and  N_13
REMARK    5  A    between atoms: N_13  and  S_14
REMARK    6  A    between atoms: S_14  and  C_17
REMARK                            x       y       z     vdW  Elec       q    Type
REMARK                         _______ _______ _______ _____ _____    ______ ____
ROOT
ATOM      1  N   UNL     1       9.119   9.217  19.186  0.00  0.00    +0.000 N 
ATOM      2  C   UNL     1       8.217   8.715  18.255  0.00  0.00    +0.000 C 
ATOM      3  O   UNL     1       7.570   9.379  17.451  0.00  0.00    +0.000 OA
ATOM      4  H   UNL     1       9.589   8.548  19.787  0.00  0.00    +0.000 HD
ENDROOT
BRANCH   1   9
ATOM      5  C   UNL     1       9.165  12.881  18.703  0.00  0.00    +0.000 A 
ATOM      6  C   UNL     1      10.095  13.303  19.654  0.00  0.00    +0.000 A 
ATOM      7  C   UNL     1      10.720  12.361  20.465  0.00  0.00    +0.000 A 
ATOM      8  C   UNL     1      10.417  11.003  20.323  0.00  0.00    +0.000 A 
ATOM      9  C   UNL     1       9.478  10.569  19.385  0.00  0.00    +0.000 A 
ATOM     10  C   UNL     1       8.842  11.524  18.573  0.00  0.00    +0.000 A 
BRANCH   5  12
ATOM     11  N   UNL     1       7.440  13.565  17.173  0.00  0.00    +0.000 NA
ATOM     12  C   UNL     1       8.530  13.876  17.798  0.00  0.00    +0.000 C 
ATOM     13  N   UNL     1       9.117  15.091  17.614  0.00  0.00    +0.000 N 
ATOM     14  H   UNL     1       7.120  14.364  16.619  0.00  0.00    +0.000 HD
ATOM     15  H   UNL     1       8.829  15.615  16.798  0.00  0.00    +0.000 HD
ATOM     16  H   UNL     1      10.131  15.104  17.725  0.00  0.00    +0.000 HD
ENDBRANCH   5  12
ENDBRANCH   1   9
BRANCH   2  17
ATOM     17  C   UNL     1       8.097   7.187  18.297  0.00  0.00    +0.000 C 
BRANCH  17  18
ATOM     18  N   UNL     1       7.459   6.699  17.065  0.00  0.00    +0.000 NA
ATOM     19  H   UNL     1       7.911   6.937  16.182  0.00  0.00    +0.000 HD
BRANCH  18  20
ATOM     20  S   UNL     1       6.732   5.190  17.074  0.00  0.00    +0.000 S 
ATOM     21  O   UNL     1       6.861   4.676  15.728  0.00  0.00    +0.000 OA
ATOM     22  O   UNL     1       7.290   4.478  18.204  0.00  0.00    +0.000 OA
BRANCH  20  23
ATOM     23  C   UNL     1       5.008   5.588  17.323  0.00  0.00    +0.000 A 
ATOM     24  C   UNL     1       4.720   6.965  17.411  0.00  0.00    +0.000 A 
ATOM     25  C   UNL     1       3.426   7.398  17.672  0.00  0.00    +0.000 A 
ATOM     26  C   UNL     1       2.430   6.463  17.926  0.00  0.00    +0.000 A 
ATOM     27  C   UNL     1       2.706   5.088  17.901  0.00  0.00    +0.000 A 
ATOM     28  C   UNL     1       1.710   4.186  18.307  0.00  0.00    +0.000 A 
ATOM     29  C   UNL     1       1.934   2.812  18.288  0.00  0.00    +0.000 A 
ATOM     30  C   UNL     1       3.110   2.324  17.743  0.00  0.00    +0.000 A 
ATOM     31  C   UNL     1       4.111   3.211  17.339  0.00  0.00    +0.000 A 
ATOM     32  C   UNL     1       3.985   4.614  17.502  0.00  0.00    +0.000 A 
ENDBRANCH  20  23
ENDBRANCH  18  20
ENDBRANCH  17  18
ENDBRANCH   2  17
TORSDOF 6
ENDMDL
MODEL 5
REMARK VINA RESULT:      -8.7      5.753      7.665
REMARK  Name = 
REMARK  6 active torsions:
REMARK  status: ('A' for Active; 'I' for Inactive)
REMARK    1  A    between atoms: C_2  and  C_4
REMARK    2  A    between atoms: C_8  and  N_9
REMARK    3  A    between atoms: C_10  and  C_12
REMARK    4  A    between atoms: C_12  and  N_13
REMARK    5  A    between atoms: N_13  and  S_14
REMARK    6  A    between atoms: S_14  and  C_17
REMARK                            x       y       z     vdW  Elec       q    Type
REMARK                         _______ _______ _______ _____ _____    ______ ____
ROOT
ATOM      1  N   UNL     1       8.457   9.986  17.822  0.00  0.00    +0.000 N 
ATOM      2  C   UNL     1       8.277   8.641  18.126  0.00  0.00    +0.000 C 
ATOM      3  O   UNL     1       8.819   8.032  19.044  0.00  0.00    +0.000 OA
ATOM      4  H   UNL     1       7.938  10.359  17.034  0.00  0.00    +0.000 HD
ENDROOT
BRANCH   1   9
ATOM      5  C   UNL     1      10.677  12.894  18.349  0.00  0.00    +0.000 A 
ATOM      6  C   UNL     1      10.943  12.831  19.718  0.00  0.00    +0.000 A 
ATOM      7  C   UNL     1      10.383  11.808  20.477  0.00  0.00    +0.000 A 
ATOM      8  C   UNL     1       9.563  10.853  19.869  0.00  0.00    +0.000 A 
ATOM      9  C   UNL     1       9.277  10.913  18.504  0.00  0.00    +0.000 A 
ATOM     10  C   UNL     1       9.837  11.952  17.741  0.00  0.00    +0.000 A 
BRANCH   5  12
ATOM     11  N   UNL     1      11.822  14.993  18.099  0.00  0.00    +0.000 NA
ATOM     12  C   UNL     1      11.311  13.954  17.521  0.00  0.00    +0.000 C 
ATOM     13  N   UNL     1      11.322  13.835  16.165  0.00  0.00    +0.000 N 
ATOM     14  H   UNL     1      12.242  15.607  17.397  0.00  0.00    +0.000 HD
ATOM     15  H   UNL     1      11.494  14.680  15.637  0.00  0.00    +0.000 HD
ATOM     16  H   UNL     1      10.548  13.301  15.771  0.00  0.00    +0.000 HD
ENDBRANCH   5  12
ENDBRANCH   1   9
BRANCH   2  17
ATOM     17  C   UNL     1       7.285   7.941  17.190  0.00  0.00    +0.000 C 
BRANCH  17  18
ATOM     18  N   UNL     1       6.962   6.604  17.710  0.00  0.00    +0.000 NA
ATOM     19  H   UNL     1       6.726   6.535  18.701  0.00  0.00    +0.000 HD
BRANCH  18  20
ATOM     20  S   UNL     1       6.116   5.538  16.733  0.00  0.00    +0.000 S 
ATOM     21  O   UNL     1       6.199   6.075  15.392  0.00  0.00    +0.000 OA
ATOM     22  O   UNL     1       6.620   4.217  17.042  0.00  0.00    +0.000 OA
BRANCH  20  23
ATOM     23  C   UNL     1       4.430   5.756  17.285  0.00  0.00    +0.000 A 
ATOM     24  C   UNL     1       4.052   7.089  17.538  0.00  0.00    +0.000 A 
ATOM     25  C   UNL     1       2.790   7.381  18.037  0.00  0.00    +0.000 A 
ATOM     26  C   UNL     1       1.926   6.341  18.363  0.00  0.00    +0.000 A 
ATOM     27  C   UNL     1       2.303   5.003  18.173  0.00  0.00    +0.000 A 
ATOM     28  C   UNL     1       1.463   3.985  18.651  0.00  0.00    +0.000 A 
ATOM     29  C   UNL     1       1.789   2.643  18.476  0.00  0.00    +0.000 A 
ATOM     30  C   UNL     1       2.894   2.307  17.711  0.00  0.00    +0.000 A 
ATOM     31  C   UNL     1       3.740   3.311  17.234  0.00  0.00    +0.000 A 
ATOM     32  C   UNL     1       3.532   4.680  17.538  0.00  0.00    +0.000 A 
ENDBRANCH  20  23
ENDBRANCH  18  20
ENDBRANCH  17  18
ENDBRANCH   2  17
TORSDOF 6
ENDMDL
MODEL 6
REMARK VINA RESULT:      -8.6      4.509      8.232
REMARK  Name = 
REMARK  6 active torsions:
REMARK  status: ('A' for Active; 'I' for Inactive)
REMARK    1  A    between atoms: C_2  and  C_4
REMARK    2  A    between atoms: C_8  and  N_9
REMARK    3  A    between atoms: C_10  and  C_12
REMARK    4  A    between atoms: C_12  and  N_13
REMARK    5  A    between atoms: N_13  and  S_14
REMARK    6  A    between atoms: S_14  and  C_17
REMARK                            x       y       z     vdW  Elec       q    Type
REMARK                         _______ _______ _______ _____ _____    ______ ____
ROOT
ATOM      1  N   UNL     1       1.170   9.149  19.317  0.00  0.00    +0.000 N 
ATOM      2  C   UNL     1       2.020   8.427  18.487  0.00  0.00    +0.000 C 
ATOM      3  O   UNL     1       2.381   8.759  17.362  0.00  0.00    +0.000 OA
ATOM      4  H   UNL     1       0.961   8.754  20.227  0.00  0.00    +0.000 HD
ENDROOT
BRANCH   1   9
ATOM      5  C   UNL     1      -1.303  11.582  18.043  0.00  0.00    +0.000 A 
ATOM      6  C   UNL     1      -0.748  12.806  18.416  0.00  0.00    +0.000 A 
ATOM      7  C   UNL     1       0.466  12.828  19.096  0.00  0.00    +0.000 A 
ATOM      8  C   UNL     1       1.120  11.630  19.399  0.00  0.00    +0.000 A 
ATOM      9  C   UNL     1       0.568  10.398  19.044  0.00  0.00    +0.000 A 
ATOM     10  C   UNL     1      -0.661  10.379  18.365  0.00  0.00    +0.000 A 
BRANCH   5  12
ATOM     11  N   UNL     1      -2.539  11.368  15.991  0.00  0.00    +0.000 NA
ATOM     12  C   UNL     1      -2.575  11.552  17.272  0.00  0.00    +0.000 C 
ATOM     13  N   UNL     1      -3.759  11.749  17.915  0.00  0.00    +0.000 N 
ATOM     14  H   UNL     1      -3.492  11.345  15.619  0.00  0.00    +0.000 HD
ATOM     15  H   UNL     1      -4.550  12.004  17.340  0.00  0.00    +0.000 HD
ATOM     16  H   UNL     1      -3.705  12.327  18.753  0.00  0.00    +0.000 HD
ENDBRANCH   5  12
ENDBRANCH   1   9
BRANCH   2  17
ATOM     17  C   UNL     1       2.514   7.122  19.122  0.00  0.00    +0.000 C 
BRANCH  17  18
ATOM     18  N   UNL     1       2.443   6.028  18.142  0.00  0.00    +0.000 NA
ATOM     19  H   UNL     1       2.554   6.277  17.159  0.00  0.00    +0.000 HD
BRANCH  18  20
ATOM     20  S   UNL     1       3.093   4.537  18.545  0.00  0.00    +0.000 S 
ATOM     21  O   UNL     1       2.916   4.397  19.974  0.00  0.00    +0.000 OA
ATOM     22  O   UNL     1       2.518   3.582  17.623  0.00  0.00    +0.000 OA
BRANCH  20  23
ATOM     23  C   UNL     1       4.839   4.780  18.251  0.00  0.00    +0.000 A 
ATOM     24  C   UNL     1       5.577   5.219  19.368  0.00  0.00    +0.000 A 
ATOM     25  C   UNL     1       6.930   5.508  19.248  0.00  0.00    +0.000 A 
ATOM     26  C   UNL     1       7.536   5.440  17.999  0.00  0.00    +0.000 A 
ATOM     27  C   UNL     1       6.807   5.061  16.862  0.00  0.00    +0.000 A 
ATOM     28  C   UNL     1       7.418   5.148  15.601  0.00  0.00    +0.000 A 
ATOM     29  C   UNL     1       6.739   4.771  14.446  0.00  0.00    +0.000 A 
ATOM     30  C   UNL     1       5.487   4.187  14.555  0.00  0.00    +0.000 A 
ATOM     31  C   UNL     1       4.867   4.098  15.803  0.00  0.00    +0.000 A 
ATOM     32  C   UNL     1       5.459   4.627  16.978  0.00  0.00    +0.000 A 
ENDBRANCH  20  23
ENDBRANCH  18  20
ENDBRANCH  17  18
ENDBRANCH   2  17
TORSDOF 6
ENDMDL
MODEL 7
REMARK VINA RESULT:      -8.5      5.731      7.750
REMARK  Name = 
REMARK  6 active torsions:
REMARK  status: ('A' for Active; 'I' for Inactive)
REMARK    1  A    between atoms: C_2  and  C_4
REMARK    2  A    between atoms: C_8  and  N_9
REMARK    3  A    between atoms: C_10  and  C_12
REMARK    4  A    between atoms: C_12  and  N_13
REMARK    5  A    between atoms: N_13  and  S_14
REMARK    6  A    between atoms: S_14  and  C_17
REMARK                            x       y       z     vdW  Elec       q    Type
REMARK                         _______ _______ _______ _____ _____    ______ ____
ROOT
ATOM      1  N   UNL     1       3.031   7.877  17.609  0.00  0.00    +0.000 N 
ATOM      2  C   UNL     1       2.235   8.459  18.590  0.00  0.00    +0.000 C 
ATOM      3  O   UNL     1       1.829   7.907  19.608  0.00  0.00    +0.000 OA
ATOM      4  H   UNL     1       3.296   8.456  16.820  0.00  0.00    +0.000 HD
ENDROOT
BRANCH   1   9
ATOM      5  C   UNL     1       5.471   5.121  17.276  0.00  0.00    +0.000 A 
ATOM      6  C   UNL     1       4.688   3.990  17.513  0.00  0.00    +0.000 A 
ATOM      7  C   UNL     1       3.331   4.141  17.782  0.00  0.00    +0.000 A 
ATOM      8  C   UNL     1       2.761   5.417  17.813  0.00  0.00    +0.000 A 
ATOM      9  C   UNL     1       3.536   6.558  17.592  0.00  0.00    +0.000 A 
ATOM     10  C   UNL     1       4.907   6.402  17.329  0.00  0.00    +0.000 A 
BRANCH   5  12
ATOM     11  N   UNL     1       7.358   5.447  15.823  0.00  0.00    +0.000 NA
ATOM     12  C   UNL     1       6.911   4.965  16.937  0.00  0.00    +0.000 C 
ATOM     13  N   UNL     1       7.735   4.293  17.787  0.00  0.00    +0.000 N 
ATOM     14  H   UNL     1       8.366   5.282  15.756  0.00  0.00    +0.000 HD
ATOM     15  H   UNL     1       8.611   3.963  17.404  0.00  0.00    +0.000 HD
ATOM     16  H   UNL     1       7.282   3.575  18.352  0.00  0.00    +0.000 HD
ENDBRANCH   5  12
ENDBRANCH   1   9
BRANCH   2  17
ATOM     17  C   UNL     1       1.897   9.926  18.298  0.00  0.00    +0.000 C 
BRANCH  17  18
ATOM     18  N   UNL     1       0.510  10.037  17.823  0.00  0.00    +0.000 NA
ATOM     19  H   UNL     1       0.127   9.239  17.316  0.00  0.00    +0.000 HD
BRANCH  18  20
ATOM     20  S   UNL     1      -0.610  10.838  18.778  0.00  0.00    +0.000 S 
ATOM     21  O   UNL     1      -0.806  10.007  19.946  0.00  0.00    +0.000 OA
ATOM     22  O   UNL     1      -0.137  12.200  18.900  0.00  0.00    +0.000 OA
BRANCH  20  23
ATOM     23  C   UNL     1      -2.102  10.735  17.800  0.00  0.00    +0.000 A 
ATOM     24  C   UNL     1      -1.964  10.065  16.568  0.00  0.00    +0.000 A 
ATOM     25  C   UNL     1      -3.035   9.980  15.689  0.00  0.00    +0.000 A 
ATOM     26  C   UNL     1      -4.225  10.630  15.996  0.00  0.00    +0.000 A 
ATOM     27  C   UNL     1      -4.367  11.352  17.191  0.00  0.00    +0.000 A 
ATOM     28  C   UNL     1      -5.529  12.113  17.392  0.00  0.00    +0.000 A 
ATOM     29  C   UNL     1      -5.720  12.836  18.566  0.00  0.00    +0.000 A 
ATOM     30  C   UNL     1      -4.808  12.702  19.601  0.00  0.00    +0.000 A 
ATOM     31  C   UNL     1      -3.645  11.951  19.411  0.00  0.00    +0.000 A 
ATOM     32  C   UNL     1      -3.337  11.341  18.169  0.00  0.00    +0.000 A 
ENDBRANCH  20  23
ENDBRANCH  18  20
ENDBRANCH  17  18
ENDBRANCH   2  17
TORSDOF 6
ENDMDL
MODEL 8
REMARK VINA RESULT:      -8.5      4.379      8.300
REMARK  Name = 
REMARK  6 active torsions:
REMARK  status: ('A' for Active; 'I' for Inactive)
REMARK    1  A    between atoms: C_2  and  C_4
REMARK    2  A    between atoms: C_8  and  N_9
REMARK    3  A    between atoms: C_10  and  C_12
REMARK    4  A    between atoms: C_12  and  N_13
REMARK    5  A    between atoms: N_13  and  S_14
REMARK    6  A    between atoms: S_14  and  C_17
REMARK                            x       y       z     vdW  Elec       q    Type
REMARK                         _______ _______ _______ _____ _____    ______ ____
ROOT
ATOM      1  N   UNL     1       1.583   8.902  18.490  0.00  0.00    +0.000 N 
ATOM      2  C   UNL     1       2.135   7.781  19.101  0.00  0.00    +0.000 C 
ATOM      3  O   UNL     1       1.953   7.433  20.264  0.00  0.00    +0.000 OA
ATOM      4  H   UNL     1       1.817   9.065  17.517  0.00  0.00    +0.000 HD
ENDROOT
BRANCH   1   9
ATOM      5  C   UNL     1      -1.282  11.217  18.795  0.00  0.00    +0.000 A 
ATOM      6  C   UNL     1      -1.124  11.730  20.083  0.00  0.00    +0.000 A 
ATOM      7  C   UNL     1      -0.051  11.307  20.862  0.00  0.00    +0.000 A 
ATOM      8  C   UNL     1       0.859  10.376  20.352  0.00  0.00    +0.000 A 
ATOM      9  C   UNL     1       0.705   9.845  19.070  0.00  0.00    +0.000 A 
ATOM     10  C   UNL     1      -0.384  10.268  18.290  0.00  0.00    +0.000 A 
BRANCH   5  12
ATOM     11  N   UNL     1      -2.208  11.838  16.665  0.00  0.00    +0.000 NA
ATOM     12  C   UNL     1      -2.396  11.703  17.938  0.00  0.00    +0.000 C 
ATOM     13  N   UNL     1      -3.591  12.027  18.505  0.00  0.00    +0.000 N 
ATOM     14  H   UNL     1      -3.076  12.150  16.219  0.00  0.00    +0.000 HD
ATOM     15  H   UNL     1      -4.210  12.609  17.957  0.00  0.00    +0.000 HD
ATOM     16  H   UNL     1      -3.539  12.346  19.472  0.00  0.00    +0.000 HD
ENDBRANCH   5  12
ENDBRANCH   1   9
BRANCH   2  17
ATOM     17  C   UNL     1       3.022   6.959  18.159  0.00  0.00    +0.000 C 
BRANCH  17  18
ATOM     18  N   UNL     1       2.450   5.616  17.976  0.00  0.00    +0.000 NA
ATOM     19  H   UNL     1       2.014   5.417  17.075  0.00  0.00    +0.000 HD
BRANCH  18  20
ATOM     20  S   UNL     1       3.233   4.303  18.661  0.00  0.00    +0.000 S 
ATOM     21  O   UNL     1       3.047   4.429  20.090  0.00  0.00    +0.000 OA
ATOM     22  O   UNL     1       2.766   3.135  17.946  0.00  0.00    +0.000 OA
BRANCH  20  23
ATOM     23  C   UNL     1       4.952   4.651  18.319  0.00  0.00    +0.000 A 
ATOM     24  C   UNL     1       5.698   5.116  19.421  0.00  0.00    +0.000 A 
ATOM     25  C   UNL     1       7.027   5.485  19.265  0.00  0.00    +0.000 A 
ATOM     26  C   UNL     1       7.597   5.471  17.997  0.00  0.00    +0.000 A 
ATOM     27  C   UNL     1       6.857   5.067  16.877  0.00  0.00    +0.000 A 
ATOM     28  C   UNL     1       7.422   5.208  15.600  0.00  0.00    +0.000 A 
ATOM     29  C   UNL     1       6.731   4.809  14.459  0.00  0.00    +0.000 A 
ATOM     30  C   UNL     1       5.520   4.152  14.596  0.00  0.00    +0.000 A 
ATOM     31  C   UNL     1       4.944   4.009  15.861  0.00  0.00    +0.000 A 
ATOM     32  C   UNL     1       5.540   4.554  17.026  0.00  0.00    +0.000 A 
ENDBRANCH  20  23
ENDBRANCH  18  20
ENDBRANCH  17  18
ENDBRANCH   2  17
TORSDOF 6
ENDMDL
MODEL 9
REMARK VINA RESULT:      -8.4      5.460      7.270
REMARK  Name = 
REMARK  6 active torsions:
REMARK  status: ('A' for Active; 'I' for Inactive)
REMARK    1  A    between atoms: C_2  and  C_4
REMARK    2  A    between atoms: C_8  and  N_9
REMARK    3  A    between atoms: C_10  and  C_12
REMARK    4  A    between atoms: C_12  and  N_13
REMARK    5  A    between atoms: N_13  and  S_14
REMARK    6  A    between atoms: S_14  and  C_17
REMARK                            x       y       z     vdW  Elec       q    Type
REMARK                         _______ _______ _______ _____ _____    ______ ____
ROOT
ATOM      1  N   UNL     1       9.176   9.181  19.209  0.00  0.00    +0.000 N 
ATOM      2  C   UNL     1       8.275   8.629  18.304  0.00  0.00    +0.000 C 
ATOM      3  O   UNL     1       7.607   9.251  17.484  0.00  0.00    +0.000 OA
ATOM      4  H   UNL     1       9.664   8.543  19.828  0.00  0.00    +0.000 HD
ENDROOT
BRANCH   1   9
ATOM      5  C   UNL     1      10.489  12.525  18.342  0.00  0.00    +0.000 A 
ATOM      6  C   UNL     1      10.241  13.261  19.503  0.00  0.00    +0.000 A 
ATOM      7  C   UNL     1       9.635  12.640  20.590  0.00  0.00    +0.000 A 
ATOM      8  C   UNL     1       9.279  11.289  20.516  0.00  0.00    +0.000 A 
ATOM      9  C   UNL     1       9.509  10.546  19.357  0.00  0.00    +0.000 A 
ATOM     10  C   UNL     1      10.114  11.179  18.258  0.00  0.00    +0.000 A 
BRANCH   5  12
ATOM     11  N   UNL     1      10.669  14.224  16.650  0.00  0.00    +0.000 NA
ATOM     12  C   UNL     1      11.183  13.169  17.195  0.00  0.00    +0.000 C 
ATOM     13  N   UNL     1      12.333  12.624  16.711  0.00  0.00    +0.000 N 
ATOM     14  H   UNL     1      11.280  14.557  15.899  0.00  0.00    +0.000 HD
ATOM     15  H   UNL     1      12.612  12.905  15.780  0.00  0.00    +0.000 HD
ATOM     16  H   UNL     1      12.421  11.616  16.837  0.00  0.00    +0.000 HD
ENDBRANCH   5  12
ENDBRANCH   1   9
BRANCH   2  17
ATOM     17  C   UNL     1       8.186   7.102  18.401  0.00  0.00    +0.000 C 
BRANCH  17  18
ATOM     18  N   UNL     1       7.272   6.586  17.371  0.00  0.00    +0.000 NA
ATOM     19  H   UNL     1       7.319   7.020  16.449  0.00  0.00    +0.000 HD
BRANCH  18  20
ATOM     20  S   UNL     1       6.937   4.944  17.336  0.00  0.00    +0.000 S 
ATOM     21  O   UNL     1       6.617   4.632  15.960  0.00  0.00    +0.000 OA
ATOM     22  O   UNL     1       8.035   4.292  18.015  0.00  0.00    +0.000 OA
BRANCH  20  23
ATOM     23  C   UNL     1       5.417   4.836  18.269  0.00  0.00    +0.000 A 
ATOM     24  C   UNL     1       5.241   3.636  18.986  0.00  0.00    +0.000 A 
ATOM     25  C   UNL     1       4.069   3.405  19.695  0.00  0.00    +0.000 A 
ATOM     26  C   UNL     1       3.034   4.331  19.627  0.00  0.00    +0.000 A 
ATOM     27  C   UNL     1       3.165   5.506  18.872  0.00  0.00    +0.000 A 
ATOM     28  C   UNL     1       2.048   6.340  18.710  0.00  0.00    +0.000 A 
ATOM     29  C   UNL     1       2.132   7.522  17.981  0.00  0.00    +0.000 A 
ATOM     30  C   UNL     1       3.366   7.943  17.512  0.00  0.00    +0.000 A 
ATOM     31  C   UNL     1       4.485   7.121  17.662  0.00  0.00    +0.000 A 
ATOM     32  C   UNL     1       4.401   5.834  18.250  0.00  0.00    +0.000 A 
ENDBRANCH  20  23
ENDBRANCH  18  20
ENDBRANCH  17  18
ENDBRANCH   2  17
TORSDOF 6
ENDMDL
