MODEL 1
REMARK VINA RESULT:      -8.0      0.000      0.000
REMARK  Name = 
REMARK  13 active torsions:
REMARK  status: ('A' for Active; 'I' for Inactive)
REMARK    1  A    between atoms: C_1  and  C_2
REMARK    2  A    between atoms: C_2  and  O_3
REMARK    3  A    between atoms: O_3  and  C_4
REMARK    4  A    between atoms: C_7  and  C_8
REMARK    5  A    between atoms: C_8  and  C_9
REMARK    6  A    between atoms: C_9  and  N_10
REMARK    7  A    between atoms: C_11  and  C_13
REMARK    8  A    between atoms: C_19  and  O_20
REMARK    9  A    between atoms: O_20  and  C_21
REMARK   10  A    between atoms: C_23  and  S_24
REMARK   11  A    between atoms: S_24  and  N_27
REMARK   12  A    between atoms: C_28  and  S_29
REMARK   13  A    between atoms: N_30  and  C_31
REMARK                            x       y       z     vdW  Elec       q    Type
REMARK                         _______ _______ _______ _____ _____    ______ ____
ROOT
ATOM      1  C   UNL     1       2.605   4.735  20.002  0.00  0.00    +0.000 A 
ATOM      2  C   UNL     1       1.679   5.428  20.797  0.00  0.00    +0.000 A 
ATOM      3  C   UNL     1       1.414   6.783  20.585  0.00  0.00    +0.000 A 
ATOM      4  C   UNL     1       2.104   7.486  19.603  0.00  0.00    +0.000 A 
ATOM      5  C   UNL     1       3.093   6.819  18.871  0.00  0.00    +0.000 A 
ATOM      6  C   UNL     1       3.345   5.449  19.054  0.00  0.00    +0.000 A 
ENDROOT
BRANCH   6   7
ATOM      7  S   UNL     1       4.693   4.740  18.110  0.00  0.00    +0.000 S 
ATOM      8  O   UNL     1       5.298   3.737  18.977  0.00  0.00    +0.000 OA
ATOM      9  O   UNL     1       4.181   4.312  16.821  0.00  0.00    +0.000 OA
BRANCH   7  10
ATOM     10  N   UNL     1       5.762   5.934  17.898  0.00  0.00    +0.000 NA
ATOM     11  C   UNL     1       6.692   5.881  17.004  0.00  0.00    +0.000 C 
ATOM     12  N   UNL     1       7.588   6.903  16.792  0.00  0.00    +0.000 N 
ATOM     13  C   UNL     1       7.658   8.137  17.523  0.00  0.00    +0.000 C 
ATOM     14  H   UNL     1       8.345   6.700  16.150  0.00  0.00    +0.000 HD
BRANCH  11  15
ATOM     15  S   UNL     1       7.057   4.567  15.894  0.00  0.00    +0.000 S 
ATOM     16  H   UNL     1       8.361   4.812  15.702  0.00  0.00    +0.000 HD
ENDBRANCH  11  15
ENDBRANCH   7  10
ENDBRANCH   6   7
BRANCH   1  17
ATOM     17  O   UNL     1       2.784   3.389  20.132  0.00  0.00    +0.000 OA
BRANCH  17  19
ATOM     18  C   UNL     1       1.175   2.564  18.573  0.00  0.00    +0.000 C 
ATOM     19  C   UNL     1       1.580   2.618  20.029  0.00  0.00    +0.000 C 
ENDBRANCH  17  19
ENDBRANCH   1  17
BRANCH   4  20
ATOM     20  C   UNL     1       1.795   8.952  19.407  0.00  0.00    +0.000 C 
BRANCH  20  21
ATOM     21  C   UNL     1       1.397   9.313  17.979  0.00  0.00    +0.000 C 
BRANCH  21  22
ATOM     22  N   UNL     1       0.000   9.664  17.894  0.00  0.00    +0.000 N 
ATOM     23  C   UNL     1      -0.468  10.882  18.355  0.00  0.00    +0.000 C 
ATOM     24  O   UNL     1       0.258  11.711  18.885  0.00  0.00    +0.000 OA
ATOM     25  H   UNL     1      -0.620   9.008  17.442  0.00  0.00    +0.000 HD
BRANCH  23  26
ATOM     26  C   UNL     1      -1.928  11.103  18.187  0.00  0.00    +0.000 A 
ATOM     27  C   UNL     1      -2.552  11.886  19.186  0.00  0.00    +0.000 A 
ATOM     28  C   UNL     1      -3.916  12.153  19.139  0.00  0.00    +0.000 A 
ATOM     29 CL   UNL     1      -4.651  13.049  20.409  0.00  0.00    +0.000 Cl
ATOM     30  C   UNL     1      -4.676  11.693  18.077  0.00  0.00    +0.000 A 
ATOM     31  C   UNL     1      -4.061  10.962  17.059  0.00  0.00    +0.000 A 
ATOM     32  C   UNL     1      -2.692  10.644  17.100  0.00  0.00    +0.000 A 
BRANCH  32  33
ATOM     33  O   UNL     1      -2.300   9.957  15.984  0.00  0.00    +0.000 OA
ATOM     34  C   UNL     1      -3.011  10.145  14.770  0.00  0.00    +0.000 C 
ENDBRANCH  32  33
ENDBRANCH  23  26
ENDBRANCH  21  22
ENDBRANCH  20  21
ENDBRANCH   4  20
TORSDOF 10
ENDMDL
MODEL 2
REMARK VINA RESULT:      -7.8      1.448      1.831
REMARK  Name = 
REMARK  13 active torsions:
REMARK  status: ('A' for Active; 'I' for Inactive)
REMARK    1  A    between atoms: C_1  and  C_2
REMARK    2  A    between atoms: C_2  and  O_3
REMARK    3  A    between atoms: O_3  and  C_4
REMARK    4  A    between atoms: C_7  and  C_8
REMARK    5  A    between atoms: C_8  and  C_9
REMARK    6  A    between atoms: C_9  and  N_10
REMARK    7  A    between atoms: C_11  and  C_13
REMARK    8  A    between atoms: C_19  and  O_20
REMARK    9  A    between atoms: O_20  and  C_21
REMARK   10  A    between atoms: C_23  and  S_24
REMARK   11  A    between atoms: S_24  and  N_27
REMARK   12  A    between atoms: C_28  and  S_29
REMARK   13  A    between atoms: N_30  and  C_31
REMARK                            x       y       z     vdW  Elec       q    Type
REMARK                         _______ _______ _______ _____ _____    ______ ____
ROOT
ATOM      1  C   UNL     1       2.656   6.382  19.644  0.00  0.00    +0.000 A 
ATOM      2  C   UNL     1       1.883   7.272  20.405  0.00  0.00    +0.000 A 
ATOM      3  C   UNL     1       1.476   8.503  19.886  0.00  0.00    +0.000 A 
ATOM      4  C   UNL     1       1.872   8.891  18.610  0.00  0.00    +0.000 A 
ATOM      5  C   UNL     1       2.718   8.044  17.886  0.00  0.00    +0.000 A 
ATOM      6  C   UNL     1       3.108   6.789  18.385  0.00  0.00    +0.000 A 
ENDROOT
BRANCH   6   7
ATOM      7  S   UNL     1       4.259   5.842  17.391  0.00  0.00    +0.000 S 
ATOM      8  O   UNL     1       3.651   4.528  17.228  0.00  0.00    +0.000 OA
ATOM      9  O   UNL     1       4.575   6.604  16.196  0.00  0.00    +0.000 OA
BRANCH   7  10
ATOM     10  N   UNL     1       5.590   5.674  18.294  0.00  0.00    +0.000 NA
ATOM     11  C   UNL     1       6.672   5.139  17.838  0.00  0.00    +0.000 C 
ATOM     12  N   UNL     1       7.822   5.018  18.584  0.00  0.00    +0.000 N 
ATOM     13  C   UNL     1       7.993   5.421  19.952  0.00  0.00    +0.000 C 
ATOM     14  H   UNL     1       8.566   4.474  18.164  0.00  0.00    +0.000 HD
BRANCH  11  15
ATOM     15  S   UNL     1       6.955   4.445  16.246  0.00  0.00    +0.000 S 
ATOM     16  H   UNL     1       6.810   5.554  15.506  0.00  0.00    +0.000 HD
ENDBRANCH  11  15
ENDBRANCH   7  10
ENDBRANCH   6   7
BRANCH   1  17
ATOM     17  O   UNL     1       2.960   5.135  20.106  0.00  0.00    +0.000 OA
BRANCH  17  19
ATOM     18  C   UNL     1       1.076   3.682  19.901  0.00  0.00    +0.000 C 
ATOM     19  C   UNL     1       1.912   4.507  20.854  0.00  0.00    +0.000 C 
ENDBRANCH  17  19
ENDBRANCH   1  17
BRANCH   4  20
ATOM     20  C   UNL     1       1.417  10.232  18.084  0.00  0.00    +0.000 C 
BRANCH  20  21
ATOM     21  C   UNL     1       0.502  10.991  19.039  0.00  0.00    +0.000 C 
BRANCH  21  22
ATOM     22  N   UNL     1      -0.837  11.100  18.513  0.00  0.00    +0.000 N 
ATOM     23  C   UNL     1      -1.863  11.655  19.258  0.00  0.00    +0.000 C 
ATOM     24  O   UNL     1      -1.707  12.052  20.404  0.00  0.00    +0.000 OA
ATOM     25  H   UNL     1      -0.991  10.799  17.562  0.00  0.00    +0.000 HD
BRANCH  23  26
ATOM     26  C   UNL     1      -3.182  11.709  18.576  0.00  0.00    +0.000 A 
ATOM     27  C   UNL     1      -4.272  12.122  19.375  0.00  0.00    +0.000 A 
ATOM     28  C   UNL     1      -5.557  12.203  18.848  0.00  0.00    +0.000 A 
ATOM     29 CL   UNL     1      -6.869  12.642  19.869  0.00  0.00    +0.000 Cl
ATOM     30  C   UNL     1      -5.776  11.925  17.510  0.00  0.00    +0.000 A 
ATOM     31  C   UNL     1      -4.698  11.564  16.699  0.00  0.00    +0.000 A 
ATOM     32  C   UNL     1      -3.395  11.437  17.214  0.00  0.00    +0.000 A 
BRANCH  32  33
ATOM     33  O   UNL     1      -2.496  11.113  16.235  0.00  0.00    +0.000 OA
ATOM     34  C   UNL     1      -2.850  10.140  15.264  0.00  0.00    +0.000 C 
ENDBRANCH  32  33
ENDBRANCH  23  26
ENDBRANCH  21  22
ENDBRANCH  20  21
ENDBRANCH   4  20
TORSDOF 10
ENDMDL
MODEL 3
REMARK VINA RESULT:      -7.8      1.989      2.580
REMARK  Name = 
REMARK  13 active torsions:
REMARK  status: ('A' for Active; 'I' for Inactive)
REMARK    1  A    between atoms: C_1  and  C_2
REMARK    2  A    between atoms: C_2  and  O_3
REMARK    3  A    between atoms: O_3  and  C_4
REMARK    4  A    between atoms: C_7  and  C_8
REMARK    5  A    between atoms: C_8  and  C_9
REMARK    6  A    between atoms: C_9  and  N_10
REMARK    7  A    between atoms: C_11  and  C_13
REMARK    8  A    between atoms: C_19  and  O_20
REMARK    9  A    between atoms: O_20  and  C_21
REMARK   10  A    between atoms: C_23  and  S_24
REMARK   11  A    between atoms: S_24  and  N_27
REMARK   12  A    between atoms: C_28  and  S_29
REMARK   13  A    between atoms: N_30  and  C_31
REMARK                            x       y       z     vdW  Elec       q    Type
REMARK                         _______ _______ _______ _____ _____    ______ ____
ROOT
ATOM      1  C   UNL     1       3.033   4.884  19.971  0.00  0.00    +0.000 A 
ATOM      2  C   UNL     1       1.877   5.658  20.156  0.00  0.00    +0.000 A 
ATOM      3  C   UNL     1       1.664   6.828  19.424  0.00  0.00    +0.000 A 
ATOM      4  C   UNL     1       2.626   7.275  18.523  0.00  0.00    +0.000 A 
ATOM      5  C   UNL     1       3.819   6.554  18.405  0.00  0.00    +0.000 A 
ATOM      6  C   UNL     1       4.030   5.358  19.112  0.00  0.00    +0.000 A 
ENDROOT
BRANCH   6   7
ATOM      7  S   UNL     1       5.633   4.579  18.930  0.00  0.00    +0.000 S 
ATOM      8  O   UNL     1       6.568   5.424  19.661  0.00  0.00    +0.000 OA
ATOM      9  O   UNL     1       5.518   3.186  19.322  0.00  0.00    +0.000 OA
BRANCH   7  10
ATOM     10  N   UNL     1       5.994   4.670  17.356  0.00  0.00    +0.000 NA
ATOM     11  C   UNL     1       6.746   5.600  16.872  0.00  0.00    +0.000 C 
ATOM     12  N   UNL     1       7.087   5.671  15.540  0.00  0.00    +0.000 N 
ATOM     13  C   UNL     1       6.652   4.778  14.503  0.00  0.00    +0.000 C 
ATOM     14  H   UNL     1       7.580   6.509  15.255  0.00  0.00    +0.000 HD
BRANCH  11  15
ATOM     15  S   UNL     1       7.483   6.954  17.718  0.00  0.00    +0.000 S 
ATOM     16  H   UNL     1       6.487   7.844  17.597  0.00  0.00    +0.000 HD
ENDBRANCH  11  15
ENDBRANCH   7  10
ENDBRANCH   6   7
BRANCH   1  17
ATOM     17  O   UNL     1       3.190   3.684  20.601  0.00  0.00    +0.000 OA
BRANCH  17  19
ATOM     18  C   UNL     1       1.847   2.002  19.567  0.00  0.00    +0.000 C 
ATOM     19  C   UNL     1       1.981   2.930  20.753  0.00  0.00    +0.000 C 
ENDBRANCH  17  19
ENDBRANCH   1  17
BRANCH   4  20
ATOM     20  C   UNL     1       2.365   8.549  17.754  0.00  0.00    +0.000 C 
BRANCH  20  21
ATOM     21  C   UNL     1       1.667   9.631  18.572  0.00  0.00    +0.000 C 
BRANCH  21  22
ATOM     22  N   UNL     1       0.427  10.040  17.958  0.00  0.00    +0.000 N 
ATOM     23  C   UNL     1      -0.726  10.215  18.703  0.00  0.00    +0.000 C 
ATOM     24  O   UNL     1      -0.771  10.004  19.907  0.00  0.00    +0.000 OA
ATOM     25  H   UNL     1       0.440  10.241  16.968  0.00  0.00    +0.000 HD
BRANCH  23  26
ATOM     26  C   UNL     1      -1.919  10.649  17.932  0.00  0.00    +0.000 A 
ATOM     27  C   UNL     1      -2.012  10.153  16.611  0.00  0.00    +0.000 A 
ATOM     28  C   UNL     1      -3.081  10.497  15.790  0.00  0.00    +0.000 A 
ATOM     29 CL   UNL     1      -3.124   9.931  14.167  0.00  0.00    +0.000 Cl
ATOM     30  C   UNL     1      -4.100  11.297  16.278  0.00  0.00    +0.000 A 
ATOM     31  C   UNL     1      -4.044  11.751  17.598  0.00  0.00    +0.000 A 
ATOM     32  C   UNL     1      -2.956  11.450  18.438  0.00  0.00    +0.000 A 
BRANCH  32  33
ATOM     33  O   UNL     1      -3.131  11.966  19.692  0.00  0.00    +0.000 OA
ATOM     34  C   UNL     1      -4.291  12.736  19.970  0.00  0.00    +0.000 C 
ENDBRANCH  32  33
ENDBRANCH  23  26
ENDBRANCH  21  22
ENDBRANCH  20  21
ENDBRANCH   4  20
TORSDOF 10
ENDMDL
MODEL 4
REMARK VINA RESULT:      -7.5      2.241      3.304
REMARK  Name = 
REMARK  13 active torsions:
REMARK  status: ('A' for Active; 'I' for Inactive)
REMARK    1  A    between atoms: C_1  and  C_2
REMARK    2  A    between atoms: C_2  and  O_3
REMARK    3  A    between atoms: O_3  and  C_4
REMARK    4  A    between atoms: C_7  and  C_8
REMARK    5  A    between atoms: C_8  and  C_9
REMARK    6  A    between atoms: C_9  and  N_10
REMARK    7  A    between atoms: C_11  and  C_13
REMARK    8  A    between atoms: C_19  and  O_20
REMARK    9  A    between atoms: O_20  and  C_21
REMARK   10  A    between atoms: C_23  and  S_24
REMARK   11  A    between atoms: S_24  and  N_27
REMARK   12  A    between atoms: C_28  and  S_29
REMARK   13  A    between atoms: N_30  and  C_31
REMARK                            x       y       z     vdW  Elec       q    Type
REMARK                         _______ _______ _______ _____ _____    ______ ____
ROOT
ATOM      1  C   UNL     1       2.658   6.361  19.682  0.00  0.00    +0.000 A 
ATOM      2  C   UNL     1       1.860   7.204  20.470  0.00  0.00    +0.000 A 
ATOM      3  C   UNL     1       1.373   8.414  19.971  0.00  0.00    +0.000 A 
ATOM      4  C   UNL     1       1.713   8.830  18.688  0.00  0.00    +0.000 A 
ATOM      5  C   UNL     1       2.584   8.034  17.935  0.00  0.00    +0.000 A 
ATOM      6  C   UNL     1       3.054   6.799  18.414  0.00  0.00    +0.000 A 
ENDROOT
BRANCH   6   7
ATOM      7  S   UNL     1       4.226   5.921  17.383  0.00  0.00    +0.000 S 
ATOM      8  O   UNL     1       3.652   4.598  17.171  0.00  0.00    +0.000 OA
ATOM      9  O   UNL     1       4.519   6.736  16.217  0.00  0.00    +0.000 OA
BRANCH   7  10
ATOM     10  N   UNL     1       5.564   5.754  18.276  0.00  0.00    +0.000 NA
ATOM     11  C   UNL     1       6.644   5.221  17.811  0.00  0.00    +0.000 C 
ATOM     12  N   UNL     1       7.799   5.101  18.550  0.00  0.00    +0.000 N 
ATOM     13  C   UNL     1       7.978   5.502  19.917  0.00  0.00    +0.000 C 
ATOM     14  H   UNL     1       8.541   4.559  18.124  0.00  0.00    +0.000 HD
BRANCH  11  15
ATOM     15  S   UNL     1       6.916   4.530  16.217  0.00  0.00    +0.000 S 
ATOM     16  H   UNL     1       8.236   4.310  16.307  0.00  0.00    +0.000 HD
ENDBRANCH  11  15
ENDBRANCH   7  10
ENDBRANCH   6   7
BRANCH   1  17
ATOM     17  O   UNL     1       3.041   5.128  20.126  0.00  0.00    +0.000 OA
BRANCH  17  19
ATOM     18  C   UNL     1       1.247   3.562  20.303  0.00  0.00    +0.000 C 
ATOM     19  C   UNL     1       2.135   4.526  21.059  0.00  0.00    +0.000 C 
ENDBRANCH  17  19
ENDBRANCH   1  17
BRANCH   4  20
ATOM     20  C   UNL     1       1.174  10.148  18.184  0.00  0.00    +0.000 C 
BRANCH  20  21
ATOM     21  C   UNL     1       1.541  11.340  19.063  0.00  0.00    +0.000 C 
BRANCH  21  22
ATOM     22  N   UNL     1       0.562  11.551  20.102  0.00  0.00    +0.000 N 
ATOM     23  C   UNL     1      -0.713  12.004  19.813  0.00  0.00    +0.000 C 
ATOM     24  O   UNL     1      -1.073  12.283  18.678  0.00  0.00    +0.000 OA
ATOM     25  H   UNL     1       0.825  11.310  21.047  0.00  0.00    +0.000 HD
BRANCH  23  26
ATOM     26  C   UNL     1      -1.610  12.160  20.987  0.00  0.00    +0.000 A 
ATOM     27  C   UNL     1      -2.878  12.728  20.723  0.00  0.00    +0.000 A 
ATOM     28  C   UNL     1      -3.800  12.930  21.745  0.00  0.00    +0.000 A 
ATOM     29 CL   UNL     1      -5.303  13.689  21.397  0.00  0.00    +0.000 Cl
ATOM     30  C   UNL     1      -3.503  12.528  23.036  0.00  0.00    +0.000 A 
ATOM     31  C   UNL     1      -2.273  11.920  23.299  0.00  0.00    +0.000 A 
ATOM     32  C   UNL     1      -1.307  11.738  22.293  0.00  0.00    +0.000 A 
BRANCH  32  33
ATOM     33  O   UNL     1      -0.201  11.090  22.768  0.00  0.00    +0.000 OA
ATOM     34  C   UNL     1      -0.307   9.729  23.155  0.00  0.00    +0.000 C 
ENDBRANCH  32  33
ENDBRANCH  23  26
ENDBRANCH  21  22
ENDBRANCH  20  21
ENDBRANCH   4  20
TORSDOF 10
ENDMDL
MODEL 5
REMARK VINA RESULT:      -7.5      1.792      2.333
REMARK  Name = 
REMARK  13 active torsions:
REMARK  status: ('A' for Active; 'I' for Inactive)
REMARK    1  A    between atoms: C_1  and  C_2
REMARK    2  A    between atoms: C_2  and  O_3
REMARK    3  A    between atoms: O_3  and  C_4
REMARK    4  A    between atoms: C_7  and  C_8
REMARK    5  A    between atoms: C_8  and  C_9
REMARK    6  A    between atoms: C_9  and  N_10
REMARK    7  A    between atoms: C_11  and  C_13
REMARK    8  A    between atoms: C_19  and  O_20
REMARK    9  A    between atoms: O_20  and  C_21
REMARK   10  A    between atoms: C_23  and  S_24
REMARK   11  A    between atoms: S_24  and  N_27
REMARK   12  A    between atoms: C_28  and  S_29
REMARK   13  A    between atoms: N_30  and  C_31
REMARK                            x       y       z     vdW  Elec       q    Type
REMARK                         _______ _______ _______ _____ _____    ______ ____
ROOT
ATOM      1  C   UNL     1       2.657   4.112  19.790  0.00  0.00    +0.000 A 
ATOM      2  C   UNL     1       1.709   4.643  20.677  0.00  0.00    +0.000 A 
ATOM      3  C   UNL     1       1.438   6.013  20.713  0.00  0.00    +0.000 A 
ATOM      4  C   UNL     1       2.145   6.888  19.892  0.00  0.00    +0.000 A 
ATOM      5  C   UNL     1       3.154   6.370  19.074  0.00  0.00    +0.000 A 
ATOM      6  C   UNL     1       3.413   4.990  19.006  0.00  0.00    +0.000 A 
ENDROOT
BRANCH   6   7
ATOM      7  S   UNL     1       4.786   4.471  17.980  0.00  0.00    +0.000 S 
ATOM      8  O   UNL     1       5.493   3.456  18.749  0.00  0.00    +0.000 OA
ATOM      9  O   UNL     1       4.274   4.106  16.671  0.00  0.00    +0.000 OA
BRANCH   7  10
ATOM     10  N   UNL     1       5.750   5.762  17.842  0.00  0.00    +0.000 NA
ATOM     11  C   UNL     1       6.669   5.847  16.940  0.00  0.00    +0.000 C 
ATOM     12  N   UNL     1       7.474   6.953  16.792  0.00  0.00    +0.000 N 
ATOM     13  C   UNL     1       7.451   8.136  17.605  0.00  0.00    +0.000 C 
ATOM     14  H   UNL     1       8.237   6.858  16.132  0.00  0.00    +0.000 HD
BRANCH  11  15
ATOM     15  S   UNL     1       7.127   4.646  15.740  0.00  0.00    +0.000 S 
ATOM     16  H   UNL     1       6.736   5.296  14.634  0.00  0.00    +0.000 HD
ENDBRANCH  11  15
ENDBRANCH   7  10
ENDBRANCH   6   7
BRANCH   1  17
ATOM     17  O   UNL     1       2.842   2.765  19.674  0.00  0.00    +0.000 OA
BRANCH  17  19
ATOM     18  C   UNL     1       0.688   2.179  18.827  0.00  0.00    +0.000 C 
ATOM     19  C   UNL     1       2.176   2.168  18.554  0.00  0.00    +0.000 C 
ENDBRANCH  17  19
ENDBRANCH   1  17
BRANCH   4  20
ATOM     20  C   UNL     1       1.830   8.364  19.962  0.00  0.00    +0.000 C 
BRANCH  20  21
ATOM     21  C   UNL     1       1.453   8.848  21.359  0.00  0.00    +0.000 C 
BRANCH  21  22
ATOM     22  N   UNL     1       0.221   9.599  21.343  0.00  0.00    +0.000 N 
ATOM     23  C   UNL     1       0.216  10.982  21.380  0.00  0.00    +0.000 C 
ATOM     24  O   UNL     1       1.242  11.643  21.461  0.00  0.00    +0.000 OA
ATOM     25  H   UNL     1      -0.641   9.079  21.257  0.00  0.00    +0.000 HD
BRANCH  23  26
ATOM     26  C   UNL     1      -1.129  11.611  21.345  0.00  0.00    +0.000 A 
ATOM     27  C   UNL     1      -1.764  11.779  22.598  0.00  0.00    +0.000 A 
ATOM     28  C   UNL     1      -3.029  12.350  22.690  0.00  0.00    +0.000 A 
ATOM     29 CL   UNL     1      -3.797  12.472  24.223  0.00  0.00    +0.000 Cl
ATOM     30  C   UNL     1      -3.666  12.810  21.550  0.00  0.00    +0.000 A 
ATOM     31  C   UNL     1      -3.027  12.696  20.313  0.00  0.00    +0.000 A 
ATOM     32  C   UNL     1      -1.765  12.088  20.186  0.00  0.00    +0.000 A 
BRANCH  32  33
ATOM     33  O   UNL     1      -1.318  12.121  18.894  0.00  0.00    +0.000 OA
ATOM     34  C   UNL     1      -2.185  11.705  17.850  0.00  0.00    +0.000 C 
ENDBRANCH  32  33
ENDBRANCH  23  26
ENDBRANCH  21  22
ENDBRANCH  20  21
ENDBRANCH   4  20
TORSDOF 10
ENDMDL
MODEL 6
REMARK VINA RESULT:      -7.3      4.366      9.622
REMARK  Name = 
REMARK  13 active torsions:
REMARK  status: ('A' for Active; 'I' for Inactive)
REMARK    1  A    between atoms: C_1  and  C_2
REMARK    2  A    between atoms: C_2  and  O_3
REMARK    3  A    between atoms: O_3  and  C_4
REMARK    4  A    between atoms: C_7  and  C_8
REMARK    5  A    between atoms: C_8  and  C_9
REMARK    6  A    between atoms: C_9  and  N_10
REMARK    7  A    between atoms: C_11  and  C_13
REMARK    8  A    between atoms: C_19  and  O_20
REMARK    9  A    between atoms: O_20  and  C_21
REMARK   10  A    between atoms: C_23  and  S_24
REMARK   11  A    between atoms: S_24  and  N_27
REMARK   12  A    between atoms: C_28  and  S_29
REMARK   13  A    between atoms: N_30  and  C_31
REMARK                            x       y       z     vdW  Elec       q    Type
REMARK                         _______ _______ _______ _____ _____    ______ ____
ROOT
ATOM      1  C   UNL     1       1.409   9.631  18.983  0.00  0.00    +0.000 A 
ATOM      2  C   UNL     1       2.057   8.621  18.254  0.00  0.00    +0.000 A 
ATOM      3  C   UNL     1       2.255   7.350  18.797  0.00  0.00    +0.000 A 
ATOM      4  C   UNL     1       1.849   7.073  20.100  0.00  0.00    +0.000 A 
ATOM      5  C   UNL     1       1.287   8.105  20.859  0.00  0.00    +0.000 A 
ATOM      6  C   UNL     1       1.054   9.379  20.313  0.00  0.00    +0.000 A 
ENDROOT
BRANCH   6   7
ATOM      7  S   UNL     1       0.404  10.630  21.418  0.00  0.00    +0.000 S 
ATOM      8  O   UNL     1       0.039   9.926  22.640  0.00  0.00    +0.000 OA
ATOM      9  O   UNL     1       1.367  11.712  21.511  0.00  0.00    +0.000 OA
BRANCH   7  10
ATOM     10  N   UNL     1      -0.953  11.172  20.725  0.00  0.00    +0.000 NA
ATOM     11  C   UNL     1      -1.646  12.140  21.224  0.00  0.00    +0.000 C 
ATOM     12  N   UNL     1      -2.784  12.632  20.628  0.00  0.00    +0.000 N 
ATOM     13  C   UNL     1      -3.387  12.148  19.418  0.00  0.00    +0.000 C 
ATOM     14  H   UNL     1      -3.310  13.308  21.170  0.00  0.00    +0.000 HD
BRANCH  11  15
ATOM     15  S   UNL     1      -1.356  13.029  22.713  0.00  0.00    +0.000 S 
ATOM     16  H   UNL     1      -0.937  12.015  23.484  0.00  0.00    +0.000 HD
ENDBRANCH  11  15
ENDBRANCH   7  10
ENDBRANCH   6   7
BRANCH   1  17
ATOM     17  O   UNL     1       1.115  10.836  18.417  0.00  0.00    +0.000 OA
BRANCH  17  19
ATOM     18  C   UNL     1       1.989  13.058  18.445  0.00  0.00    +0.000 C 
ATOM     19  C   UNL     1       2.260  11.621  18.061  0.00  0.00    +0.000 C 
ENDBRANCH  17  19
ENDBRANCH   1  17
BRANCH   4  20
ATOM     20  C   UNL     1       2.086   5.689  20.656  0.00  0.00    +0.000 C 
BRANCH  20  21
ATOM     21  C   UNL     1       2.240   4.612  19.586  0.00  0.00    +0.000 C 
BRANCH  21  22
ATOM     22  N   UNL     1       3.381   4.869  18.740  0.00  0.00    +0.000 N 
ATOM     23  C   UNL     1       3.923   3.880  17.938  0.00  0.00    +0.000 C 
ATOM     24  O   UNL     1       3.494   2.735  17.921  0.00  0.00    +0.000 OA
ATOM     25  H   UNL     1       3.744   5.811  18.719  0.00  0.00    +0.000 HD
BRANCH  23  26
ATOM     26  C   UNL     1       5.087   4.299  17.116  0.00  0.00    +0.000 A 
ATOM     27  C   UNL     1       5.056   3.907  15.758  0.00  0.00    +0.000 A 
ATOM     28  C   UNL     1       6.095   4.235  14.893  0.00  0.00    +0.000 A 
ATOM     29 CL   UNL     1       6.055   3.680  13.266  0.00  0.00    +0.000 Cl
ATOM     30  C   UNL     1       7.157   5.000  15.345  0.00  0.00    +0.000 A 
ATOM     31  C   UNL     1       7.173   5.436  16.671  0.00  0.00    +0.000 A 
ATOM     32  C   UNL     1       6.156   5.086  17.578  0.00  0.00    +0.000 A 
BRANCH  32  33
ATOM     33  O   UNL     1       6.358   5.653  18.805  0.00  0.00    +0.000 OA
ATOM     34  C   UNL     1       7.663   5.647  19.365  0.00  0.00    +0.000 C 
ENDBRANCH  32  33
ENDBRANCH  23  26
ENDBRANCH  21  22
ENDBRANCH  20  21
ENDBRANCH   4  20
TORSDOF 10
ENDMDL
MODEL 7
REMARK VINA RESULT:      -7.2      2.184      2.805
REMARK  Name = 
REMARK  13 active torsions:
REMARK  status: ('A' for Active; 'I' for Inactive)
REMARK    1  A    between atoms: C_1  and  C_2
REMARK    2  A    between atoms: C_2  and  O_3
REMARK    3  A    between atoms: O_3  and  C_4
REMARK    4  A    between atoms: C_7  and  C_8
REMARK    5  A    between atoms: C_8  and  C_9
REMARK    6  A    between atoms: C_9  and  N_10
REMARK    7  A    between atoms: C_11  and  C_13
REMARK    8  A    between atoms: C_19  and  O_20
REMARK    9  A    between atoms: O_20  and  C_21
REMARK   10  A    between atoms: C_23  and  S_24
REMARK   11  A    between atoms: S_24  and  N_27
REMARK   12  A    between atoms: C_28  and  S_29
REMARK   13  A    between atoms: N_30  and  C_31
REMARK                            x       y       z     vdW  Elec       q    Type
REMARK                         _______ _______ _______ _____ _____    ______ ____
ROOT
ATOM      1  C   UNL     1       2.765   3.967  19.933  0.00  0.00    +0.000 A 
ATOM      2  C   UNL     1       1.807   4.502  20.808  0.00  0.00    +0.000 A 
ATOM      3  C   UNL     1       1.498   5.864  20.799  0.00  0.00    +0.000 A 
ATOM      4  C   UNL     1       2.174   6.729  19.944  0.00  0.00    +0.000 A 
ATOM      5  C   UNL     1       3.194   6.212  19.137  0.00  0.00    +0.000 A 
ATOM      6  C   UNL     1       3.491   4.838  19.115  0.00  0.00    +0.000 A 
ENDROOT
BRANCH   6   7
ATOM      7  S   UNL     1       4.872   4.323  18.097  0.00  0.00    +0.000 S 
ATOM      8  O   UNL     1       5.611   3.354  18.896  0.00  0.00    +0.000 OA
ATOM      9  O   UNL     1       4.363   3.900  16.805  0.00  0.00    +0.000 OA
BRANCH   7  10
ATOM     10  N   UNL     1       5.799   5.635  17.911  0.00  0.00    +0.000 NA
ATOM     11  C   UNL     1       6.663   5.742  16.958  0.00  0.00    +0.000 C 
ATOM     12  N   UNL     1       7.436   6.865  16.769  0.00  0.00    +0.000 N 
ATOM     13  C   UNL     1       7.433   8.045  17.587  0.00  0.00    +0.000 C 
ATOM     14  H   UNL     1       8.162   6.788  16.067  0.00  0.00    +0.000 HD
BRANCH  11  15
ATOM     15  S   UNL     1       7.079   4.554  15.730  0.00  0.00    +0.000 S 
ATOM     16  H   UNL     1       6.872   3.436  16.441  0.00  0.00    +0.000 HD
ENDBRANCH  11  15
ENDBRANCH   7  10
ENDBRANCH   6   7
BRANCH   1  17
ATOM     17  O   UNL     1       2.987   2.623  19.862  0.00  0.00    +0.000 OA
BRANCH  17  19
ATOM     18  C   UNL     1       0.878   2.321  18.785  0.00  0.00    +0.000 C 
ATOM     19  C   UNL     1       2.350   1.973  18.755  0.00  0.00    +0.000 C 
ENDBRANCH  17  19
ENDBRANCH   1  17
BRANCH   4  20
ATOM     20  C   UNL     1       1.818   8.197  19.966  0.00  0.00    +0.000 C 
BRANCH  20  21
ATOM     21  C   UNL     1       1.350   8.698  21.328  0.00  0.00    +0.000 C 
BRANCH  21  22
ATOM     22  N   UNL     1       0.655   9.958  21.218  0.00  0.00    +0.000 N 
ATOM     23  C   UNL     1      -0.365  10.300  22.088  0.00  0.00    +0.000 C 
ATOM     24  O   UNL     1      -0.756   9.551  22.972  0.00  0.00    +0.000 OA
ATOM     25  H   UNL     1       0.970  10.604  20.508  0.00  0.00    +0.000 HD
BRANCH  23  26
ATOM     26  C   UNL     1      -0.976  11.634  21.854  0.00  0.00    +0.000 A 
ATOM     27  C   UNL     1      -1.315  12.368  23.014  0.00  0.00    +0.000 A 
ATOM     28  C   UNL     1      -1.899  13.627  22.920  0.00  0.00    +0.000 A 
ATOM     29 CL   UNL     1      -2.362  14.459  24.351  0.00  0.00    +0.000 Cl
ATOM     30  C   UNL     1      -2.113  14.201  21.678  0.00  0.00    +0.000 A 
ATOM     31  C   UNL     1      -1.735  13.506  20.527  0.00  0.00    +0.000 A 
ATOM     32  C   UNL     1      -1.177  12.216  20.591  0.00  0.00    +0.000 A 
BRANCH  32  33
ATOM     33  O   UNL     1      -0.852  11.746  19.349  0.00  0.00    +0.000 OA
ATOM     34  C   UNL     1      -1.786  10.942  18.646  0.00  0.00    +0.000 C 
ENDBRANCH  32  33
ENDBRANCH  23  26
ENDBRANCH  21  22
ENDBRANCH  20  21
ENDBRANCH   4  20
TORSDOF 10
ENDMDL
MODEL 8
REMARK VINA RESULT:      -7.2      2.993      3.806
REMARK  Name = 
REMARK  13 active torsions:
REMARK  status: ('A' for Active; 'I' for Inactive)
REMARK    1  A    between atoms: C_1  and  C_2
REMARK    2  A    between atoms: C_2  and  O_3
REMARK    3  A    between atoms: O_3  and  C_4
REMARK    4  A    between atoms: C_7  and  C_8
REMARK    5  A    between atoms: C_8  and  C_9
REMARK    6  A    between atoms: C_9  and  N_10
REMARK    7  A    between atoms: C_11  and  C_13
REMARK    8  A    between atoms: C_19  and  O_20
REMARK    9  A    between atoms: O_20  and  C_21
REMARK   10  A    between atoms: C_23  and  S_24
REMARK   11  A    between atoms: S_24  and  N_27
REMARK   12  A    between atoms: C_28  and  S_29
REMARK   13  A    between atoms: N_30  and  C_31
REMARK                            x       y       z     vdW  Elec       q    Type
REMARK                         _______ _______ _______ _____ _____    ______ ____
ROOT
ATOM      1  C   UNL     1       2.685   4.482  19.898  0.00  0.00    +0.000 A 
ATOM      2  C   UNL     1       1.742   5.095  20.738  0.00  0.00    +0.000 A 
ATOM      3  C   UNL     1       1.460   6.459  20.634  0.00  0.00    +0.000 A 
ATOM      4  C   UNL     1       2.147   7.249  19.718  0.00  0.00    +0.000 A 
ATOM      5  C   UNL     1       3.151   6.657  18.944  0.00  0.00    +0.000 A 
ATOM      6  C   UNL     1       3.422   5.280  19.017  0.00  0.00    +0.000 A 
ENDROOT
BRANCH   6   7
ATOM      7  S   UNL     1       4.787   4.668  18.032  0.00  0.00    +0.000 S 
ATOM      8  O   UNL     1       5.443   3.656  18.850  0.00  0.00    +0.000 OA
ATOM      9  O   UNL     1       4.278   4.273  16.731  0.00  0.00    +0.000 OA
BRANCH   7  10
ATOM     10  N   UNL     1       5.803   5.914  17.860  0.00  0.00    +0.000 NA
ATOM     11  C   UNL     1       6.700   5.953  16.933  0.00  0.00    +0.000 C 
ATOM     12  N   UNL     1       7.550   7.020  16.756  0.00  0.00    +0.000 N 
ATOM     13  C   UNL     1       7.602   8.207  17.562  0.00  0.00    +0.000 C 
ATOM     14  H   UNL     1       8.290   6.888  16.077  0.00  0.00    +0.000 HD
BRANCH  11  15
ATOM     15  S   UNL     1       7.072   4.726  15.729  0.00  0.00    +0.000 S 
ATOM     16  H   UNL     1       8.234   5.221  15.278  0.00  0.00    +0.000 HD
ENDBRANCH  11  15
ENDBRANCH   7  10
ENDBRANCH   6   7
BRANCH   1  17
ATOM     17  O   UNL     1       2.881   3.132  19.920  0.00  0.00    +0.000 OA
BRANCH  17  19
ATOM     18  C   UNL     1       1.017   2.390  18.626  0.00  0.00    +0.000 C 
ATOM     19  C   UNL     1       1.677   2.358  19.987  0.00  0.00    +0.000 C 
ENDBRANCH  17  19
ENDBRANCH   1  17
BRANCH   4  20
ATOM     20  C   UNL     1       1.819   8.722  19.638  0.00  0.00    +0.000 C 
BRANCH  20  21
ATOM     21  C   UNL     1       1.711   9.253  18.213  0.00  0.00    +0.000 C 
BRANCH  21  22
ATOM     22  N   UNL     1       1.971  10.671  18.157  0.00  0.00    +0.000 N 
ATOM     23  C   UNL     1       1.149  11.582  18.798  0.00  0.00    +0.000 C 
ATOM     24  O   UNL     1       0.148  11.248  19.415  0.00  0.00    +0.000 OA
ATOM     25  H   UNL     1       2.802  10.976  17.671  0.00  0.00    +0.000 HD
BRANCH  23  26
ATOM     26  C   UNL     1       1.552  13.005  18.658  0.00  0.00    +0.000 A 
ATOM     27  C   UNL     1       2.901  13.231  18.298  0.00  0.00    +0.000 A 
ATOM     28  C   UNL     1       3.395  14.523  18.145  0.00  0.00    +0.000 A 
ATOM     29 CL   UNL     1       5.058  14.759  17.776  0.00  0.00    +0.000 Cl
ATOM     30  C   UNL     1       2.552  15.610  18.298  0.00  0.00    +0.000 A 
ATOM     31  C   UNL     1       1.206  15.397  18.604  0.00  0.00    +0.000 A 
ATOM     32  C   UNL     1       0.688  14.104  18.802  0.00  0.00    +0.000 A 
BRANCH  32  33
ATOM     33  O   UNL     1      -0.656  14.133  19.054  0.00  0.00    +0.000 OA
ATOM     34  C   UNL     1      -1.109  14.446  20.362  0.00  0.00    +0.000 C 
ENDBRANCH  32  33
ENDBRANCH  23  26
ENDBRANCH  21  22
ENDBRANCH  20  21
ENDBRANCH   4  20
TORSDOF 10
ENDMDL
MODEL 9
REMARK VINA RESULT:      -7.2      2.118      2.723
REMARK  Name = 
REMARK  13 active torsions:
REMARK  status: ('A' for Active; 'I' for Inactive)
REMARK    1  A    between atoms: C_1  and  C_2
REMARK    2  A    between atoms: C_2  and  O_3
REMARK    3  A    between atoms: O_3  and  C_4
REMARK    4  A    between atoms: C_7  and  C_8
REMARK    5  A    between atoms: C_8  and  C_9
REMARK    6  A    between atoms: C_9  and  N_10
REMARK    7  A    between atoms: C_11  and  C_13
REMARK    8  A    between atoms: C_19  and  O_20
REMARK    9  A    between atoms: O_20  and  C_21
REMARK   10  A    between atoms: C_23  and  S_24
REMARK   11  A    between atoms: S_24  and  N_27
REMARK   12  A    between atoms: C_28  and  S_29
REMARK   13  A    between atoms: N_30  and  C_31
REMARK                            x       y       z     vdW  Elec       q    Type
REMARK                         _______ _______ _______ _____ _____    ______ ____
ROOT
ATOM      1  C   UNL     1       2.935   5.087  20.141  0.00  0.00    +0.000 A 
ATOM      2  C   UNL     1       1.813   5.910  20.327  0.00  0.00    +0.000 A 
ATOM      3  C   UNL     1       1.613   7.049  19.544  0.00  0.00    +0.000 A 
ATOM      4  C   UNL     1       2.555   7.415  18.587  0.00  0.00    +0.000 A 
ATOM      5  C   UNL     1       3.718   6.647  18.464  0.00  0.00    +0.000 A 
ATOM      6  C   UNL     1       3.915   5.482  19.224  0.00  0.00    +0.000 A 
ENDROOT
BRANCH   6   7
ATOM      7  S   UNL     1       5.483   4.639  19.026  0.00  0.00    +0.000 S 
ATOM      8  O   UNL     1       6.466   5.466  19.713  0.00  0.00    +0.000 OA
ATOM      9  O   UNL     1       5.326   3.261  19.455  0.00  0.00    +0.000 OA
BRANCH   7  10
ATOM     10  N   UNL     1       5.810   4.678  17.443  0.00  0.00    +0.000 NA
ATOM     11  C   UNL     1       5.043   4.127  16.563  0.00  0.00    +0.000 C 
ATOM     12  N   UNL     1       5.293   4.180  15.211  0.00  0.00    +0.000 N 
ATOM     13  C   UNL     1       6.421   4.804  14.579  0.00  0.00    +0.000 C 
ATOM     14  H   UNL     1       4.691   3.610  14.629  0.00  0.00    +0.000 HD
BRANCH  11  15
ATOM     15  S   UNL     1       3.573   3.200  16.833  0.00  0.00    +0.000 S 
ATOM     16  H   UNL     1       3.046   3.282  15.602  0.00  0.00    +0.000 HD
ENDBRANCH  11  15
ENDBRANCH   7  10
ENDBRANCH   6   7
BRANCH   1  17
ATOM     17  O   UNL     1       3.077   3.916  20.826  0.00  0.00    +0.000 OA
BRANCH  17  19
ATOM     18  C   UNL     1       1.448   2.501  21.849  0.00  0.00    +0.000 C 
ATOM     19  C   UNL     1       2.070   2.937  20.541  0.00  0.00    +0.000 C 
ENDBRANCH  17  19
ENDBRANCH   1  17
BRANCH   4  20
ATOM     20  C   UNL     1       2.307   8.657  17.762  0.00  0.00    +0.000 C 
BRANCH  20  21
ATOM     21  C   UNL     1       1.680   9.804  18.548  0.00  0.00    +0.000 C 
BRANCH  21  22
ATOM     22  N   UNL     1       0.298  10.002  18.181  0.00  0.00    +0.000 N 
ATOM     23  C   UNL     1      -0.364  11.182  18.469  0.00  0.00    +0.000 C 
ATOM     24  O   UNL     1       0.163  12.104  19.073  0.00  0.00    +0.000 OA
ATOM     25  H   UNL     1      -0.157   9.264  17.662  0.00  0.00    +0.000 HD
BRANCH  23  26
ATOM     26  C   UNL     1      -1.779  11.240  18.017  0.00  0.00    +0.000 A 
ATOM     27  C   UNL     1      -2.029  10.755  16.712  0.00  0.00    +0.000 A 
ATOM     28  C   UNL     1      -3.313  10.766  16.178  0.00  0.00    +0.000 A 
ATOM     29 CL   UNL     1      -3.567  10.235  14.562  0.00  0.00    +0.000 Cl
ATOM     30  C   UNL     1      -4.378  11.210  16.943  0.00  0.00    +0.000 A 
ATOM     31  C   UNL     1      -4.150  11.643  18.251  0.00  0.00    +0.000 A 
ATOM     32  C   UNL     1      -2.857  11.679  18.803  0.00  0.00    +0.000 A 
BRANCH  32  33
ATOM     33  O   UNL     1      -2.877  12.101  20.104  0.00  0.00    +0.000 OA
ATOM     34  C   UNL     1      -2.745  13.486  20.385  0.00  0.00    +0.000 C 
ENDBRANCH  32  33
ENDBRANCH  23  26
ENDBRANCH  21  22
ENDBRANCH  20  21
ENDBRANCH   4  20
TORSDOF 10
ENDMDL
