MODEL 1
REMARK VINA RESULT:      -7.9      0.000      0.000
REMARK  Name = 
REMARK  3 active torsions:
REMARK  status: ('A' for Active; 'I' for Inactive)
REMARK    1  A    between atoms: S_2  and  N_4
REMARK    2  A    between atoms: S_2  and  C_14
REMARK    3  A    between atoms: N_4  and  C_5
REMARK                            x       y       z     vdW  Elec       q    Type
REMARK                         _______ _______ _______ _____ _____    ______ ____
ROOT
ATOM      1  O   UNL     1       2.957   4.405  20.622  0.00  0.00    +0.000 OA
ATOM      2  S   UNL     1       2.578   4.256  19.230  0.00  0.00    +0.000 S 
ATOM      3  O   UNL     1       1.722   3.185  18.795  0.00  0.00    +0.000 OA
ENDROOT
BRANCH   2   4
ATOM      4  C   UNL     1       4.078   4.196  18.285  0.00  0.00    +0.000 A 
ATOM      5  C   UNL     1       5.288   4.431  18.949  0.00  0.00    +0.000 A 
ATOM      6  C   UNL     1       6.456   4.585  18.202  0.00  0.00    +0.000 A 
ATOM      7  C   UNL     1       6.401   4.492  16.815  0.00  0.00    +0.000 A 
ATOM      8  C   UNL     1       5.196   4.189  16.165  0.00  0.00    +0.000 A 
ATOM      9  C   UNL     1       4.022   4.047  16.899  0.00  0.00    +0.000 A 
ATOM     10  O   UNL     1       5.089   4.071  14.803  0.00  0.00    +0.000 OA
ATOM     11  C   UNL     1       6.375   3.977  14.178  0.00  0.00    +0.000 C 
ATOM     12  C   UNL     1       7.333   5.003  14.761  0.00  0.00    +0.000 C 
ATOM     13  O   UNL     1       7.575   4.731  16.146  0.00  0.00    +0.000 OA
ENDBRANCH   2   4
BRANCH   2  14
ATOM     14  N   UNL     1       1.938   5.741  18.730  0.00  0.00    +0.000 NA
ATOM     15  H   UNL     1       0.932   5.793  18.892  0.00  0.00    +0.000 HD
BRANCH  14  16
ATOM     16  C   UNL     1       2.694   6.987  19.012  0.00  0.00    +0.000 C 
ATOM     17  C   UNL     1       3.118   7.777  17.755  0.00  0.00    +0.000 C 
ATOM     18  O   UNL     1       2.157   8.820  17.483  0.00  0.00    +0.000 OA
ATOM     19  C   UNL     1       1.533   9.004  18.686  0.00  0.00    +0.000 A 
ATOM     20  C   UNL     1       0.634  10.022  18.926  0.00  0.00    +0.000 A 
ATOM     21  C   UNL     1       0.049  10.089  20.189  0.00  0.00    +0.000 A 
ATOM     22  C   UNL     1       0.404   9.164  21.184  0.00  0.00    +0.000 A 
ATOM     23  C   UNL     1       1.312   8.130  20.913  0.00  0.00    +0.000 A 
ATOM     24  C   UNL     1       1.841   8.042  19.636  0.00  0.00    +0.000 A 
ENDBRANCH  14  16
ENDBRANCH   2  14
TORSDOF 3
ENDMDL
MODEL 2
REMARK VINA RESULT:      -7.8      1.718      5.983
REMARK  Name = 
REMARK  3 active torsions:
REMARK  status: ('A' for Active; 'I' for Inactive)
REMARK    1  A    between atoms: S_2  and  N_4
REMARK    2  A    between atoms: S_2  and  C_14
REMARK    3  A    between atoms: N_4  and  C_5
REMARK                            x       y       z     vdW  Elec       q    Type
REMARK                         _______ _______ _______ _____ _____    ______ ____
ROOT
ATOM      1  O   UNL     1       1.840   3.191  17.170  0.00  0.00    +0.000 OA
ATOM      2  S   UNL     1       3.108   3.658  17.698  0.00  0.00    +0.000 S 
ATOM      3  O   UNL     1       3.908   2.839  18.569  0.00  0.00    +0.000 OA
ENDROOT
BRANCH   2   4
ATOM      4  C   UNL     1       2.796   5.205  18.509  0.00  0.00    +0.000 A 
ATOM      5  C   UNL     1       2.496   5.187  19.876  0.00  0.00    +0.000 A 
ATOM      6  C   UNL     1       2.056   6.357  20.492  0.00  0.00    +0.000 A 
ATOM      7  C   UNL     1       1.931   7.523  19.742  0.00  0.00    +0.000 A 
ATOM      8  C   UNL     1       2.298   7.547  18.389  0.00  0.00    +0.000 A 
ATOM      9  C   UNL     1       2.726   6.381  17.761  0.00  0.00    +0.000 A 
ATOM     10  O   UNL     1       2.209   8.671  17.609  0.00  0.00    +0.000 OA
ATOM     11  C   UNL     1       2.012   9.849  18.400  0.00  0.00    +0.000 C 
ATOM     12  C   UNL     1       0.965   9.607  19.475  0.00  0.00    +0.000 C 
ATOM     13  O   UNL     1       1.419   8.613  20.400  0.00  0.00    +0.000 OA
ENDBRANCH   2   4
BRANCH   2  14
ATOM     14  N   UNL     1       4.036   4.167  16.375  0.00  0.00    +0.000 NA
ATOM     15  H   UNL     1       3.794   5.114  16.086  0.00  0.00    +0.000 HD
BRANCH  14  16
ATOM     16  C   UNL     1       5.483   3.839  16.338  0.00  0.00    +0.000 C 
ATOM     17  C   UNL     1       6.187   4.197  15.012  0.00  0.00    +0.000 C 
ATOM     18  O   UNL     1       6.824   5.488  15.127  0.00  0.00    +0.000 OA
ATOM     19  C   UNL     1       6.965   5.658  16.477  0.00  0.00    +0.000 A 
ATOM     20  C   UNL     1       7.669   6.701  17.040  0.00  0.00    +0.000 A 
ATOM     21  C   UNL     1       7.720   6.775  18.431  0.00  0.00    +0.000 A 
ATOM     22  C   UNL     1       7.100   5.789  19.217  0.00  0.00    +0.000 A 
ATOM     23  C   UNL     1       6.380   4.744  18.621  0.00  0.00    +0.000 A 
ATOM     24  C   UNL     1       6.290   4.716  17.239  0.00  0.00    +0.000 A 
ENDBRANCH  14  16
ENDBRANCH   2  14
TORSDOF 3
ENDMDL
MODEL 3
REMARK VINA RESULT:      -7.7      1.542      6.383
REMARK  Name = 
REMARK  3 active torsions:
REMARK  status: ('A' for Active; 'I' for Inactive)
REMARK    1  A    between atoms: S_2  and  N_4
REMARK    2  A    between atoms: S_2  and  C_14
REMARK    3  A    between atoms: N_4  and  C_5
REMARK                            x       y       z     vdW  Elec       q    Type
REMARK                         _______ _______ _______ _____ _____    ______ ____
ROOT
ATOM      1  O   UNL     1       2.086   4.030  17.440  0.00  0.00    +0.000 OA
ATOM      2  S   UNL     1       2.413   4.187  18.845  0.00  0.00    +0.000 S 
ATOM      3  O   UNL     1       1.753   3.413  19.861  0.00  0.00    +0.000 OA
ENDROOT
BRANCH   2   4
ATOM      4  C   UNL     1       2.222   5.907  19.234  0.00  0.00    +0.000 A 
ATOM      5  C   UNL     1       1.829   6.253  20.531  0.00  0.00    +0.000 A 
ATOM      6  C   UNL     1       1.482   7.575  20.809  0.00  0.00    +0.000 A 
ATOM      7  C   UNL     1       1.543   8.527  19.796  0.00  0.00    +0.000 A 
ATOM      8  C   UNL     1       2.002   8.184  18.517  0.00  0.00    +0.000 A 
ATOM      9  C   UNL     1       2.338   6.866  18.225  0.00  0.00    +0.000 A 
ATOM     10  O   UNL     1       2.095   9.086  17.488  0.00  0.00    +0.000 OA
ATOM     11  C   UNL     1       1.978  10.435  17.955  0.00  0.00    +0.000 C 
ATOM     12  C   UNL     1       0.839  10.563  18.953  0.00  0.00    +0.000 C 
ATOM     13  O   UNL     1       1.113   9.788  20.126  0.00  0.00    +0.000 OA
ENDBRANCH   2   4
BRANCH   2  14
ATOM     14  N   UNL     1       4.091   4.007  18.985  0.00  0.00    +0.000 NA
ATOM     15  H   UNL     1       4.406   3.108  18.618  0.00  0.00    +0.000 HD
BRANCH  14  16
ATOM     16  C   UNL     1       4.971   5.162  18.682  0.00  0.00    +0.000 C 
ATOM     17  C   UNL     1       6.326   5.147  19.421  0.00  0.00    +0.000 C 
ATOM     18  O   UNL     1       7.344   4.577  18.570  0.00  0.00    +0.000 OA
ATOM     19  C   UNL     1       6.829   4.723  17.311  0.00  0.00    +0.000 A 
ATOM     20  C   UNL     1       7.543   4.446  16.164  0.00  0.00    +0.000 A 
ATOM     21  C   UNL     1       6.897   4.615  14.941  0.00  0.00    +0.000 A 
ATOM     22  C   UNL     1       5.575   5.087  14.895  0.00  0.00    +0.000 A 
ATOM     23  C   UNL     1       4.866   5.351  16.076  0.00  0.00    +0.000 A 
ATOM     24  C   UNL     1       5.502   5.124  17.286  0.00  0.00    +0.000 A 
ENDBRANCH  14  16
ENDBRANCH   2  14
TORSDOF 3
ENDMDL
MODEL 4
REMARK VINA RESULT:      -7.6      3.113      4.428
REMARK  Name = 
REMARK  3 active torsions:
REMARK  status: ('A' for Active; 'I' for Inactive)
REMARK    1  A    between atoms: S_2  and  N_4
REMARK    2  A    between atoms: S_2  and  C_14
REMARK    3  A    between atoms: N_4  and  C_5
REMARK                            x       y       z     vdW  Elec       q    Type
REMARK                         _______ _______ _______ _____ _____    ______ ____
ROOT
ATOM      1  O   UNL     1       6.646   6.419  18.564  0.00  0.00    +0.000 OA
ATOM      2  S   UNL     1       6.876   5.016  18.275  0.00  0.00    +0.000 S 
ATOM      3  O   UNL     1       8.130   4.381  18.579  0.00  0.00    +0.000 OA
ENDROOT
BRANCH   2   4
ATOM      4  C   UNL     1       6.526   4.776  16.552  0.00  0.00    +0.000 A 
ATOM      5  C   UNL     1       5.464   3.934  16.203  0.00  0.00    +0.000 A 
ATOM      6  C   UNL     1       5.291   3.574  14.867  0.00  0.00    +0.000 A 
ATOM      7  C   UNL     1       6.169   4.065  13.904  0.00  0.00    +0.000 A 
ATOM      8  C   UNL     1       7.188   4.961  14.255  0.00  0.00    +0.000 A 
ATOM      9  C   UNL     1       7.378   5.317  15.587  0.00  0.00    +0.000 A 
ATOM     10  O   UNL     1       8.070   5.486  13.346  0.00  0.00    +0.000 OA
ATOM     11  C   UNL     1       7.633   5.267  11.999  0.00  0.00    +0.000 C 
ATOM     12  C   UNL     1       7.141   3.840  11.818  0.00  0.00    +0.000 C 
ATOM     13  O   UNL     1       5.982   3.605  12.625  0.00  0.00    +0.000 OA
ENDBRANCH   2   4
BRANCH   2  14
ATOM     14  N   UNL     1       5.606   4.150  18.987  0.00  0.00    +0.000 NA
ATOM     15  H   UNL     1       5.950   3.384  19.566  0.00  0.00    +0.000 HD
BRANCH  14  16
ATOM     16  C   UNL     1       4.444   4.891  19.536  0.00  0.00    +0.000 C 
ATOM     17  C   UNL     1       3.893   5.997  18.611  0.00  0.00    +0.000 C 
ATOM     18  O   UNL     1       2.780   5.487  17.845  0.00  0.00    +0.000 OA
ATOM     19  C   UNL     1       2.355   4.410  18.574  0.00  0.00    +0.000 A 
ATOM     20  C   UNL     1       1.206   3.705  18.284  0.00  0.00    +0.000 A 
ATOM     21  C   UNL     1       0.893   2.613  19.090  0.00  0.00    +0.000 A 
ATOM     22  C   UNL     1       1.713   2.277  20.180  0.00  0.00    +0.000 A 
ATOM     23  C   UNL     1       2.883   3.002  20.447  0.00  0.00    +0.000 A 
ATOM     24  C   UNL     1       3.211   4.050  19.603  0.00  0.00    +0.000 A 
ENDBRANCH  14  16
ENDBRANCH   2  14
TORSDOF 3
ENDMDL
MODEL 5
REMARK VINA RESULT:      -7.6      1.877      2.948
REMARK  Name = 
REMARK  3 active torsions:
REMARK  status: ('A' for Active; 'I' for Inactive)
REMARK    1  A    between atoms: S_2  and  N_4
REMARK    2  A    between atoms: S_2  and  C_14
REMARK    3  A    between atoms: N_4  and  C_5
REMARK                            x       y       z     vdW  Elec       q    Type
REMARK                         _______ _______ _______ _____ _____    ______ ____
ROOT
ATOM      1  O   UNL     1       7.154   5.169  19.345  0.00  0.00    +0.000 OA
ATOM      2  S   UNL     1       5.830   4.721  18.955  0.00  0.00    +0.000 S 
ATOM      3  O   UNL     1       5.272   3.495  19.459  0.00  0.00    +0.000 OA
ENDROOT
BRANCH   2   4
ATOM      4  C   UNL     1       5.802   4.665  17.182  0.00  0.00    +0.000 A 
ATOM      5  C   UNL     1       4.752   3.983  16.557  0.00  0.00    +0.000 A 
ATOM      6  C   UNL     1       4.809   3.755  15.183  0.00  0.00    +0.000 A 
ATOM      7  C   UNL     1       5.902   4.217  14.455  0.00  0.00    +0.000 A 
ATOM      8  C   UNL     1       6.916   4.958  15.079  0.00  0.00    +0.000 A 
ATOM      9  C   UNL     1       6.875   5.179  16.452  0.00  0.00    +0.000 A 
ATOM     10  O   UNL     1       8.006   5.448  14.408  0.00  0.00    +0.000 OA
ATOM     11  C   UNL     1       7.821   5.392  12.988  0.00  0.00    +0.000 C 
ATOM     12  C   UNL     1       7.236   4.051  12.574  0.00  0.00    +0.000 C 
ATOM     13  O   UNL     1       5.924   3.887  13.123  0.00  0.00    +0.000 OA
ENDBRANCH   2   4
BRANCH   2  14
ATOM     14  N   UNL     1       4.766   6.003  19.256  0.00  0.00    +0.000 NA
ATOM     15  H   UNL     1       5.161   6.898  18.965  0.00  0.00    +0.000 HD
BRANCH  14  16
ATOM     16  C   UNL     1       3.320   5.825  18.977  0.00  0.00    +0.000 C 
ATOM     17  C   UNL     1       2.493   5.323  20.180  0.00  0.00    +0.000 C 
ATOM     18  O   UNL     1       1.881   6.442  20.857  0.00  0.00    +0.000 OA
ATOM     19  C   UNL     1       1.875   7.428  19.908  0.00  0.00    +0.000 A 
ATOM     20  C   UNL     1       1.240   8.640  20.079  0.00  0.00    +0.000 A 
ATOM     21  C   UNL     1       1.326   9.570  19.044  0.00  0.00    +0.000 A 
ATOM     22  C   UNL     1       2.011   9.252  17.860  0.00  0.00    +0.000 A 
ATOM     23  C   UNL     1       2.659   8.017  17.715  0.00  0.00    +0.000 A 
ATOM     24  C   UNL     1       2.613   7.125  18.774  0.00  0.00    +0.000 A 
ENDBRANCH  14  16
ENDBRANCH   2  14
TORSDOF 3
ENDMDL
MODEL 6
REMARK VINA RESULT:      -7.2      2.642      6.256
REMARK  Name = 
REMARK  3 active torsions:
REMARK  status: ('A' for Active; 'I' for Inactive)
REMARK    1  A    between atoms: S_2  and  N_4
REMARK    2  A    between atoms: S_2  and  C_14
REMARK    3  A    between atoms: N_4  and  C_5
REMARK                            x       y       z     vdW  Elec       q    Type
REMARK                         _______ _______ _______ _____ _____    ______ ____
ROOT
ATOM      1  O   UNL     1       6.367   6.011  17.941  0.00  0.00    +0.000 OA
ATOM      2  S   UNL     1       5.140   5.235  17.919  0.00  0.00    +0.000 S 
ATOM      3  O   UNL     1       4.783   4.427  16.784  0.00  0.00    +0.000 OA
ENDROOT
BRANCH   2   4
ATOM      4  C   UNL     1       3.809   6.359  18.252  0.00  0.00    +0.000 A 
ATOM      5  C   UNL     1       3.532   7.355  17.310  0.00  0.00    +0.000 A 
ATOM      6  C   UNL     1       2.628   8.367  17.633  0.00  0.00    +0.000 A 
ATOM      7  C   UNL     1       2.010   8.362  18.880  0.00  0.00    +0.000 A 
ATOM      8  C   UNL     1       2.243   7.322  19.791  0.00  0.00    +0.000 A 
ATOM      9  C   UNL     1       3.153   6.315  19.484  0.00  0.00    +0.000 A 
ATOM     10  O   UNL     1       1.650   7.261  21.025  0.00  0.00    +0.000 OA
ATOM     11  C   UNL     1       0.557   8.182  21.133  0.00  0.00    +0.000 C 
ATOM     12  C   UNL     1       0.937   9.537  20.559  0.00  0.00    +0.000 C 
ATOM     13  O   UNL     1       1.193   9.430  19.154  0.00  0.00    +0.000 OA
ENDBRANCH   2   4
BRANCH   2  14
ATOM     14  N   UNL     1       5.128   4.290  19.324  0.00  0.00    +0.000 NA
ATOM     15  H   UNL     1       4.865   4.837  20.144  0.00  0.00    +0.000 HD
BRANCH  14  16
ATOM     16  C   UNL     1       4.570   2.917  19.268  0.00  0.00    +0.000 C 
ATOM     17  C   UNL     1       4.826   2.069  20.532  0.00  0.00    +0.000 C 
ATOM     18  O   UNL     1       3.681   2.137  21.409  0.00  0.00    +0.000 OA
ATOM     19  C   UNL     1       2.662   2.514  20.578  0.00  0.00    +0.000 A 
ATOM     20  C   UNL     1       1.341   2.558  20.971  0.00  0.00    +0.000 A 
ATOM     21  C   UNL     1       0.398   2.980  20.036  0.00  0.00    +0.000 A 
ATOM     22  C   UNL     1       0.794   3.312  18.730  0.00  0.00    +0.000 A 
ATOM     23  C   UNL     1       2.146   3.272  18.357  0.00  0.00    +0.000 A 
ATOM     24  C   UNL     1       3.077   2.905  19.315  0.00  0.00    +0.000 A 
ENDBRANCH  14  16
ENDBRANCH   2  14
TORSDOF 3
ENDMDL
MODEL 7
REMARK VINA RESULT:      -7.2      1.828      6.716
REMARK  Name = 
REMARK  3 active torsions:
REMARK  status: ('A' for Active; 'I' for Inactive)
REMARK    1  A    between atoms: S_2  and  N_4
REMARK    2  A    between atoms: S_2  and  C_14
REMARK    3  A    between atoms: N_4  and  C_5
REMARK                            x       y       z     vdW  Elec       q    Type
REMARK                         _______ _______ _______ _____ _____    ______ ____
ROOT
ATOM      1  O   UNL     1       2.666   3.195  16.674  0.00  0.00    +0.000 OA
ATOM      2  S   UNL     1       3.633   3.449  17.727  0.00  0.00    +0.000 S 
ATOM      3  O   UNL     1       3.857   2.502  18.786  0.00  0.00    +0.000 OA
ENDROOT
BRANCH   2   4
ATOM      4  C   UNL     1       3.215   5.014  18.450  0.00  0.00    +0.000 A 
ATOM      5  C   UNL     1       2.924   5.055  19.818  0.00  0.00    +0.000 A 
ATOM      6  C   UNL     1       2.404   6.225  20.370  0.00  0.00    +0.000 A 
ATOM      7  C   UNL     1       2.193   7.333  19.554  0.00  0.00    +0.000 A 
ATOM      8  C   UNL     1       2.551   7.304  18.199  0.00  0.00    +0.000 A 
ATOM      9  C   UNL     1       3.058   6.137  17.635  0.00  0.00    +0.000 A 
ATOM     10  O   UNL     1       2.379   8.371  17.356  0.00  0.00    +0.000 OA
ATOM     11  C   UNL     1       2.102   9.577  18.079  0.00  0.00    +0.000 C 
ATOM     12  C   UNL     1       1.080   9.325  19.175  0.00  0.00    +0.000 C 
ATOM     13  O   UNL     1       1.608   8.421  20.152  0.00  0.00    +0.000 OA
ENDBRANCH   2   4
BRANCH   2  14
ATOM     14  N   UNL     1       5.101   3.822  16.970  0.00  0.00    +0.000 NA
ATOM     15  H   UNL     1       5.582   2.983  16.647  0.00  0.00    +0.000 HD
BRANCH  14  16
ATOM     16  C   UNL     1       5.168   4.988  16.055  0.00  0.00    +0.000 C 
ATOM     17  C   UNL     1       6.306   5.982  16.366  0.00  0.00    +0.000 C 
ATOM     18  O   UNL     1       7.453   5.691  15.537  0.00  0.00    +0.000 OA
ATOM     19  C   UNL     1       6.923   4.985  14.492  0.00  0.00    +0.000 A 
ATOM     20  C   UNL     1       7.647   4.627  13.375  0.00  0.00    +0.000 A 
ATOM     21  C   UNL     1       6.998   3.888  12.388  0.00  0.00    +0.000 A 
ATOM     22  C   UNL     1       5.640   3.558  12.528  0.00  0.00    +0.000 A 
ATOM     23  C   UNL     1       4.927   3.922  13.680  0.00  0.00    +0.000 A 
ATOM     24  C   UNL     1       5.602   4.607  14.677  0.00  0.00    +0.000 A 
ENDBRANCH  14  16
ENDBRANCH   2  14
TORSDOF 3
ENDMDL
MODEL 8
REMARK VINA RESULT:      -7.1      2.797      4.643
REMARK  Name = 
REMARK  3 active torsions:
REMARK  status: ('A' for Active; 'I' for Inactive)
REMARK    1  A    between atoms: S_2  and  N_4
REMARK    2  A    between atoms: S_2  and  C_14
REMARK    3  A    between atoms: N_4  and  C_5
REMARK                            x       y       z     vdW  Elec       q    Type
REMARK                         _______ _______ _______ _____ _____    ______ ____
ROOT
ATOM      1  O   UNL     1       6.819   6.991  17.961  0.00  0.00    +0.000 OA
ATOM      2  S   UNL     1       6.195   5.681  18.000  0.00  0.00    +0.000 S 
ATOM      3  O   UNL     1       6.751   4.606  18.777  0.00  0.00    +0.000 OA
ENDROOT
BRANCH   2   4
ATOM      4  C   UNL     1       6.030   5.134  16.320  0.00  0.00    +0.000 A 
ATOM      5  C   UNL     1       5.045   4.185  16.026  0.00  0.00    +0.000 A 
ATOM      6  C   UNL     1       5.022   3.595  14.763  0.00  0.00    +0.000 A 
ATOM      7  C   UNL     1       5.971   3.966  13.815  0.00  0.00    +0.000 A 
ATOM      8  C   UNL     1       6.912   4.966  14.097  0.00  0.00    +0.000 A 
ATOM      9  C   UNL     1       6.952   5.552  15.359  0.00  0.00    +0.000 A 
ATOM     10  O   UNL     1       7.858   5.379  13.195  0.00  0.00    +0.000 OA
ATOM     11  C   UNL     1       7.568   4.911  11.872  0.00  0.00    +0.000 C 
ATOM     12  C   UNL     1       7.156   3.448  11.898  0.00  0.00    +0.000 C 
ATOM     13  O   UNL     1       5.932   3.287  12.623  0.00  0.00    +0.000 OA
ENDBRANCH   2   4
BRANCH   2  14
ATOM     14  N   UNL     1       4.573   5.918  18.425  0.00  0.00    +0.000 NA
ATOM     15  H   UNL     1       3.962   5.895  17.609  0.00  0.00    +0.000 HD
BRANCH  14  16
ATOM     16  C   UNL     1       4.039   5.254  19.640  0.00  0.00    +0.000 C 
ATOM     17  C   UNL     1       2.821   5.960  20.273  0.00  0.00    +0.000 C 
ATOM     18  O   UNL     1       1.600   5.344  19.807  0.00  0.00    +0.000 OA
ATOM     19  C   UNL     1       2.004   4.106  19.388  0.00  0.00    +0.000 A 
ATOM     20  C   UNL     1       1.128   3.114  19.000  0.00  0.00    +0.000 A 
ATOM     21  C   UNL     1       1.666   1.903  18.572  0.00  0.00    +0.000 A 
ATOM     22  C   UNL     1       3.056   1.703  18.578  0.00  0.00    +0.000 A 
ATOM     23  C   UNL     1       3.928   2.731  18.965  0.00  0.00    +0.000 A 
ATOM     24  C   UNL     1       3.380   3.949  19.333  0.00  0.00    +0.000 A 
ENDBRANCH  14  16
ENDBRANCH   2  14
TORSDOF 3
ENDMDL
MODEL 9
REMARK VINA RESULT:      -7.1      1.543      2.312
REMARK  Name = 
REMARK  3 active torsions:
REMARK  status: ('A' for Active; 'I' for Inactive)
REMARK    1  A    between atoms: S_2  and  N_4
REMARK    2  A    between atoms: S_2  and  C_14
REMARK    3  A    between atoms: N_4  and  C_5
REMARK                            x       y       z     vdW  Elec       q    Type
REMARK                         _______ _______ _______ _____ _____    ______ ____
ROOT
ATOM      1  O   UNL     1       2.214   4.389  21.588  0.00  0.00    +0.000 OA
ATOM      2  S   UNL     1       1.745   4.572  20.227  0.00  0.00    +0.000 S 
ATOM      3  O   UNL     1       0.875   3.615  19.597  0.00  0.00    +0.000 OA
ENDROOT
BRANCH   2   4
ATOM      4  C   UNL     1       3.180   4.786  19.206  0.00  0.00    +0.000 A 
ATOM      5  C   UNL     1       3.066   4.513  17.838  0.00  0.00    +0.000 A 
ATOM      6  C   UNL     1       4.218   4.482  17.052  0.00  0.00    +0.000 A 
ATOM      7  C   UNL     1       5.455   4.733  17.636  0.00  0.00    +0.000 A 
ATOM      8  C   UNL     1       5.551   5.073  18.993  0.00  0.00    +0.000 A 
ATOM      9  C   UNL     1       4.410   5.093  19.790  0.00  0.00    +0.000 A 
ATOM     10  O   UNL     1       6.742   5.344  19.616  0.00  0.00    +0.000 OA
ATOM     11  C   UNL     1       7.798   5.549  18.669  0.00  0.00    +0.000 C 
ATOM     12  C   UNL     1       7.754   4.492  17.577  0.00  0.00    +0.000 C 
ATOM     13  O   UNL     1       6.548   4.609  16.816  0.00  0.00    +0.000 OA
ENDBRANCH   2   4
BRANCH   2  14
ATOM     14  N   UNL     1       1.054   6.116  20.145  0.00  0.00    +0.000 NA
ATOM     15  H   UNL     1       0.202   6.178  20.703  0.00  0.00    +0.000 HD
BRANCH  14  16
ATOM     16  C   UNL     1       1.937   7.307  20.196  0.00  0.00    +0.000 C 
ATOM     17  C   UNL     1       2.213   7.959  18.824  0.00  0.00    +0.000 C 
ATOM     18  O   UNL     1       1.302   9.060  18.611  0.00  0.00    +0.000 OA
ATOM     19  C   UNL     1       0.895   9.389  19.875  0.00  0.00    +0.000 A 
ATOM     20  C   UNL     1       0.125  10.497  20.159  0.00  0.00    +0.000 A 
ATOM     21  C   UNL     1      -0.243  10.711  21.485  0.00  0.00    +0.000 A 
ATOM     22  C   UNL     1       0.197   9.837  22.493  0.00  0.00    +0.000 A 
ATOM     23  C   UNL     1       0.969   8.709  22.178  0.00  0.00    +0.000 A 
ATOM     24  C   UNL     1       1.278   8.479  20.848  0.00  0.00    +0.000 A 
ENDBRANCH  14  16
ENDBRANCH   2  14
TORSDOF 3
ENDMDL
