MODEL 1
REMARK VINA RESULT:      -9.1      0.000      0.000
REMARK  Name = 
REMARK  6 active torsions:
REMARK  status: ('A' for Active; 'I' for Inactive)
REMARK    1  A    between atoms: C_1  and  O_2
REMARK    2  A    between atoms: O_2  and  C_3
REMARK    3  A    between atoms: C_6  and  C_7
REMARK    4  A    between atoms: C_20  and  C_22
REMARK    5  A    between atoms: C_22  and  O_23
REMARK    6  A    between atoms: O_23  and  C_24
REMARK                            x       y       z     vdW  Elec       q    Type
REMARK                         _______ _______ _______ _____ _____    ______ ____
ROOT
ATOM      1  C   UNL     1       2.059   8.475  18.177  0.00  0.00    +0.000 C 
ATOM      2  O   UNL     1       2.303   8.975  17.081  0.00  0.00    +0.000 OA
ATOM      3  N   UNL     1       2.638   7.268  18.603  0.00  0.00    +0.000 N 
ATOM      4  C   UNL     1       2.279   6.580  19.821  0.00  0.00    +0.000 C 
ATOM      5  C   UNL     1       2.296   5.064  19.675  0.00  0.00    +0.000 C 
ATOM      6  C   UNL     1       2.130   4.519  21.115  0.00  0.00    +0.000 C 
ATOM      7  O   UNL     1       2.048   3.107  21.101  0.00  0.00    +0.000 OA
ATOM      8  C   UNL     1       3.254   2.522  20.611  0.00  0.00    +0.000 C 
ATOM      9  C   UNL     1       4.116   3.418  19.683  0.00  0.00    +0.000 C 
ATOM     10  N   UNL     1       3.428   4.474  18.932  0.00  0.00    +0.000 NA
ATOM     11  C   UNL     1       4.263   5.415  18.110  0.00  0.00    +0.000 C 
ATOM     12  C   UNL     1       5.799   5.152  18.240  0.00  0.00    +0.000 C 
ATOM     13  N   UNL     1       5.859   5.312  16.773  0.00  0.00    +0.000 N 
ATOM     14  C   UNL     1       6.923   4.811  16.037  0.00  0.00    +0.000 C 
ATOM     15  O   UNL     1       7.809   4.128  16.552  0.00  0.00    +0.000 OA
ATOM     16  C   UNL     1       4.454   4.828  16.668  0.00  0.00    +0.000 C 
ATOM     17  C   UNL     1       3.960   6.934  18.097  0.00  0.00    +0.000 C 
ENDROOT
BRANCH   1  21
ATOM     18  C   UNL     1      -0.568  10.669  20.796  0.00  0.00    +0.000 A 
ATOM     19  C   UNL     1       0.327   9.732  21.318  0.00  0.00    +0.000 A 
ATOM     20  C   UNL     1       1.190   9.016  20.469  0.00  0.00    +0.000 A 
ATOM     21  C   UNL     1       1.131   9.215  19.087  0.00  0.00    +0.000 A 
ATOM     22  C   UNL     1       0.142  10.062  18.570  0.00  0.00    +0.000 A 
ATOM     23  C   UNL     1      -0.666  10.823  19.416  0.00  0.00    +0.000 A 
BRANCH  18  25
ATOM     24  C   UNL     1      -1.127  10.982  23.076  0.00  0.00    +0.000 C 
ATOM     25  O   UNL     1      -1.334  11.339  21.710  0.00  0.00    +0.000 OA
ENDBRANCH  18  25
ENDBRANCH   1  21
BRANCH  14  26
ATOM     26  C   UNL     1       6.990   5.258  14.579  0.00  0.00    +0.000 C 
BRANCH  26  27
ATOM     27  O   UNL     1       7.350   4.128  13.784  0.00  0.00    +0.000 OA
BRANCH  27  28
ATOM     28  C   UNL     1       6.406   3.649  12.916  0.00  0.00    +0.000 A 
ATOM     29  C   UNL     1       6.841   2.622  12.073  0.00  0.00    +0.000 A 
ATOM     30  C   UNL     1       5.976   2.046  11.144  0.00  0.00    +0.000 A 
ATOM     31  C   UNL     1       4.655   2.480  11.057  0.00  0.00    +0.000 A 
ATOM     32  C   UNL     1       4.206   3.482  11.921  0.00  0.00    +0.000 A 
ATOM     33  C   UNL     1       5.077   4.064  12.849  0.00  0.00    +0.000 A 
ENDBRANCH  27  28
ENDBRANCH  26  27
ENDBRANCH  14  26
TORSDOF 5
ENDMDL
MODEL 2
REMARK VINA RESULT:      -8.9      0.132      1.190
REMARK  Name = 
REMARK  6 active torsions:
REMARK  status: ('A' for Active; 'I' for Inactive)
REMARK    1  A    between atoms: C_1  and  O_2
REMARK    2  A    between atoms: O_2  and  C_3
REMARK    3  A    between atoms: C_6  and  C_7
REMARK    4  A    between atoms: C_20  and  C_22
REMARK    5  A    between atoms: C_22  and  O_23
REMARK    6  A    between atoms: O_23  and  C_24
REMARK                            x       y       z     vdW  Elec       q    Type
REMARK                         _______ _______ _______ _____ _____    ______ ____
ROOT
ATOM      1  C   UNL     1       2.013   8.459  18.194  0.00  0.00    +0.000 C 
ATOM      2  O   UNL     1       2.215   8.948  17.084  0.00  0.00    +0.000 OA
ATOM      3  N   UNL     1       2.613   7.259  18.612  0.00  0.00    +0.000 N 
ATOM      4  C   UNL     1       2.302   6.583  19.849  0.00  0.00    +0.000 C 
ATOM      5  C   UNL     1       2.319   5.065  19.719  0.00  0.00    +0.000 C 
ATOM      6  C   UNL     1       2.208   4.536  21.170  0.00  0.00    +0.000 C 
ATOM      7  O   UNL     1       2.132   3.124  21.174  0.00  0.00    +0.000 OA
ATOM      8  C   UNL     1       3.321   2.537  20.647  0.00  0.00    +0.000 C 
ATOM      9  C   UNL     1       4.145   3.427  19.679  0.00  0.00    +0.000 C 
ATOM     10  N   UNL     1       3.425   4.471  18.941  0.00  0.00    +0.000 NA
ATOM     11  C   UNL     1       4.226   5.406  18.079  0.00  0.00    +0.000 C 
ATOM     12  C   UNL     1       5.766   5.150  18.155  0.00  0.00    +0.000 C 
ATOM     13  N   UNL     1       5.772   5.294  16.686  0.00  0.00    +0.000 N 
ATOM     14  C   UNL     1       6.810   4.790  15.917  0.00  0.00    +0.000 C 
ATOM     15  O   UNL     1       7.718   4.115  16.406  0.00  0.00    +0.000 OA
ATOM     16  C   UNL     1       4.366   4.805  16.638  0.00  0.00    +0.000 C 
ATOM     17  C   UNL     1       3.917   6.924  18.060  0.00  0.00    +0.000 C 
ENDROOT
BRANCH   1  21
ATOM     18  C   UNL     1      -0.614  10.549  20.896  0.00  0.00    +0.000 A 
ATOM     19  C   UNL     1      -0.728  10.735  19.516  0.00  0.00    +0.000 A 
ATOM     20  C   UNL     1       0.123  10.052  18.629  0.00  0.00    +0.000 A 
ATOM     21  C   UNL     1       1.117   9.206  19.129  0.00  0.00    +0.000 A 
ATOM     22  C   UNL     1       1.301   9.130  20.515  0.00  0.00    +0.000 A 
ATOM     23  C   UNL     1       0.414   9.753  21.394  0.00  0.00    +0.000 A 
BRANCH  18  25
ATOM     24  C   UNL     1      -1.281  11.194  23.075  0.00  0.00    +0.000 C 
ATOM     25  O   UNL     1      -1.515  11.229  21.668  0.00  0.00    +0.000 OA
ENDBRANCH  18  25
ENDBRANCH   1  21
BRANCH  14  26
ATOM     26  C   UNL     1       6.822   5.220  14.453  0.00  0.00    +0.000 C 
BRANCH  26  27
ATOM     27  O   UNL     1       7.327   4.135  13.674  0.00  0.00    +0.000 OA
BRANCH  27  28
ATOM     28  C   UNL     1       6.460   3.537  12.799  0.00  0.00    +0.000 A 
ATOM     29  C   UNL     1       5.174   4.087  12.771  0.00  0.00    +0.000 A 
ATOM     30  C   UNL     1       4.197   3.570  11.921  0.00  0.00    +0.000 A 
ATOM     31  C   UNL     1       4.498   2.506  11.075  0.00  0.00    +0.000 A 
ATOM     32  C   UNL     1       5.791   1.977  11.074  0.00  0.00    +0.000 A 
ATOM     33  C   UNL     1       6.770   2.490  11.933  0.00  0.00    +0.000 A 
ENDBRANCH  27  28
ENDBRANCH  26  27
ENDBRANCH  14  26
TORSDOF 5
ENDMDL
MODEL 3
REMARK VINA RESULT:      -8.5      0.974      1.375
REMARK  Name = 
REMARK  6 active torsions:
REMARK  status: ('A' for Active; 'I' for Inactive)
REMARK    1  A    between atoms: C_1  and  O_2
REMARK    2  A    between atoms: O_2  and  C_3
REMARK    3  A    between atoms: C_6  and  C_7
REMARK    4  A    between atoms: C_20  and  C_22
REMARK    5  A    between atoms: C_22  and  O_23
REMARK    6  A    between atoms: O_23  and  C_24
REMARK                            x       y       z     vdW  Elec       q    Type
REMARK                         _______ _______ _______ _____ _____    ______ ____
ROOT
ATOM      1  C   UNL     1       2.162   8.642  18.106  0.00  0.00    +0.000 C 
ATOM      2  O   UNL     1       2.673   9.133  17.101  0.00  0.00    +0.000 OA
ATOM      3  N   UNL     1       2.582   7.414  18.645  0.00  0.00    +0.000 N 
ATOM      4  C   UNL     1       1.925   6.740  19.739  0.00  0.00    +0.000 C 
ATOM      5  C   UNL     1       1.919   5.224  19.587  0.00  0.00    +0.000 C 
ATOM      6  C   UNL     1       1.403   4.685  20.944  0.00  0.00    +0.000 C 
ATOM      7  O   UNL     1       1.274   3.278  20.898  0.00  0.00    +0.000 OA
ATOM      8  C   UNL     1       2.538   2.647  20.697  0.00  0.00    +0.000 C 
ATOM      9  C   UNL     1       3.625   3.511  20.004  0.00  0.00    +0.000 C 
ATOM     10  N   UNL     1       3.170   4.592  19.122  0.00  0.00    +0.000 NA
ATOM     11  C   UNL     1       4.207   5.501  18.526  0.00  0.00    +0.000 C 
ATOM     12  C   UNL     1       5.660   5.180  19.007  0.00  0.00    +0.000 C 
ATOM     13  N   UNL     1       6.066   5.338  17.596  0.00  0.00    +0.000 N 
ATOM     14  C   UNL     1       7.252   4.798  17.123  0.00  0.00    +0.000 C 
ATOM     15  O   UNL     1       7.969   4.081  17.823  0.00  0.00    +0.000 OA
ATOM     16  C   UNL     1       4.707   4.908  17.163  0.00  0.00    +0.000 C 
ATOM     17  C   UNL     1       3.972   7.031  18.456  0.00  0.00    +0.000 C 
ENDROOT
BRANCH   1  21
ATOM     18  C   UNL     1      -0.936  10.939  20.028  0.00  0.00    +0.000 A 
ATOM     19  C   UNL     1       0.143  10.452  20.769  0.00  0.00    +0.000 A 
ATOM     20  C   UNL     1       1.160   9.706  20.147  0.00  0.00    +0.000 A 
ATOM     21  C   UNL     1       1.076   9.417  18.782  0.00  0.00    +0.000 A 
ATOM     22  C   UNL     1      -0.074   9.802  18.082  0.00  0.00    +0.000 A 
ATOM     23  C   UNL     1      -1.048  10.600  18.683  0.00  0.00    +0.000 A 
BRANCH  18  25
ATOM     24  C   UNL     1      -2.741  12.469  19.929  0.00  0.00    +0.000 C 
ATOM     25  O   UNL     1      -1.849  11.687  20.721  0.00  0.00    +0.000 OA
ENDBRANCH  18  25
ENDBRANCH   1  21
BRANCH  14  26
ATOM     26  C   UNL     1       7.674   5.242  15.725  0.00  0.00    +0.000 C 
BRANCH  26  27
ATOM     27  O   UNL     1       6.494   5.413  14.939  0.00  0.00    +0.000 OA
BRANCH  27  28
ATOM     28  C   UNL     1       6.374   4.638  13.816  0.00  0.00    +0.000 A 
ATOM     29  C   UNL     1       5.120   4.046  13.636  0.00  0.00    +0.000 A 
ATOM     30  C   UNL     1       4.866   3.235  12.531  0.00  0.00    +0.000 A 
ATOM     31  C   UNL     1       5.861   3.018  11.580  0.00  0.00    +0.000 A 
ATOM     32  C   UNL     1       7.105   3.635  11.738  0.00  0.00    +0.000 A 
ATOM     33  C   UNL     1       7.361   4.444  12.851  0.00  0.00    +0.000 A 
ENDBRANCH  27  28
ENDBRANCH  26  27
ENDBRANCH  14  26
TORSDOF 5
ENDMDL
MODEL 4
REMARK VINA RESULT:      -8.4      0.761      1.170
REMARK  Name = 
REMARK  6 active torsions:
REMARK  status: ('A' for Active; 'I' for Inactive)
REMARK    1  A    between atoms: C_1  and  O_2
REMARK    2  A    between atoms: O_2  and  C_3
REMARK    3  A    between atoms: C_6  and  C_7
REMARK    4  A    between atoms: C_20  and  C_22
REMARK    5  A    between atoms: C_22  and  O_23
REMARK    6  A    between atoms: O_23  and  C_24
REMARK                            x       y       z     vdW  Elec       q    Type
REMARK                         _______ _______ _______ _____ _____    ______ ____
ROOT
ATOM      1  C   UNL     1       1.829   8.310  19.016  0.00  0.00    +0.000 C 
ATOM      2  O   UNL     1       1.933   8.894  17.938  0.00  0.00    +0.000 OA
ATOM      3  N   UNL     1       2.431   7.065  19.262  0.00  0.00    +0.000 N 
ATOM      4  C   UNL     1       2.226   6.286  20.460  0.00  0.00    +0.000 C 
ATOM      5  C   UNL     1       2.183   4.786  20.195  0.00  0.00    +0.000 C 
ATOM      6  C   UNL     1       2.203   4.129  21.597  0.00  0.00    +0.000 C 
ATOM      7  O   UNL     1       2.084   2.725  21.485  0.00  0.00    +0.000 OA
ATOM      8  C   UNL     1       3.195   2.163  20.788  0.00  0.00    +0.000 C 
ATOM      9  C   UNL     1       3.944   3.119  19.822  0.00  0.00    +0.000 C 
ATOM     10  N   UNL     1       3.186   4.242  19.259  0.00  0.00    +0.000 NA
ATOM     11  C   UNL     1       3.924   5.233  18.404  0.00  0.00    +0.000 C 
ATOM     12  C   UNL     1       5.456   4.939  18.298  0.00  0.00    +0.000 C 
ATOM     13  N   UNL     1       5.318   5.216  16.854  0.00  0.00    +0.000 N 
ATOM     14  C   UNL     1       6.257   4.761  15.941  0.00  0.00    +0.000 C 
ATOM     15  O   UNL     1       7.188   4.025  16.272  0.00  0.00    +0.000 OA
ATOM     16  C   UNL     1       3.900   4.763  16.909  0.00  0.00    +0.000 C 
ATOM     17  C   UNL     1       3.662   6.754  18.552  0.00  0.00    +0.000 C 
ENDROOT
BRANCH   1  21
ATOM     18  C   UNL     1      -0.456  10.211  22.136  0.00  0.00    +0.000 A 
ATOM     19  C   UNL     1      -0.488  10.712  20.833  0.00  0.00    +0.000 A 
ATOM     20  C   UNL     1       0.252  10.094  19.809  0.00  0.00    +0.000 A 
ATOM     21  C   UNL     1       1.055   8.988  20.101  0.00  0.00    +0.000 A 
ATOM     22  C   UNL     1       1.177   8.577  21.434  0.00  0.00    +0.000 A 
ATOM     23  C   UNL     1       0.391   9.147  22.436  0.00  0.00    +0.000 A 
BRANCH  18  25
ATOM     24  C   UNL     1      -2.056  11.912  22.529  0.00  0.00    +0.000 C 
ATOM     25  O   UNL     1      -1.242  10.861  23.047  0.00  0.00    +0.000 OA
ENDBRANCH  18  25
ENDBRANCH   1  21
BRANCH  14  26
ATOM     26  C   UNL     1       6.135   5.323  14.527  0.00  0.00    +0.000 C 
BRANCH  26  27
ATOM     27  O   UNL     1       6.918   4.507  13.655  0.00  0.00    +0.000 OA
BRANCH  27  28
ATOM     28  C   UNL     1       6.243   3.740  12.743  0.00  0.00    +0.000 A 
ATOM     29  C   UNL     1       7.008   2.749  12.120  0.00  0.00    +0.000 A 
ATOM     30  C   UNL     1       6.438   1.899  11.173  0.00  0.00    +0.000 A 
ATOM     31  C   UNL     1       5.089   2.019  10.847  0.00  0.00    +0.000 A 
ATOM     32  C   UNL     1       4.313   2.985  11.493  0.00  0.00    +0.000 A 
ATOM     33  C   UNL     1       4.887   3.843  12.439  0.00  0.00    +0.000 A 
ENDBRANCH  27  28
ENDBRANCH  26  27
ENDBRANCH  14  26
TORSDOF 5
ENDMDL
MODEL 5
REMARK VINA RESULT:      -8.1      4.597      8.777
REMARK  Name = 
REMARK  6 active torsions:
REMARK  status: ('A' for Active; 'I' for Inactive)
REMARK    1  A    between atoms: C_1  and  O_2
REMARK    2  A    between atoms: O_2  and  C_3
REMARK    3  A    between atoms: C_6  and  C_7
REMARK    4  A    between atoms: C_20  and  C_22
REMARK    5  A    between atoms: C_22  and  O_23
REMARK    6  A    between atoms: O_23  and  C_24
REMARK                            x       y       z     vdW  Elec       q    Type
REMARK                         _______ _______ _______ _____ _____    ______ ____
ROOT
ATOM      1  C   UNL     1      -2.701  12.596  22.755  0.00  0.00    +0.000 C 
ATOM      2  O   UNL     1      -2.699  11.546  23.396  0.00  0.00    +0.000 OA
ATOM      3  N   UNL     1      -1.793  12.847  21.713  0.00  0.00    +0.000 N 
ATOM      4  C   UNL     1      -1.673  14.111  21.027  0.00  0.00    +0.000 C 
ATOM      5  C   UNL     1      -0.236  14.455  20.658  0.00  0.00    +0.000 C 
ATOM      6  C   UNL     1      -0.343  15.695  19.735  0.00  0.00    +0.000 C 
ATOM      7  O   UNL     1       0.946  16.163  19.388  0.00  0.00    +0.000 OA
ATOM      8  C   UNL     1       1.666  15.190  18.633  0.00  0.00    +0.000 C 
ATOM      9  C   UNL     1       1.229  13.715  18.834  0.00  0.00    +0.000 C 
ATOM     10  N   UNL     1       0.596  13.365  20.110  0.00  0.00    +0.000 NA
ATOM     11  C   UNL     1       0.075  11.965  20.279  0.00  0.00    +0.000 C 
ATOM     12  C   UNL     1       0.238  11.086  18.997  0.00  0.00    +0.000 C 
ATOM     13  N   UNL     1       0.707  10.016  19.900  0.00  0.00    +0.000 N 
ATOM     14  C   UNL     1       1.455   8.949  19.424  0.00  0.00    +0.000 C 
ATOM     15  O   UNL     1       1.847   8.895  18.257  0.00  0.00    +0.000 OA
ATOM     16  C   UNL     1       1.209  11.046  20.851  0.00  0.00    +0.000 C 
ATOM     17  C   UNL     1      -1.295  11.708  20.957  0.00  0.00    +0.000 C 
ENDROOT
BRANCH   1  21
ATOM     18  C   UNL     1      -5.678  15.572  23.674  0.00  0.00    +0.000 A 
ATOM     19  C   UNL     1      -4.472  15.540  24.379  0.00  0.00    +0.000 A 
ATOM     20  C   UNL     1      -3.495  14.573  24.080  0.00  0.00    +0.000 A 
ATOM     21  C   UNL     1      -3.742  13.614  23.094  0.00  0.00    +0.000 A 
ATOM     22  C   UNL     1      -5.004  13.582  22.487  0.00  0.00    +0.000 A 
ATOM     23  C   UNL     1      -5.946  14.581  22.734  0.00  0.00    +0.000 A 
BRANCH  18  25
ATOM     24  C   UNL     1      -7.707  16.697  23.198  0.00  0.00    +0.000 C 
ATOM     25  O   UNL     1      -6.543  16.576  24.014  0.00  0.00    +0.000 OA
ENDBRANCH  18  25
ENDBRANCH   1  21
BRANCH  14  26
ATOM     26  C   UNL     1       1.660   7.794  20.400  0.00  0.00    +0.000 C 
BRANCH  26  27
ATOM     27  O   UNL     1       2.595   6.884  19.821  0.00  0.00    +0.000 OA
BRANCH  27  28
ATOM     28  C   UNL     1       2.128   5.643  19.477  0.00  0.00    +0.000 A 
ATOM     29  C   UNL     1       1.586   4.900  20.531  0.00  0.00    +0.000 A 
ATOM     30  C   UNL     1       1.074   3.622  20.312  0.00  0.00    +0.000 A 
ATOM     31  C   UNL     1       1.082   3.076  19.031  0.00  0.00    +0.000 A 
ATOM     32  C   UNL     1       1.590   3.828  17.969  0.00  0.00    +0.000 A 
ATOM     33  C   UNL     1       2.110   5.108  18.190  0.00  0.00    +0.000 A 
ENDBRANCH  27  28
ENDBRANCH  26  27
ENDBRANCH  14  26
TORSDOF 5
ENDMDL
MODEL 6
REMARK VINA RESULT:      -7.9      4.436      7.758
REMARK  Name = 
REMARK  6 active torsions:
REMARK  status: ('A' for Active; 'I' for Inactive)
REMARK    1  A    between atoms: C_1  and  O_2
REMARK    2  A    between atoms: O_2  and  C_3
REMARK    3  A    between atoms: C_6  and  C_7
REMARK    4  A    between atoms: C_20  and  C_22
REMARK    5  A    between atoms: C_22  and  O_23
REMARK    6  A    between atoms: O_23  and  C_24
REMARK                            x       y       z     vdW  Elec       q    Type
REMARK                         _______ _______ _______ _____ _____    ______ ____
ROOT
ATOM      1  C   UNL     1      -3.247  10.486  18.242  0.00  0.00    +0.000 C 
ATOM      2  O   UNL     1      -3.483   9.292  18.064  0.00  0.00    +0.000 OA
ATOM      3  N   UNL     1      -1.957  10.969  18.515  0.00  0.00    +0.000 N 
ATOM      4  C   UNL     1      -1.659  12.339  18.861  0.00  0.00    +0.000 C 
ATOM      5  C   UNL     1      -0.548  12.464  19.896  0.00  0.00    +0.000 C 
ATOM      6  C   UNL     1      -0.214  13.975  19.948  0.00  0.00    +0.000 C 
ATOM      7  O   UNL     1       0.757  14.231  20.943  0.00  0.00    +0.000 OA
ATOM      8  C   UNL     1       1.991  13.581  20.644  0.00  0.00    +0.000 C 
ATOM      9  C   UNL     1       1.896  12.332  19.728  0.00  0.00    +0.000 C 
ATOM     10  N   UNL     1       0.630  11.590  19.725  0.00  0.00    +0.000 NA
ATOM     11  C   UNL     1       0.488  10.441  18.768  0.00  0.00    +0.000 C 
ATOM     12  C   UNL     1       1.735  10.247  17.844  0.00  0.00    +0.000 C 
ATOM     13  N   UNL     1       1.608   8.804  18.128  0.00  0.00    +0.000 N 
ATOM     14  C   UNL     1       2.675   7.937  17.942  0.00  0.00    +0.000 C 
ATOM     15  O   UNL     1       3.797   8.339  17.632  0.00  0.00    +0.000 OA
ATOM     16  C   UNL     1       0.995   9.122  19.448  0.00  0.00    +0.000 C 
ATOM     17  C   UNL     1      -0.827  10.231  17.974  0.00  0.00    +0.000 C 
ENDROOT
BRANCH   1  21
ATOM     18  C   UNL     1      -6.587  13.189  17.913  0.00  0.00    +0.000 A 
ATOM     19  C   UNL     1      -5.953  12.709  16.765  0.00  0.00    +0.000 A 
ATOM     20  C   UNL     1      -4.865  11.823  16.866  0.00  0.00    +0.000 A 
ATOM     21  C   UNL     1      -4.389  11.444  18.124  0.00  0.00    +0.000 A 
ATOM     22  C   UNL     1      -4.953  12.033  19.262  0.00  0.00    +0.000 A 
ATOM     23  C   UNL     1      -6.075  12.857  19.165  0.00  0.00    +0.000 A 
BRANCH  18  25
ATOM     24  C   UNL     1      -7.353  15.325  17.235  0.00  0.00    +0.000 C 
ATOM     25  O   UNL     1      -7.659  14.013  17.705  0.00  0.00    +0.000 OA
ENDBRANCH  18  25
ENDBRANCH   1  21
BRANCH  14  26
ATOM     26  C   UNL     1       2.345   6.449  18.028  0.00  0.00    +0.000 C 
BRANCH  26  27
ATOM     27  O   UNL     1       2.949   5.928  19.212  0.00  0.00    +0.000 OA
BRANCH  27  28
ATOM     28  C   UNL     1       2.492   4.719  19.666  0.00  0.00    +0.000 A 
ATOM     29  C   UNL     1       2.352   4.621  21.054  0.00  0.00    +0.000 A 
ATOM     30  C   UNL     1       1.894   3.444  21.643  0.00  0.00    +0.000 A 
ATOM     31  C   UNL     1       1.553   2.351  20.849  0.00  0.00    +0.000 A 
ATOM     32  C   UNL     1       1.658   2.456  19.460  0.00  0.00    +0.000 A 
ATOM     33  C   UNL     1       2.125   3.636  18.869  0.00  0.00    +0.000 A 
ENDBRANCH  27  28
ENDBRANCH  26  27
ENDBRANCH  14  26
TORSDOF 5
ENDMDL
MODEL 7
REMARK VINA RESULT:      -7.9      4.323      7.675
REMARK  Name = 
REMARK  6 active torsions:
REMARK  status: ('A' for Active; 'I' for Inactive)
REMARK    1  A    between atoms: C_1  and  O_2
REMARK    2  A    between atoms: O_2  and  C_3
REMARK    3  A    between atoms: C_6  and  C_7
REMARK    4  A    between atoms: C_20  and  C_22
REMARK    5  A    between atoms: C_22  and  O_23
REMARK    6  A    between atoms: O_23  and  C_24
REMARK                            x       y       z     vdW  Elec       q    Type
REMARK                         _______ _______ _______ _____ _____    ______ ____
ROOT
ATOM      1  C   UNL     1      -3.215  10.443  18.193  0.00  0.00    +0.000 C 
ATOM      2  O   UNL     1      -3.446   9.248  18.021  0.00  0.00    +0.000 OA
ATOM      3  N   UNL     1      -1.930  10.931  18.484  0.00  0.00    +0.000 N 
ATOM      4  C   UNL     1      -1.639  12.303  18.824  0.00  0.00    +0.000 C 
ATOM      5  C   UNL     1      -0.547  12.438  19.876  0.00  0.00    +0.000 C 
ATOM      6  C   UNL     1      -0.216  13.951  19.922  0.00  0.00    +0.000 C 
ATOM      7  O   UNL     1       0.738  14.216  20.931  0.00  0.00    +0.000 OA
ATOM      8  C   UNL     1       1.978  13.565  20.658  0.00  0.00    +0.000 C 
ATOM      9  C   UNL     1       1.900  12.309  19.750  0.00  0.00    +0.000 C 
ATOM     10  N   UNL     1       0.636  11.566  19.731  0.00  0.00    +0.000 NA
ATOM     11  C   UNL     1       0.511  10.408  18.781  0.00  0.00    +0.000 C 
ATOM     12  C   UNL     1       1.774  10.209  17.881  0.00  0.00    +0.000 C 
ATOM     13  N   UNL     1       1.644   8.768  18.174  0.00  0.00    +0.000 N 
ATOM     14  C   UNL     1       2.715   7.902  18.013  0.00  0.00    +0.000 C 
ATOM     15  O   UNL     1       3.842   8.303  17.718  0.00  0.00    +0.000 OA
ATOM     16  C   UNL     1       1.009   9.096  19.480  0.00  0.00    +0.000 C 
ATOM     17  C   UNL     1      -0.790  10.190  17.968  0.00  0.00    +0.000 C 
ENDROOT
BRANCH   1  21
ATOM     18  C   UNL     1      -6.455  13.253  17.767  0.00  0.00    +0.000 A 
ATOM     19  C   UNL     1      -6.064  12.813  19.035  0.00  0.00    +0.000 A 
ATOM     20  C   UNL     1      -5.004  11.900  19.180  0.00  0.00    +0.000 A 
ATOM     21  C   UNL     1      -4.356  11.398  18.048  0.00  0.00    +0.000 A 
ATOM     22  C   UNL     1      -4.843  11.750  16.783  0.00  0.00    +0.000 A 
ATOM     23  C   UNL     1      -5.848  12.707  16.639  0.00  0.00    +0.000 A 
BRANCH  18  25
ATOM     24  C   UNL     1      -7.302  15.253  16.824  0.00  0.00    +0.000 C 
ATOM     25  O   UNL     1      -7.468  14.170  17.738  0.00  0.00    +0.000 OA
ENDBRANCH  18  25
ENDBRANCH   1  21
BRANCH  14  26
ATOM     26  C   UNL     1       2.386   6.414  18.105  0.00  0.00    +0.000 C 
BRANCH  26  27
ATOM     27  O   UNL     1       3.520   5.741  18.653  0.00  0.00    +0.000 OA
BRANCH  27  28
ATOM     28  C   UNL     1       3.275   4.696  19.503  0.00  0.00    +0.000 A 
ATOM     29  C   UNL     1       2.181   4.869  20.356  0.00  0.00    +0.000 A 
ATOM     30  C   UNL     1       1.824   3.877  21.268  0.00  0.00    +0.000 A 
ATOM     31  C   UNL     1       2.548   2.688  21.328  0.00  0.00    +0.000 A 
ATOM     32  C   UNL     1       3.620   2.496  20.453  0.00  0.00    +0.000 A 
ATOM     33  C   UNL     1       3.983   3.495  19.542  0.00  0.00    +0.000 A 
ENDBRANCH  27  28
ENDBRANCH  26  27
ENDBRANCH  14  26
TORSDOF 5
ENDMDL
MODEL 8
REMARK VINA RESULT:      -7.9      4.542      8.483
REMARK  Name = 
REMARK  6 active torsions:
REMARK  status: ('A' for Active; 'I' for Inactive)
REMARK    1  A    between atoms: C_1  and  O_2
REMARK    2  A    between atoms: O_2  and  C_3
REMARK    3  A    between atoms: C_6  and  C_7
REMARK    4  A    between atoms: C_20  and  C_22
REMARK    5  A    between atoms: C_22  and  O_23
REMARK    6  A    between atoms: O_23  and  C_24
REMARK                            x       y       z     vdW  Elec       q    Type
REMARK                         _______ _______ _______ _____ _____    ______ ____
ROOT
ATOM      1  C   UNL     1      -2.254  12.376  22.777  0.00  0.00    +0.000 C 
ATOM      2  O   UNL     1      -2.236  11.341  23.441  0.00  0.00    +0.000 OA
ATOM      3  N   UNL     1      -1.392  12.591  21.689  0.00  0.00    +0.000 N 
ATOM      4  C   UNL     1      -1.287  13.838  20.969  0.00  0.00    +0.000 C 
ATOM      5  C   UNL     1       0.135  14.153  20.526  0.00  0.00    +0.000 C 
ATOM      6  C   UNL     1       0.002  15.373  19.582  0.00  0.00    +0.000 C 
ATOM      7  O   UNL     1       1.279  15.815  19.164  0.00  0.00    +0.000 OA
ATOM      8  C   UNL     1       1.950  14.815  18.399  0.00  0.00    +0.000 C 
ATOM      9  C   UNL     1       1.503  13.351  18.653  0.00  0.00    +0.000 C 
ATOM     10  N   UNL     1       0.925  13.039  19.965  0.00  0.00    +0.000 NA
ATOM     11  C   UNL     1       0.394  11.651  20.190  0.00  0.00    +0.000 C 
ATOM     12  C   UNL     1       0.484  10.741  18.921  0.00  0.00    +0.000 C 
ATOM     13  N   UNL     1       0.980   9.685  19.825  0.00  0.00    +0.000 N 
ATOM     14  C   UNL     1       1.691   8.597  19.339  0.00  0.00    +0.000 C 
ATOM     15  O   UNL     1       2.027   8.511  18.157  0.00  0.00    +0.000 OA
ATOM     16  C   UNL     1       1.541  10.728  20.728  0.00  0.00    +0.000 C 
ATOM     17  C   UNL     1      -0.946  11.429  20.936  0.00  0.00    +0.000 C 
ENDROOT
BRANCH   1  21
ATOM     18  C   UNL     1      -5.183  15.334  23.889  0.00  0.00    +0.000 A 
ATOM     19  C   UNL     1      -5.465  14.406  22.883  0.00  0.00    +0.000 A 
ATOM     20  C   UNL     1      -4.514  13.436  22.519  0.00  0.00    +0.000 A 
ATOM     21  C   UNL     1      -3.263  13.417  23.142  0.00  0.00    +0.000 A 
ATOM     22  C   UNL     1      -2.951  14.431  24.056  0.00  0.00    +0.000 A 
ATOM     23  C   UNL     1      -3.917  15.351  24.466  0.00  0.00    +0.000 A 
BRANCH  18  25
ATOM     24  C   UNL     1      -6.288  17.360  23.357  0.00  0.00    +0.000 C 
ATOM     25  O   UNL     1      -6.189  16.209  24.194  0.00  0.00    +0.000 OA
ENDBRANCH  18  25
ENDBRANCH   1  21
BRANCH  14  26
ATOM     26  C   UNL     1       1.926   7.460  20.331  0.00  0.00    +0.000 C 
BRANCH  26  27
ATOM     27  O   UNL     1       2.646   6.427  19.659  0.00  0.00    +0.000 OA
BRANCH  27  28
ATOM     28  C   UNL     1       2.039   5.203  19.564  0.00  0.00    +0.000 A 
ATOM     29  C   UNL     1       2.036   4.640  18.284  0.00  0.00    +0.000 A 
ATOM     30  C   UNL     1       1.452   3.396  18.054  0.00  0.00    +0.000 A 
ATOM     31  C   UNL     1       0.875   2.688  19.106  0.00  0.00    +0.000 A 
ATOM     32  C   UNL     1       0.907   3.231  20.393  0.00  0.00    +0.000 A 
ATOM     33  C   UNL     1       1.488   4.483  20.623  0.00  0.00    +0.000 A 
ENDBRANCH  27  28
ENDBRANCH  26  27
ENDBRANCH  14  26
TORSDOF 5
ENDMDL
MODEL 9
REMARK VINA RESULT:      -7.8      3.919      7.295
REMARK  Name = 
REMARK  6 active torsions:
REMARK  status: ('A' for Active; 'I' for Inactive)
REMARK    1  A    between atoms: C_1  and  O_2
REMARK    2  A    between atoms: O_2  and  C_3
REMARK    3  A    between atoms: C_6  and  C_7
REMARK    4  A    between atoms: C_20  and  C_22
REMARK    5  A    between atoms: C_22  and  O_23
REMARK    6  A    between atoms: O_23  and  C_24
REMARK                            x       y       z     vdW  Elec       q    Type
REMARK                         _______ _______ _______ _____ _____    ______ ____
ROOT
ATOM      1  C   UNL     1      -3.309  10.475  18.262  0.00  0.00    +0.000 C 
ATOM      2  O   UNL     1      -3.547   9.275  18.133  0.00  0.00    +0.000 OA
ATOM      3  N   UNL     1      -2.018  10.966  18.517  0.00  0.00    +0.000 N 
ATOM      4  C   UNL     1      -1.717  12.348  18.807  0.00  0.00    +0.000 C 
ATOM      5  C   UNL     1      -0.608  12.513  19.838  0.00  0.00    +0.000 C 
ATOM      6  C   UNL     1      -0.271  14.025  19.829  0.00  0.00    +0.000 C 
ATOM      7  O   UNL     1       0.699  14.319  20.814  0.00  0.00    +0.000 OA
ATOM      8  C   UNL     1       1.933  13.655  20.543  0.00  0.00    +0.000 C 
ATOM      9  C   UNL     1       1.836  12.370  19.679  0.00  0.00    +0.000 C 
ATOM     10  N   UNL     1       0.569  11.631  19.704  0.00  0.00    +0.000 NA
ATOM     11  C   UNL     1       0.425  10.444  18.795  0.00  0.00    +0.000 C 
ATOM     12  C   UNL     1       1.673  10.210  17.882  0.00  0.00    +0.000 C 
ATOM     13  N   UNL     1       1.543   8.779  18.224  0.00  0.00    +0.000 N 
ATOM     14  C   UNL     1       2.608   7.904  18.076  0.00  0.00    +0.000 C 
ATOM     15  O   UNL     1       3.732   8.291  17.751  0.00  0.00    +0.000 OA
ATOM     16  C   UNL     1       0.929   9.153  19.529  0.00  0.00    +0.000 C 
ATOM     17  C   UNL     1      -0.889  10.204  18.008  0.00  0.00    +0.000 C 
ENDROOT
BRANCH   1  21
ATOM     18  C   UNL     1      -6.545  13.283  17.799  0.00  0.00    +0.000 A 
ATOM     19  C   UNL     1      -6.198  12.810  19.066  0.00  0.00    +0.000 A 
ATOM     20  C   UNL     1      -5.139  11.897  19.224  0.00  0.00    +0.000 A 
ATOM     21  C   UNL     1      -4.449  11.429  18.103  0.00  0.00    +0.000 A 
ATOM     22  C   UNL     1      -4.892  11.815  16.831  0.00  0.00    +0.000 A 
ATOM     23  C   UNL     1      -5.895  12.772  16.678  0.00  0.00    +0.000 A 
BRANCH  18  25
ATOM     24  C   UNL     1      -7.356  15.319  16.900  0.00  0.00    +0.000 C 
ATOM     25  O   UNL     1      -7.561  14.198  17.759  0.00  0.00    +0.000 OA
ENDBRANCH  18  25
ENDBRANCH   1  21
BRANCH  14  26
ATOM     26  C   UNL     1       2.275   6.421  18.222  0.00  0.00    +0.000 C 
BRANCH  26  27
ATOM     27  O   UNL     1       3.360   5.667  17.682  0.00  0.00    +0.000 OA
BRANCH  27  28
ATOM     28  C   UNL     1       3.394   4.328  17.970  0.00  0.00    +0.000 A 
ATOM     29  C   UNL     1       4.205   3.975  19.053  0.00  0.00    +0.000 A 
ATOM     30  C   UNL     1       4.324   2.644  19.451  0.00  0.00    +0.000 A 
ATOM     31  C   UNL     1       3.619   1.648  18.779  0.00  0.00    +0.000 A 
ATOM     32  C   UNL     1       2.780   2.000  17.719  0.00  0.00    +0.000 A 
ATOM     33  C   UNL     1       2.666   3.336  17.315  0.00  0.00    +0.000 A 
ENDBRANCH  27  28
ENDBRANCH  26  27
ENDBRANCH  14  26
TORSDOF 5
ENDMDL
