MODEL 1
REMARK VINA RESULT:      -7.3      0.000      0.000
REMARK  Name = 
REMARK  9 active torsions:
REMARK  status: ('A' for Active; 'I' for Inactive)
REMARK    1  A    between atoms: C_1  and  C_2
REMARK    2  A    between atoms: N_4  and  C_5
REMARK    3  A    between atoms: C_8  and  N_9
REMARK    4  A    between atoms: N_9  and  C_10
REMARK    5  A    between atoms: C_10  and  C_11
REMARK    6  A    between atoms: C_11  and  N_12
REMARK    7  A    between atoms: N_12  and  C_13
REMARK    8  A    between atoms: N_12  and  C_14
REMARK    9  A    between atoms: C_16  and  O_17
REMARK                            x       y       z     vdW  Elec       q    Type
REMARK                         _______ _______ _______ _____ _____    ______ ____
ROOT
ATOM      1  C   UNL     1       3.120   7.231  17.819  0.00  0.00    +0.000 A 
ATOM      2  C   UNL     1       4.180   7.690  17.036  0.00  0.00    +0.000 A 
ATOM      3  C   UNL     1       5.353   6.962  16.929  0.00  0.00    +0.000 A 
ATOM      4  C   UNL     1       5.511   5.770  17.631  0.00  0.00    +0.000 A 
ATOM      5  C   UNL     1       4.435   5.293  18.447  0.00  0.00    +0.000 A 
ATOM      6  C   UNL     1       4.487   4.088  19.186  0.00  0.00    +0.000 A 
ATOM      7  C   UNL     1       3.423   3.646  19.982  0.00  0.00    +0.000 A 
ATOM      8  C   UNL     1       3.456   2.429  20.703  0.00  0.00    +0.000 A 
ATOM      9  C   UNL     1       2.392   2.046  21.510  0.00  0.00    +0.000 A 
ATOM     10  C   UNL     1       1.289   2.882  21.610  0.00  0.00    +0.000 A 
ATOM     11  C   UNL     1       1.252   4.079  20.880  0.00  0.00    +0.000 A 
ATOM     12  C   UNL     1       2.298   4.481  20.050  0.00  0.00    +0.000 A 
ATOM     13  N   UNL     1       2.207   5.637  19.357  0.00  0.00    +0.000 NA
ATOM     14  C   UNL     1       3.236   6.041  18.564  0.00  0.00    +0.000 A 
ENDROOT
BRANCH   1  18
ATOM     15  C   UNL     1       0.342   9.803  18.022  0.00  0.00    +0.000 C 
ATOM     16  C   UNL     1       1.759   9.334  17.849  0.00  0.00    +0.000 C 
ATOM     17  O   UNL     1       2.661  10.157  17.709  0.00  0.00    +0.000 OA
ATOM     18  N   UNL     1       1.896   7.957  17.875  0.00  0.00    +0.000 N 
ATOM     19  H   UNL     1       1.068   7.370  17.790  0.00  0.00    +0.000 HD
ENDBRANCH   1  18
BRANCH   4  20
ATOM     20  N   UNL     1       6.657   4.949  17.439  0.00  0.00    +0.000 N 
ATOM     21  H   UNL     1       6.453   4.011  17.814  0.00  0.00    +0.000 HD
BRANCH  20  22
ATOM     22  C   UNL     1       7.116   4.781  16.048  0.00  0.00    +0.000 C 
BRANCH  22  23
ATOM     23  C   UNL     1       6.098   3.939  15.249  0.00  0.00    +0.000 C 
BRANCH  23  24
ATOM     24  N   UNL     1       6.428   3.764  13.814  0.00  0.00    +0.000 NA
ATOM     25  C   UNL     1       5.231   3.713  12.970  0.00  0.00    +0.000 C 
ATOM     26  C   UNL     1       7.281   4.878  13.381  0.00  0.00    +0.000 C 
ENDBRANCH  23  24
ENDBRANCH  22  23
ENDBRANCH  20  22
ENDBRANCH   4  20
BRANCH   6  27
ATOM     27  O   UNL     1       5.626   3.307  19.173  0.00  0.00    +0.000 OA
ATOM     28  H   UNL     1       6.275   3.764  19.756  0.00  0.00    +0.000 HD
ENDBRANCH   6  27
TORSDOF 6
ENDMDL
MODEL 2
REMARK VINA RESULT:      -7.0      2.040      5.083
REMARK  Name = 
REMARK  9 active torsions:
REMARK  status: ('A' for Active; 'I' for Inactive)
REMARK    1  A    between atoms: C_1  and  C_2
REMARK    2  A    between atoms: N_4  and  C_5
REMARK    3  A    between atoms: C_8  and  N_9
REMARK    4  A    between atoms: N_9  and  C_10
REMARK    5  A    between atoms: C_10  and  C_11
REMARK    6  A    between atoms: C_11  and  N_12
REMARK    7  A    between atoms: N_12  and  C_13
REMARK    8  A    between atoms: N_12  and  C_14
REMARK    9  A    between atoms: C_16  and  O_17
REMARK                            x       y       z     vdW  Elec       q    Type
REMARK                         _______ _______ _______ _____ _____    ______ ____
ROOT
ATOM      1  C   UNL     1       3.264   4.022  19.392  0.00  0.00    +0.000 A 
ATOM      2  C   UNL     1       4.037   3.251  18.523  0.00  0.00    +0.000 A 
ATOM      3  C   UNL     1       4.570   3.799  17.368  0.00  0.00    +0.000 A 
ATOM      4  C   UNL     1       4.316   5.126  17.034  0.00  0.00    +0.000 A 
ATOM      5  C   UNL     1       3.514   5.926  17.912  0.00  0.00    +0.000 A 
ATOM      6  C   UNL     1       3.211   7.287  17.672  0.00  0.00    +0.000 A 
ATOM      7  C   UNL     1       2.420   8.046  18.543  0.00  0.00    +0.000 A 
ATOM      8  C   UNL     1       2.134   9.415  18.326  0.00  0.00    +0.000 A 
ATOM      9  C   UNL     1       1.313  10.121  19.197  0.00  0.00    +0.000 A 
ATOM     10  C   UNL     1       0.765   9.462  20.288  0.00  0.00    +0.000 A 
ATOM     11  C   UNL     1       1.065   8.110  20.510  0.00  0.00    +0.000 A 
ATOM     12  C   UNL     1       1.898   7.380  19.663  0.00  0.00    +0.000 A 
ATOM     13  N   UNL     1       2.167   6.084  19.929  0.00  0.00    +0.000 NA
ATOM     14  C   UNL     1       2.962   5.365  19.090  0.00  0.00    +0.000 A 
ENDROOT
BRANCH   1  18
ATOM     15  C   UNL     1       1.274   2.439  22.204  0.00  0.00    +0.000 C 
ATOM     16  C   UNL     1       1.551   2.833  20.781  0.00  0.00    +0.000 C 
ATOM     17  O   UNL     1       0.723   2.588  19.908  0.00  0.00    +0.000 OA
ATOM     18  N   UNL     1       2.770   3.466  20.607  0.00  0.00    +0.000 N 
ATOM     19  H   UNL     1       3.462   3.434  21.353  0.00  0.00    +0.000 HD
ENDBRANCH   1  18
BRANCH   4  20
ATOM     20  N   UNL     1       4.953   5.740  15.919  0.00  0.00    +0.000 N 
ATOM     21  H   UNL     1       4.629   6.715  15.854  0.00  0.00    +0.000 HD
BRANCH  20  22
ATOM     22  C   UNL     1       6.427   5.762  15.939  0.00  0.00    +0.000 C 
BRANCH  22  23
ATOM     23  C   UNL     1       6.932   6.568  17.154  0.00  0.00    +0.000 C 
BRANCH  23  24
ATOM     24  N   UNL     1       7.697   5.779  18.149  0.00  0.00    +0.000 NA
ATOM     25  C   UNL     1       7.008   5.690  19.438  0.00  0.00    +0.000 C 
ATOM     26  C   UNL     1       7.915   4.427  17.619  0.00  0.00    +0.000 C 
ENDBRANCH  23  24
ENDBRANCH  22  23
ENDBRANCH  20  22
ENDBRANCH   4  20
BRANCH   6  27
ATOM     27  O   UNL     1       3.667   7.916  16.530  0.00  0.00    +0.000 OA
ATOM     28  H   UNL     1       2.870   8.086  15.977  0.00  0.00    +0.000 HD
ENDBRANCH   6  27
TORSDOF 6
ENDMDL
MODEL 3
REMARK VINA RESULT:      -6.9      2.281      7.018
REMARK  Name = 
REMARK  9 active torsions:
REMARK  status: ('A' for Active; 'I' for Inactive)
REMARK    1  A    between atoms: C_1  and  C_2
REMARK    2  A    between atoms: N_4  and  C_5
REMARK    3  A    between atoms: C_8  and  N_9
REMARK    4  A    between atoms: N_9  and  C_10
REMARK    5  A    between atoms: C_10  and  C_11
REMARK    6  A    between atoms: C_11  and  N_12
REMARK    7  A    between atoms: N_12  and  C_13
REMARK    8  A    between atoms: N_12  and  C_14
REMARK    9  A    between atoms: C_16  and  O_17
REMARK                            x       y       z     vdW  Elec       q    Type
REMARK                         _______ _______ _______ _____ _____    ______ ____
ROOT
ATOM      1  C   UNL     1       2.119   5.891  20.605  0.00  0.00    +0.000 A 
ATOM      2  C   UNL     1       1.325   6.924  21.105  0.00  0.00    +0.000 A 
ATOM      3  C   UNL     1       1.211   8.126  20.426  0.00  0.00    +0.000 A 
ATOM      4  C   UNL     1       1.915   8.339  19.245  0.00  0.00    +0.000 A 
ATOM      5  C   UNL     1       2.743   7.290  18.726  0.00  0.00    +0.000 A 
ATOM      6  C   UNL     1       3.486   7.399  17.527  0.00  0.00    +0.000 A 
ATOM      7  C   UNL     1       4.292   6.362  17.044  0.00  0.00    +0.000 A 
ATOM      8  C   UNL     1       5.017   6.452  15.832  0.00  0.00    +0.000 A 
ATOM      9  C   UNL     1       5.835   5.411  15.409  0.00  0.00    +0.000 A 
ATOM     10  C   UNL     1       5.941   4.276  16.198  0.00  0.00    +0.000 A 
ATOM     11  C   UNL     1       5.208   4.182  17.390  0.00  0.00    +0.000 A 
ATOM     12  C   UNL     1       4.367   5.203  17.832  0.00  0.00    +0.000 A 
ATOM     13  N   UNL     1       3.671   5.058  18.980  0.00  0.00    +0.000 NA
ATOM     14  C   UNL     1       2.867   6.062  19.423  0.00  0.00    +0.000 A 
ENDROOT
BRANCH   1  18
ATOM     15  C   UNL     1       1.660   2.371  21.938  0.00  0.00    +0.000 C 
ATOM     16  C   UNL     1       1.435   3.511  20.984  0.00  0.00    +0.000 C 
ATOM     17  O   UNL     1       0.641   3.382  20.056  0.00  0.00    +0.000 OA
ATOM     18  N   UNL     1       2.183   4.637  21.279  0.00  0.00    +0.000 N 
ATOM     19  H   UNL     1       2.956   4.567  21.940  0.00  0.00    +0.000 HD
ENDBRANCH   1  18
BRANCH   4  20
ATOM     20  N   UNL     1       1.716   9.516  18.471  0.00  0.00    +0.000 N 
ATOM     21  H   UNL     1       1.995   9.319  17.499  0.00  0.00    +0.000 HD
BRANCH  20  22
ATOM     22  C   UNL     1       0.343  10.054  18.438  0.00  0.00    +0.000 C 
BRANCH  22  23
ATOM     23  C   UNL     1       0.333  11.516  18.932  0.00  0.00    +0.000 C 
BRANCH  23  24
ATOM     24  N   UNL     1       1.078  11.752  20.191  0.00  0.00    +0.000 NA
ATOM     25  C   UNL     1       1.740  13.059  20.210  0.00  0.00    +0.000 C 
ATOM     26  C   UNL     1       0.146  11.662  21.321  0.00  0.00    +0.000 C 
ENDBRANCH  23  24
ENDBRANCH  22  23
ENDBRANCH  20  22
ENDBRANCH   4  20
BRANCH   6  27
ATOM     27  O   UNL     1       3.465   8.570  16.794  0.00  0.00    +0.000 OA
ATOM     28  H   UNL     1       2.514   8.796  16.670  0.00  0.00    +0.000 HD
ENDBRANCH   6  27
TORSDOF 6
ENDMDL
MODEL 4
REMARK VINA RESULT:      -6.9      2.265      7.021
REMARK  Name = 
REMARK  9 active torsions:
REMARK  status: ('A' for Active; 'I' for Inactive)
REMARK    1  A    between atoms: C_1  and  C_2
REMARK    2  A    between atoms: N_4  and  C_5
REMARK    3  A    between atoms: C_8  and  N_9
REMARK    4  A    between atoms: N_9  and  C_10
REMARK    5  A    between atoms: C_10  and  C_11
REMARK    6  A    between atoms: C_11  and  N_12
REMARK    7  A    between atoms: N_12  and  C_13
REMARK    8  A    between atoms: N_12  and  C_14
REMARK    9  A    between atoms: C_16  and  O_17
REMARK                            x       y       z     vdW  Elec       q    Type
REMARK                         _______ _______ _______ _____ _____    ______ ____
ROOT
ATOM      1  C   UNL     1       2.100   5.815  20.608  0.00  0.00    +0.000 A 
ATOM      2  C   UNL     1       1.305   6.845  21.114  0.00  0.00    +0.000 A 
ATOM      3  C   UNL     1       1.196   8.054  20.446  0.00  0.00    +0.000 A 
ATOM      4  C   UNL     1       1.908   8.277  19.270  0.00  0.00    +0.000 A 
ATOM      5  C   UNL     1       2.737   7.233  18.747  0.00  0.00    +0.000 A 
ATOM      6  C   UNL     1       3.487   7.352  17.553  0.00  0.00    +0.000 A 
ATOM      7  C   UNL     1       4.295   6.318  17.065  0.00  0.00    +0.000 A 
ATOM      8  C   UNL     1       5.026   6.419  15.858  0.00  0.00    +0.000 A 
ATOM      9  C   UNL     1       5.846   5.381  15.429  0.00  0.00    +0.000 A 
ATOM     10  C   UNL     1       5.945   4.238  16.208  0.00  0.00    +0.000 A 
ATOM     11  C   UNL     1       5.205   4.134  17.395  0.00  0.00    +0.000 A 
ATOM     12  C   UNL     1       4.363   5.151  17.842  0.00  0.00    +0.000 A 
ATOM     13  N   UNL     1       3.660   4.996  18.984  0.00  0.00    +0.000 NA
ATOM     14  C   UNL     1       2.855   5.998  19.433  0.00  0.00    +0.000 A 
ENDROOT
BRANCH   1  18
ATOM     15  C   UNL     1       1.618   2.289  21.915  0.00  0.00    +0.000 C 
ATOM     16  C   UNL     1       1.395   3.440  20.974  0.00  0.00    +0.000 C 
ATOM     17  O   UNL     1       0.588   3.328  20.054  0.00  0.00    +0.000 OA
ATOM     18  N   UNL     1       2.159   4.556  21.270  0.00  0.00    +0.000 N 
ATOM     19  H   UNL     1       2.937   4.471  21.921  0.00  0.00    +0.000 HD
ENDBRANCH   1  18
BRANCH   4  20
ATOM     20  N   UNL     1       1.715   9.462  18.507  0.00  0.00    +0.000 N 
ATOM     21  H   UNL     1       1.380   9.196  17.570  0.00  0.00    +0.000 HD
BRANCH  20  22
ATOM     22  C   UNL     1       0.764  10.447  19.055  0.00  0.00    +0.000 C 
BRANCH  22  23
ATOM     23  C   UNL     1      -0.550  10.426  18.245  0.00  0.00    +0.000 C 
BRANCH  23  24
ATOM     24  N   UNL     1      -1.456  11.571  18.502  0.00  0.00    +0.000 NA
ATOM     25  C   UNL     1      -0.790  12.862  18.308  0.00  0.00    +0.000 C 
ATOM     26  C   UNL     1      -2.610  11.478  17.600  0.00  0.00    +0.000 C 
ENDBRANCH  23  24
ENDBRANCH  22  23
ENDBRANCH  20  22
ENDBRANCH   4  20
BRANCH   6  27
ATOM     27  O   UNL     1       3.472   8.530  16.832  0.00  0.00    +0.000 OA
ATOM     28  H   UNL     1       4.140   9.117  17.257  0.00  0.00    +0.000 HD
ENDBRANCH   6  27
TORSDOF 6
ENDMDL
MODEL 5
REMARK VINA RESULT:      -6.9      1.764      4.696
REMARK  Name = 
REMARK  9 active torsions:
REMARK  status: ('A' for Active; 'I' for Inactive)
REMARK    1  A    between atoms: C_1  and  C_2
REMARK    2  A    between atoms: N_4  and  C_5
REMARK    3  A    between atoms: C_8  and  N_9
REMARK    4  A    between atoms: N_9  and  C_10
REMARK    5  A    between atoms: C_10  and  C_11
REMARK    6  A    between atoms: C_11  and  N_12
REMARK    7  A    between atoms: N_12  and  C_13
REMARK    8  A    between atoms: N_12  and  C_14
REMARK    9  A    between atoms: C_16  and  O_17
REMARK                            x       y       z     vdW  Elec       q    Type
REMARK                         _______ _______ _______ _____ _____    ______ ____
ROOT
ATOM      1  C   UNL     1       3.503   4.058  19.257  0.00  0.00    +0.000 A 
ATOM      2  C   UNL     1       4.314   3.261  18.446  0.00  0.00    +0.000 A 
ATOM      3  C   UNL     1       4.878   3.766  17.287  0.00  0.00    +0.000 A 
ATOM      4  C   UNL     1       4.619   5.075  16.888  0.00  0.00    +0.000 A 
ATOM      5  C   UNL     1       3.780   5.900  17.705  0.00  0.00    +0.000 A 
ATOM      6  C   UNL     1       3.468   7.246  17.398  0.00  0.00    +0.000 A 
ATOM      7  C   UNL     1       2.640   8.031  18.210  0.00  0.00    +0.000 A 
ATOM      8  C   UNL     1       2.345   9.385  17.926  0.00  0.00    +0.000 A 
ATOM      9  C   UNL     1       1.488  10.117  18.739  0.00  0.00    +0.000 A 
ATOM     10  C   UNL     1       0.912   9.497  19.838  0.00  0.00    +0.000 A 
ATOM     11  C   UNL     1       1.221   8.160  20.128  0.00  0.00    +0.000 A 
ATOM     12  C   UNL     1       2.089   7.406  19.339  0.00  0.00    +0.000 A 
ATOM     13  N   UNL     1       2.365   6.125  19.669  0.00  0.00    +0.000 NA
ATOM     14  C   UNL     1       3.195   5.383  18.888  0.00  0.00    +0.000 A 
ENDROOT
BRANCH   1  18
ATOM     15  C   UNL     1       1.465   2.510  22.053  0.00  0.00    +0.000 C 
ATOM     16  C   UNL     1       1.803   2.826  20.624  0.00  0.00    +0.000 C 
ATOM     17  O   UNL     1       1.057   2.452  19.723  0.00  0.00    +0.000 OA
ATOM     18  N   UNL     1       2.976   3.547  20.477  0.00  0.00    +0.000 N 
ATOM     19  H   UNL     1       3.618   3.625  21.264  0.00  0.00    +0.000 HD
ENDBRANCH   1  18
BRANCH   4  20
ATOM     20  N   UNL     1       5.285   5.649  15.770  0.00  0.00    +0.000 N 
ATOM     21  H   UNL     1       5.845   6.449  16.099  0.00  0.00    +0.000 HD
BRANCH  20  22
ATOM     22  C   UNL     1       6.185   4.758  15.015  0.00  0.00    +0.000 C 
BRANCH  22  23
ATOM     23  C   UNL     1       5.480   4.242  13.743  0.00  0.00    +0.000 C 
BRANCH  23  24
ATOM     24  N   UNL     1       6.354   3.493  12.809  0.00  0.00    +0.000 NA
ATOM     25  C   UNL     1       5.588   2.726  11.824  0.00  0.00    +0.000 C 
ATOM     26  C   UNL     1       7.231   4.442  12.112  0.00  0.00    +0.000 C 
ENDBRANCH  23  24
ENDBRANCH  22  23
ENDBRANCH  20  22
ENDBRANCH   4  20
BRANCH   6  27
ATOM     27  O   UNL     1       3.954   7.832  16.246  0.00  0.00    +0.000 OA
ATOM     28  H   UNL     1       4.931   7.702  16.266  0.00  0.00    +0.000 HD
ENDBRANCH   6  27
TORSDOF 6
ENDMDL
MODEL 6
REMARK VINA RESULT:      -6.8      1.529      2.353
REMARK  Name = 
REMARK  9 active torsions:
REMARK  status: ('A' for Active; 'I' for Inactive)
REMARK    1  A    between atoms: C_1  and  C_2
REMARK    2  A    between atoms: N_4  and  C_5
REMARK    3  A    between atoms: C_8  and  N_9
REMARK    4  A    between atoms: N_9  and  C_10
REMARK    5  A    between atoms: C_10  and  C_11
REMARK    6  A    between atoms: C_11  and  N_12
REMARK    7  A    between atoms: N_12  and  C_13
REMARK    8  A    between atoms: N_12  and  C_14
REMARK    9  A    between atoms: C_16  and  O_17
REMARK                            x       y       z     vdW  Elec       q    Type
REMARK                         _______ _______ _______ _____ _____    ______ ____
ROOT
ATOM      1  C   UNL     1       2.751   7.647  18.504  0.00  0.00    +0.000 A 
ATOM      2  C   UNL     1       3.500   8.183  17.455  0.00  0.00    +0.000 A 
ATOM      3  C   UNL     1       4.302   7.374  16.667  0.00  0.00    +0.000 A 
ATOM      4  C   UNL     1       4.402   6.010  16.929  0.00  0.00    +0.000 A 
ATOM      5  C   UNL     1       3.648   5.449  18.010  0.00  0.00    +0.000 A 
ATOM      6  C   UNL     1       3.667   4.075  18.348  0.00  0.00    +0.000 A 
ATOM      7  C   UNL     1       2.924   3.552  19.414  0.00  0.00    +0.000 A 
ATOM      8  C   UNL     1       2.916   2.176  19.742  0.00  0.00    +0.000 A 
ATOM      9  C   UNL     1       2.193   1.705  20.832  0.00  0.00    +0.000 A 
ATOM     10  C   UNL     1       1.480   2.608  21.606  0.00  0.00    +0.000 A 
ATOM     11  C   UNL     1       1.475   3.968  21.268  0.00  0.00    +0.000 A 
ATOM     12  C   UNL     1       2.178   4.468  20.171  0.00  0.00    +0.000 A 
ATOM     13  N   UNL     1       2.130   5.786  19.879  0.00  0.00    +0.000 NA
ATOM     14  C   UNL     1       2.832   6.277  18.822  0.00  0.00    +0.000 A 
ENDROOT
BRANCH   1  18
ATOM     15  C   UNL     1       0.235  10.153  19.829  0.00  0.00    +0.000 C 
ATOM     16  C   UNL     1       0.925   9.341  18.771  0.00  0.00    +0.000 C 
ATOM     17  O   UNL     1       0.617   9.489  17.591  0.00  0.00    +0.000 OA
ATOM     18  N   UNL     1       1.884   8.477  19.271  0.00  0.00    +0.000 N 
ATOM     19  H   UNL     1       1.913   8.286  20.271  0.00  0.00    +0.000 HD
ENDBRANCH   1  18
BRANCH   4  20
ATOM     20  N   UNL     1       5.122   5.144  16.058  0.00  0.00    +0.000 N 
ATOM     21  H   UNL     1       4.731   5.238  15.110  0.00  0.00    +0.000 HD
BRANCH  20  22
ATOM     22  C   UNL     1       6.576   5.370  15.964  0.00  0.00    +0.000 C 
BRANCH  22  23
ATOM     23  C   UNL     1       7.291   4.745  17.180  0.00  0.00    +0.000 C 
BRANCH  23  24
ATOM     24  N   UNL     1       7.794   5.722  18.175  0.00  0.00    +0.000 NA
ATOM     25  C   UNL     1       7.663   7.106  17.712  0.00  0.00    +0.000 C 
ATOM     26  C   UNL     1       7.046   5.555  19.427  0.00  0.00    +0.000 C 
ENDBRANCH  23  24
ENDBRANCH  22  23
ENDBRANCH  20  22
ENDBRANCH   4  20
BRANCH   6  27
ATOM     27  O   UNL     1       4.461   3.192  17.644  0.00  0.00    +0.000 OA
ATOM     28  H   UNL     1       3.863   2.739  17.005  0.00  0.00    +0.000 HD
ENDBRANCH   6  27
TORSDOF 6
ENDMDL
MODEL 7
REMARK VINA RESULT:      -6.8      1.337      1.615
REMARK  Name = 
REMARK  9 active torsions:
REMARK  status: ('A' for Active; 'I' for Inactive)
REMARK    1  A    between atoms: C_1  and  C_2
REMARK    2  A    between atoms: N_4  and  C_5
REMARK    3  A    between atoms: C_8  and  N_9
REMARK    4  A    between atoms: N_9  and  C_10
REMARK    5  A    between atoms: C_10  and  C_11
REMARK    6  A    between atoms: C_11  and  N_12
REMARK    7  A    between atoms: N_12  and  C_13
REMARK    8  A    between atoms: N_12  and  C_14
REMARK    9  A    between atoms: C_16  and  O_17
REMARK                            x       y       z     vdW  Elec       q    Type
REMARK                         _______ _______ _______ _____ _____    ______ ____
ROOT
ATOM      1  C   UNL     1       3.800   7.267  17.579  0.00  0.00    +0.000 A 
ATOM      2  C   UNL     1       4.652   7.402  16.481  0.00  0.00    +0.000 A 
ATOM      3  C   UNL     1       5.229   6.292  15.887  0.00  0.00    +0.000 A 
ATOM      4  C   UNL     1       4.996   5.017  16.396  0.00  0.00    +0.000 A 
ATOM      5  C   UNL     1       4.133   4.866  17.529  0.00  0.00    +0.000 A 
ATOM      6  C   UNL     1       3.818   3.615  18.111  0.00  0.00    +0.000 A 
ATOM      7  C   UNL     1       2.976   3.493  19.223  0.00  0.00    +0.000 A 
ATOM      8  C   UNL     1       2.634   2.244  19.796  0.00  0.00    +0.000 A 
ATOM      9  C   UNL     1       1.824   2.172  20.922  0.00  0.00    +0.000 A 
ATOM     10  C   UNL     1       1.355   3.347  21.490  0.00  0.00    +0.000 A 
ATOM     11  C   UNL     1       1.681   4.582  20.910  0.00  0.00    +0.000 A 
ATOM     12  C   UNL     1       2.478   4.685  19.771  0.00  0.00    +0.000 A 
ATOM     13  N   UNL     1       2.751   5.898  19.242  0.00  0.00    +0.000 NA
ATOM     14  C   UNL     1       3.547   6.001  18.144  0.00  0.00    +0.000 A 
ENDROOT
BRANCH   1  18
ATOM     15  C   UNL     1       1.509  10.112  18.592  0.00  0.00    +0.000 C 
ATOM     16  C   UNL     1       1.859   8.811  17.927  0.00  0.00    +0.000 C 
ATOM     17  O   UNL     1       1.013   8.219  17.261  0.00  0.00    +0.000 OA
ATOM     18  N   UNL     1       3.165   8.408  18.147  0.00  0.00    +0.000 N 
ATOM     19  H   UNL     1       3.713   8.861  18.875  0.00  0.00    +0.000 HD
ENDBRANCH   1  18
BRANCH   4  20
ATOM     20  N   UNL     1       5.479   3.858  15.727  0.00  0.00    +0.000 N 
ATOM     21  H   UNL     1       4.691   3.208  15.591  0.00  0.00    +0.000 HD
BRANCH  20  22
ATOM     22  C   UNL     1       6.107   4.076  14.411  0.00  0.00    +0.000 C 
BRANCH  22  23
ATOM     23  C   UNL     1       5.164   3.600  13.285  0.00  0.00    +0.000 C 
BRANCH  23  24
ATOM     24  N   UNL     1       5.801   3.479  11.951  0.00  0.00    +0.000 NA
ATOM     25  C   UNL     1       7.213   3.869  11.971  0.00  0.00    +0.000 C 
ATOM     26  C   UNL     1       5.685   2.090  11.492  0.00  0.00    +0.000 C 
ENDBRANCH  23  24
ENDBRANCH  22  23
ENDBRANCH  20  22
ENDBRANCH   4  20
BRANCH   6  27
ATOM     27  O   UNL     1       4.370   2.451  17.612  0.00  0.00    +0.000 OA
ATOM     28  H   UNL     1       5.044   2.166  18.272  0.00  0.00    +0.000 HD
ENDBRANCH   6  27
TORSDOF 6
ENDMDL
MODEL 8
REMARK VINA RESULT:      -6.7      1.792      4.734
REMARK  Name = 
REMARK  9 active torsions:
REMARK  status: ('A' for Active; 'I' for Inactive)
REMARK    1  A    between atoms: C_1  and  C_2
REMARK    2  A    between atoms: N_4  and  C_5
REMARK    3  A    between atoms: C_8  and  N_9
REMARK    4  A    between atoms: N_9  and  C_10
REMARK    5  A    between atoms: C_10  and  C_11
REMARK    6  A    between atoms: C_11  and  N_12
REMARK    7  A    between atoms: N_12  and  C_13
REMARK    8  A    between atoms: N_12  and  C_14
REMARK    9  A    between atoms: C_16  and  O_17
REMARK                            x       y       z     vdW  Elec       q    Type
REMARK                         _______ _______ _______ _____ _____    ______ ____
ROOT
ATOM      1  C   UNL     1       3.329   4.094  19.460  0.00  0.00    +0.000 A 
ATOM      2  C   UNL     1       4.147   3.316  18.639  0.00  0.00    +0.000 A 
ATOM      3  C   UNL     1       4.717   3.846  17.493  0.00  0.00    +0.000 A 
ATOM      4  C   UNL     1       4.456   5.162  17.119  0.00  0.00    +0.000 A 
ATOM      5  C   UNL     1       3.609   5.968  17.946  0.00  0.00    +0.000 A 
ATOM      6  C   UNL     1       3.295   7.319  17.665  0.00  0.00    +0.000 A 
ATOM      7  C   UNL     1       2.459   8.085  18.487  0.00  0.00    +0.000 A 
ATOM      8  C   UNL     1       2.162   9.443  18.228  0.00  0.00    +0.000 A 
ATOM      9  C   UNL     1       1.298  10.156  19.050  0.00  0.00    +0.000 A 
ATOM     10  C   UNL     1       0.718   9.513  20.134  0.00  0.00    +0.000 A 
ATOM     11  C   UNL     1       1.029   8.171  20.398  0.00  0.00    +0.000 A 
ATOM     12  C   UNL     1       1.904   7.436  19.600  0.00  0.00    +0.000 A 
ATOM     13  N   UNL     1       2.182   6.150  19.906  0.00  0.00    +0.000 NA
ATOM     14  C   UNL     1       3.019   5.425  19.115  0.00  0.00    +0.000 A 
ENDROOT
BRANCH   1  18
ATOM     15  C   UNL     1       1.271   2.505  22.218  0.00  0.00    +0.000 C 
ATOM     16  C   UNL     1       1.610   2.857  20.797  0.00  0.00    +0.000 C 
ATOM     17  O   UNL     1       0.852   2.527  19.889  0.00  0.00    +0.000 OA
ATOM     18  N   UNL     1       2.797   3.558  20.667  0.00  0.00    +0.000 N 
ATOM     19  H   UNL     1       3.443   3.598  21.453  0.00  0.00    +0.000 HD
ENDBRANCH   1  18
BRANCH   4  20
ATOM     20  N   UNL     1       5.127   5.760  16.016  0.00  0.00    +0.000 N 
ATOM     21  H   UNL     1       4.792   6.729  15.917  0.00  0.00    +0.000 HD
BRANCH  20  22
ATOM     22  C   UNL     1       6.599   5.804  16.091  0.00  0.00    +0.000 C 
BRANCH  22  23
ATOM     23  C   UNL     1       7.212   4.773  15.120  0.00  0.00    +0.000 C 
BRANCH  23  24
ATOM     24  N   UNL     1       6.888   4.997  13.690  0.00  0.00    +0.000 NA
ATOM     25  C   UNL     1       8.067   5.364  12.903  0.00  0.00    +0.000 C 
ATOM     26  C   UNL     1       6.296   3.772  13.138  0.00  0.00    +0.000 C 
ENDBRANCH  23  24
ENDBRANCH  22  23
ENDBRANCH  20  22
ENDBRANCH   4  20
BRANCH   6  27
ATOM     27  O   UNL     1       3.786   7.929  16.527  0.00  0.00    +0.000 OA
ATOM     28  H   UNL     1       4.423   7.291  16.130  0.00  0.00    +0.000 HD
ENDBRANCH   6  27
TORSDOF 6
ENDMDL
MODEL 9
REMARK VINA RESULT:      -6.6      2.061      5.957
REMARK  Name = 
REMARK  9 active torsions:
REMARK  status: ('A' for Active; 'I' for Inactive)
REMARK    1  A    between atoms: C_1  and  C_2
REMARK    2  A    between atoms: N_4  and  C_5
REMARK    3  A    between atoms: C_8  and  N_9
REMARK    4  A    between atoms: N_9  and  C_10
REMARK    5  A    between atoms: C_10  and  C_11
REMARK    6  A    between atoms: C_11  and  N_12
REMARK    7  A    between atoms: N_12  and  C_13
REMARK    8  A    between atoms: N_12  and  C_14
REMARK    9  A    between atoms: C_16  and  O_17
REMARK                            x       y       z     vdW  Elec       q    Type
REMARK                         _______ _______ _______ _____ _____    ______ ____
ROOT
ATOM      1  C   UNL     1       4.227   6.270  17.078  0.00  0.00    +0.000 A 
ATOM      2  C   UNL     1       3.930   7.584  16.712  0.00  0.00    +0.000 A 
ATOM      3  C   UNL     1       3.068   8.357  17.470  0.00  0.00    +0.000 A 
ATOM      4  C   UNL     1       2.450   7.825  18.599  0.00  0.00    +0.000 A 
ATOM      5  C   UNL     1       2.737   6.474  18.980  0.00  0.00    +0.000 A 
ATOM      6  C   UNL     1       2.177   5.845  20.117  0.00  0.00    +0.000 A 
ATOM      7  C   UNL     1       2.469   4.521  20.465  0.00  0.00    +0.000 A 
ATOM      8  C   UNL     1       1.934   3.892  21.615  0.00  0.00    +0.000 A 
ATOM      9  C   UNL     1       2.221   2.564  21.903  0.00  0.00    +0.000 A 
ATOM     10  C   UNL     1       3.039   1.850  21.039  0.00  0.00    +0.000 A 
ATOM     11  C   UNL     1       3.582   2.481  19.910  0.00  0.00    +0.000 A 
ATOM     12  C   UNL     1       3.324   3.817  19.604  0.00  0.00    +0.000 A 
ATOM     13  N   UNL     1       3.883   4.382  18.512  0.00  0.00    +0.000 NA
ATOM     14  C   UNL     1       3.615   5.679  18.201  0.00  0.00    +0.000 A 
ENDROOT
BRANCH   1  18
ATOM     15  C   UNL     1       7.218   4.830  15.247  0.00  0.00    +0.000 C 
ATOM     16  C   UNL     1       6.513   5.769  16.185  0.00  0.00    +0.000 C 
ATOM     17  O   UNL     1       7.143   6.668  16.735  0.00  0.00    +0.000 OA
ATOM     18  N   UNL     1       5.162   5.503  16.325  0.00  0.00    +0.000 N 
ATOM     19  H   UNL     1       4.788   4.618  15.989  0.00  0.00    +0.000 HD
ENDBRANCH   1  18
BRANCH   4  20
ATOM     20  N   UNL     1       1.659   8.638  19.458  0.00  0.00    +0.000 N 
ATOM     21  H   UNL     1       2.273   9.044  20.179  0.00  0.00    +0.000 HD
BRANCH  20  22
ATOM     22  C   UNL     1       0.929   9.749  18.819  0.00  0.00    +0.000 C 
BRANCH  22  23
ATOM     23  C   UNL     1      -0.307  10.127  19.662  0.00  0.00    +0.000 C 
BRANCH  23  24
ATOM     24  N   UNL     1      -1.382  10.820  18.911  0.00  0.00    +0.000 NA
ATOM     25  C   UNL     1      -1.071  12.231  18.668  0.00  0.00    +0.000 C 
ATOM     26  C   UNL     1      -1.582  10.138  17.627  0.00  0.00    +0.000 C 
ENDBRANCH  23  24
ENDBRANCH  22  23
ENDBRANCH  20  22
ENDBRANCH   4  20
BRANCH   6  27
ATOM     27  O   UNL     1       1.278   6.521  20.919  0.00  0.00    +0.000 OA
ATOM     28  H   UNL     1       1.063   7.356  20.442  0.00  0.00    +0.000 HD
ENDBRANCH   6  27
TORSDOF 6
ENDMDL
