MODEL 1
REMARK VINA RESULT:      -8.6      0.000      0.000
REMARK  Name = 
REMARK  5 active torsions:
REMARK  status: ('A' for Active; 'I' for Inactive)
REMARK    1  A    between atoms: C_1  and  C_2
REMARK    2  A    between atoms: C_2  and  N_3
REMARK    3  A    between atoms: C_2  and  C_17
REMARK    4  A    between atoms: C_4  and  C_6
REMARK    5  A    between atoms: C_12  and  O_13
REMARK                            x       y       z     vdW  Elec       q    Type
REMARK                         _______ _______ _______ _____ _____    ______ ____
ROOT
ATOM      1  N   UNL     1       5.572   4.445  16.818  0.00  0.00    +0.000 N 
ATOM      2  C   UNL     1       5.475   4.178  18.171  0.00  0.00    +0.000 C 
ATOM      3  O   UNL     1       6.444   4.241  18.911  0.00  0.00    +0.000 OA
ATOM      4  H   UNL     1       4.853   4.099  16.205  0.00  0.00    +0.000 HD
ENDROOT
BRANCH   2   5
ATOM      5  C   UNL     1       4.064   3.836  18.692  0.00  0.00    +0.000 C 
ATOM      6  C   UNL     1       3.204   5.130  18.669  0.00  0.00    +0.000 C 
ATOM      7  C   UNL     1       1.774   4.854  19.151  0.00  0.00    +0.000 C 
ATOM      8  C   UNL     1       1.130   3.810  18.224  0.00  0.00    +0.000 C 
ATOM      9  C   UNL     1       1.947   2.506  18.246  0.00  0.00    +0.000 C 
ATOM     10  C   UNL     1       1.986   1.968  19.684  0.00  0.00    +0.000 C 
ATOM     11  C   UNL     1       2.639   3.004  20.615  0.00  0.00    +0.000 C 
ATOM     12  C   UNL     1       1.826   4.308  20.585  0.00  0.00    +0.000 C 
ATOM     13  C   UNL     1       4.074   3.283  20.134  0.00  0.00    +0.000 C 
ATOM     14  C   UNL     1       3.387   2.790  17.772  0.00  0.00    +0.000 C 
BRANCH  11  15
ATOM     15  O   UNL     1       2.693   2.493  21.939  0.00  0.00    +0.000 OA
ATOM     16  H   UNL     1       2.574   1.529  21.896  0.00  0.00    +0.000 HD
ENDBRANCH  11  15
ENDBRANCH   2   5
BRANCH   1  18
ATOM     17  C   UNL     1       7.081   6.376  16.533  0.00  0.00    +0.000 C 
ATOM     18  C   UNL     1       6.832   4.890  16.224  0.00  0.00    +0.000 C 
BRANCH  18  19
ATOM     19  C   UNL     1       6.850   4.652  14.719  0.00  0.00    +0.000 A 
ATOM     20  C   UNL     1       5.991   3.723  14.104  0.00  0.00    +0.000 A 
ATOM     21  C   UNL     1       6.051   3.495  12.724  0.00  0.00    +0.000 A 
ATOM     22  C   UNL     1       6.944   4.217  11.932  0.00  0.00    +0.000 A 
ATOM     23  C   UNL     1       7.788   5.151  12.525  0.00  0.00    +0.000 A 
ATOM     24  C   UNL     1       7.752   5.357  13.902  0.00  0.00    +0.000 A 
ENDBRANCH  18  19
ENDBRANCH   1  18
TORSDOF 4
ENDMDL
MODEL 2
REMARK VINA RESULT:      -8.6      0.045      1.028
REMARK  Name = 
REMARK  5 active torsions:
REMARK  status: ('A' for Active; 'I' for Inactive)
REMARK    1  A    between atoms: C_1  and  C_2
REMARK    2  A    between atoms: C_2  and  N_3
REMARK    3  A    between atoms: C_2  and  C_17
REMARK    4  A    between atoms: C_4  and  C_6
REMARK    5  A    between atoms: C_12  and  O_13
REMARK                            x       y       z     vdW  Elec       q    Type
REMARK                         _______ _______ _______ _____ _____    ______ ____
ROOT
ATOM      1  N   UNL     1       5.583   4.493  16.844  0.00  0.00    +0.000 N 
ATOM      2  C   UNL     1       5.485   4.194  18.189  0.00  0.00    +0.000 C 
ATOM      3  O   UNL     1       6.456   4.226  18.928  0.00  0.00    +0.000 OA
ATOM      4  H   UNL     1       4.859   4.171  16.223  0.00  0.00    +0.000 HD
ENDROOT
BRANCH   2   5
ATOM      5  C   UNL     1       4.071   3.856  18.704  0.00  0.00    +0.000 C 
ATOM      6  C   UNL     1       3.218   5.155  18.687  0.00  0.00    +0.000 C 
ATOM      7  C   UNL     1       1.785   4.884  19.164  0.00  0.00    +0.000 C 
ATOM      8  C   UNL     1       1.138   3.849  18.228  0.00  0.00    +0.000 C 
ATOM      9  C   UNL     1       1.947   2.541  18.244  0.00  0.00    +0.000 C 
ATOM     10  C   UNL     1       1.979   1.993  19.679  0.00  0.00    +0.000 C 
ATOM     11  C   UNL     1       2.635   3.020  20.619  0.00  0.00    +0.000 C 
ATOM     12  C   UNL     1       1.830   4.329  20.594  0.00  0.00    +0.000 C 
ATOM     13  C   UNL     1       4.074   3.294  20.143  0.00  0.00    +0.000 C 
ATOM     14  C   UNL     1       3.390   2.820  17.776  0.00  0.00    +0.000 C 
BRANCH  11  15
ATOM     15  O   UNL     1       2.684   2.501  21.940  0.00  0.00    +0.000 OA
ATOM     16  H   UNL     1       1.835   2.695  22.372  0.00  0.00    +0.000 HD
ENDBRANCH  11  15
ENDBRANCH   2   5
BRANCH   1  18
ATOM     17  C   UNL     1       7.084   6.429  16.548  0.00  0.00    +0.000 C 
ATOM     18  C   UNL     1       6.847   4.937  16.258  0.00  0.00    +0.000 C 
BRANCH  18  19
ATOM     19  C   UNL     1       6.885   4.677  14.757  0.00  0.00    +0.000 A 
ATOM     20  C   UNL     1       7.775   5.358  13.907  0.00  0.00    +0.000 A 
ATOM     21  C   UNL     1       7.766   5.129  12.526  0.00  0.00    +0.000 A 
ATOM     22  C   UNL     1       6.893   4.190  11.977  0.00  0.00    +0.000 A 
ATOM     23  C   UNL     1       6.018   3.497  12.808  0.00  0.00    +0.000 A 
ATOM     24  C   UNL     1       6.004   3.746  14.178  0.00  0.00    +0.000 A 
ENDBRANCH  18  19
ENDBRANCH   1  18
TORSDOF 4
ENDMDL
MODEL 3
REMARK VINA RESULT:      -8.5      0.971      1.512
REMARK  Name = 
REMARK  5 active torsions:
REMARK  status: ('A' for Active; 'I' for Inactive)
REMARK    1  A    between atoms: C_1  and  C_2
REMARK    2  A    between atoms: C_2  and  N_3
REMARK    3  A    between atoms: C_2  and  C_17
REMARK    4  A    between atoms: C_4  and  C_6
REMARK    5  A    between atoms: C_12  and  O_13
REMARK                            x       y       z     vdW  Elec       q    Type
REMARK                         _______ _______ _______ _____ _____    ______ ____
ROOT
ATOM      1  N   UNL     1       5.651   4.644  16.908  0.00  0.00    +0.000 N 
ATOM      2  C   UNL     1       5.614   4.342  18.255  0.00  0.00    +0.000 C 
ATOM      3  O   UNL     1       6.626   4.323  18.940  0.00  0.00    +0.000 OA
ATOM      4  H   UNL     1       4.879   4.361  16.328  0.00  0.00    +0.000 HD
ENDROOT
BRANCH   2   5
ATOM      5  C   UNL     1       4.217   4.069  18.848  0.00  0.00    +0.000 C 
ATOM      6  C   UNL     1       3.233   3.787  17.679  0.00  0.00    +0.000 C 
ATOM      7  C   UNL     1       1.824   3.479  18.202  0.00  0.00    +0.000 C 
ATOM      8  C   UNL     1       1.890   2.239  19.108  0.00  0.00    +0.000 C 
ATOM      9  C   UNL     1       2.839   2.497  20.291  0.00  0.00    +0.000 C 
ATOM     10  C   UNL     1       2.317   3.698  21.095  0.00  0.00    +0.000 C 
ATOM     11  C   UNL     1       2.257   4.945  20.196  0.00  0.00    +0.000 C 
ATOM     12  C   UNL     1       1.316   4.681  19.010  0.00  0.00    +0.000 C 
ATOM     13  C   UNL     1       3.670   5.257  19.670  0.00  0.00    +0.000 C 
ATOM     14  C   UNL     1       4.251   2.818  19.761  0.00  0.00    +0.000 C 
BRANCH  11  15
ATOM     15  O   UNL     1       1.795   6.057  20.949  0.00  0.00    +0.000 OA
ATOM     16  H   UNL     1       1.608   5.754  21.853  0.00  0.00    +0.000 HD
ENDBRANCH  11  15
ENDBRANCH   2   5
BRANCH   1  18
ATOM     17  C   UNL     1       7.194   6.523  16.486  0.00  0.00    +0.000 C 
ATOM     18  C   UNL     1       6.901   5.031  16.253  0.00  0.00    +0.000 C 
BRANCH  18  19
ATOM     19  C   UNL     1       6.864   4.724  14.761  0.00  0.00    +0.000 A 
ATOM     20  C   UNL     1       5.962   3.792  14.217  0.00  0.00    +0.000 A 
ATOM     21  C   UNL     1       5.972   3.500  12.848  0.00  0.00    +0.000 A 
ATOM     22  C   UNL     1       6.857   4.161  11.996  0.00  0.00    +0.000 A 
ATOM     23  C   UNL     1       7.742   5.097  12.518  0.00  0.00    +0.000 A 
ATOM     24  C   UNL     1       7.756   5.367  13.885  0.00  0.00    +0.000 A 
ENDBRANCH  18  19
ENDBRANCH   1  18
TORSDOF 4
ENDMDL
MODEL 4
REMARK VINA RESULT:      -8.4      0.969      1.818
REMARK  Name = 
REMARK  5 active torsions:
REMARK  status: ('A' for Active; 'I' for Inactive)
REMARK    1  A    between atoms: C_1  and  C_2
REMARK    2  A    between atoms: C_2  and  N_3
REMARK    3  A    between atoms: C_2  and  C_17
REMARK    4  A    between atoms: C_4  and  C_6
REMARK    5  A    between atoms: C_12  and  O_13
REMARK                            x       y       z     vdW  Elec       q    Type
REMARK                         _______ _______ _______ _____ _____    ______ ____
ROOT
ATOM      1  N   UNL     1       5.669   4.668  16.905  0.00  0.00    +0.000 N 
ATOM      2  C   UNL     1       5.601   4.366  18.252  0.00  0.00    +0.000 C 
ATOM      3  O   UNL     1       6.593   4.381  18.965  0.00  0.00    +0.000 OA
ATOM      4  H   UNL     1       4.923   4.360  16.303  0.00  0.00    +0.000 HD
ENDROOT
BRANCH   2   5
ATOM      5  C   UNL     1       4.197   4.051  18.804  0.00  0.00    +0.000 C 
ATOM      6  C   UNL     1       3.251   3.761  17.606  0.00  0.00    +0.000 C 
ATOM      7  C   UNL     1       1.837   3.410  18.088  0.00  0.00    +0.000 C 
ATOM      8  C   UNL     1       1.911   2.160  18.979  0.00  0.00    +0.000 C 
ATOM      9  C   UNL     1       2.822   2.425  20.190  0.00  0.00    +0.000 C 
ATOM     10  C   UNL     1       2.249   3.602  20.995  0.00  0.00    +0.000 C 
ATOM     11  C   UNL     1       2.181   4.859  20.112  0.00  0.00    +0.000 C 
ATOM     12  C   UNL     1       1.278   4.588  18.898  0.00  0.00    +0.000 C 
ATOM     13  C   UNL     1       3.599   5.214  19.626  0.00  0.00    +0.000 C 
ATOM     14  C   UNL     1       4.239   2.789  19.701  0.00  0.00    +0.000 C 
BRANCH  11  15
ATOM     15  O   UNL     1       1.672   5.949  20.866  0.00  0.00    +0.000 OA
ATOM     16  H   UNL     1       1.146   6.510  20.270  0.00  0.00    +0.000 HD
ENDBRANCH  11  15
ENDBRANCH   2   5
BRANCH   1  18
ATOM     17  C   UNL     1       7.169   6.591  16.535  0.00  0.00    +0.000 C 
ATOM     18  C   UNL     1       6.924   5.093  16.287  0.00  0.00    +0.000 C 
BRANCH  18  19
ATOM     19  C   UNL     1       6.935   4.795  14.793  0.00  0.00    +0.000 A 
ATOM     20  C   UNL     1       7.866   5.391  13.923  0.00  0.00    +0.000 A 
ATOM     21  C   UNL     1       7.833   5.130  12.548  0.00  0.00    +0.000 A 
ATOM     22  C   UNL     1       6.894   4.241  12.025  0.00  0.00    +0.000 A 
ATOM     23  C   UNL     1       5.978   3.630  12.876  0.00  0.00    +0.000 A 
ATOM     24  C   UNL     1       5.988   3.913  14.240  0.00  0.00    +0.000 A 
ENDBRANCH  18  19
ENDBRANCH   1  18
TORSDOF 4
ENDMDL
MODEL 5
REMARK VINA RESULT:      -8.2      1.276      2.413
REMARK  Name = 
REMARK  5 active torsions:
REMARK  status: ('A' for Active; 'I' for Inactive)
REMARK    1  A    between atoms: C_1  and  C_2
REMARK    2  A    between atoms: C_2  and  N_3
REMARK    3  A    between atoms: C_2  and  C_17
REMARK    4  A    between atoms: C_4  and  C_6
REMARK    5  A    between atoms: C_12  and  O_13
REMARK                            x       y       z     vdW  Elec       q    Type
REMARK                         _______ _______ _______ _____ _____    ______ ____
ROOT
ATOM      1  N   UNL     1       5.607   4.700  16.965  0.00  0.00    +0.000 N 
ATOM      2  C   UNL     1       5.528   4.363  18.303  0.00  0.00    +0.000 C 
ATOM      3  O   UNL     1       6.521   4.312  19.013  0.00  0.00    +0.000 OA
ATOM      4  H   UNL     1       4.846   4.444  16.357  0.00  0.00    +0.000 HD
ENDROOT
BRANCH   2   5
ATOM      5  C   UNL     1       4.112   4.097  18.851  0.00  0.00    +0.000 C 
ATOM      6  C   UNL     1       4.069   2.653  19.421  0.00  0.00    +0.000 C 
ATOM      7  C   UNL     1       2.689   2.330  20.011  0.00  0.00    +0.000 C 
ATOM      8  C   UNL     1       2.389   3.324  21.145  0.00  0.00    +0.000 C 
ATOM      9  C   UNL     1       2.399   4.764  20.604  0.00  0.00    +0.000 C 
ATOM     10  C   UNL     1       1.331   4.891  19.508  0.00  0.00    +0.000 C 
ATOM     11  C   UNL     1       1.631   3.906  18.364  0.00  0.00    +0.000 C 
ATOM     12  C   UNL     1       1.629   2.469  18.910  0.00  0.00    +0.000 C 
ATOM     13  C   UNL     1       3.015   4.227  17.771  0.00  0.00    +0.000 C 
ATOM     14  C   UNL     1       3.784   5.080  20.001  0.00  0.00    +0.000 C 
BRANCH  11  15
ATOM     15  O   UNL     1       0.654   4.043  17.343  0.00  0.00    +0.000 OA
ATOM     16  H   UNL     1       1.055   4.534  16.606  0.00  0.00    +0.000 HD
ENDBRANCH  11  15
ENDBRANCH   2   5
BRANCH   1  18
ATOM     17  C   UNL     1       7.160   6.579  16.585  0.00  0.00    +0.000 C 
ATOM     18  C   UNL     1       6.879   5.084  16.354  0.00  0.00    +0.000 C 
BRANCH  18  19
ATOM     19  C   UNL     1       6.898   4.766  14.864  0.00  0.00    +0.000 A 
ATOM     20  C   UNL     1       7.802   5.386  13.984  0.00  0.00    +0.000 A 
ATOM     21  C   UNL     1       7.776   5.104  12.613  0.00  0.00    +0.000 A 
ATOM     22  C   UNL     1       6.871   4.171  12.105  0.00  0.00    +0.000 A 
ATOM     23  C   UNL     1       5.982   3.537  12.968  0.00  0.00    +0.000 A 
ATOM     24  C   UNL     1       5.985   3.840  14.328  0.00  0.00    +0.000 A 
ENDBRANCH  18  19
ENDBRANCH   1  18
TORSDOF 4
ENDMDL
MODEL 6
REMARK VINA RESULT:      -8.1      1.260      2.180
REMARK  Name = 
REMARK  5 active torsions:
REMARK  status: ('A' for Active; 'I' for Inactive)
REMARK    1  A    between atoms: C_1  and  C_2
REMARK    2  A    between atoms: C_2  and  N_3
REMARK    3  A    between atoms: C_2  and  C_17
REMARK    4  A    between atoms: C_4  and  C_6
REMARK    5  A    between atoms: C_12  and  O_13
REMARK                            x       y       z     vdW  Elec       q    Type
REMARK                         _______ _______ _______ _____ _____    ______ ____
ROOT
ATOM      1  N   UNL     1       5.559   4.666  17.091  0.00  0.00    +0.000 N 
ATOM      2  C   UNL     1       5.475   4.375  18.439  0.00  0.00    +0.000 C 
ATOM      3  O   UNL     1       6.465   4.352  19.155  0.00  0.00    +0.000 OA
ATOM      4  H   UNL     1       4.803   4.386  16.488  0.00  0.00    +0.000 HD
ENDROOT
BRANCH   2   5
ATOM      5  C   UNL     1       4.058   4.120  18.988  0.00  0.00    +0.000 C 
ATOM      6  C   UNL     1       4.040   2.729  19.680  0.00  0.00    +0.000 C 
ATOM      7  C   UNL     1       2.660   2.423  20.277  0.00  0.00    +0.000 C 
ATOM      8  C   UNL     1       2.318   3.502  21.317  0.00  0.00    +0.000 C 
ATOM      9  C   UNL     1       2.302   4.891  20.655  0.00  0.00    +0.000 C 
ATOM     10  C   UNL     1       1.248   4.896  19.537  0.00  0.00    +0.000 C 
ATOM     11  C   UNL     1       1.590   3.825  18.487  0.00  0.00    +0.000 C 
ATOM     12  C   UNL     1       1.614   2.440  19.153  0.00  0.00    +0.000 C 
ATOM     13  C   UNL     1       2.975   4.130  17.887  0.00  0.00    +0.000 C 
ATOM     14  C   UNL     1       3.688   5.189  20.046  0.00  0.00    +0.000 C 
BRANCH  11  15
ATOM     15  O   UNL     1       0.626   3.850  17.445  0.00  0.00    +0.000 OA
ATOM     16  H   UNL     1       1.099   3.897  16.596  0.00  0.00    +0.000 HD
ENDBRANCH  11  15
ENDBRANCH   2   5
BRANCH   1  18
ATOM     17  C   UNL     1       7.138   6.524  16.714  0.00  0.00    +0.000 C 
ATOM     18  C   UNL     1       6.832   5.036  16.474  0.00  0.00    +0.000 C 
BRANCH  18  19
ATOM     19  C   UNL     1       6.836   4.729  14.981  0.00  0.00    +0.000 A 
ATOM     20  C   UNL     1       5.932   3.814  14.409  0.00  0.00    +0.000 A 
ATOM     21  C   UNL     1       5.979   3.521  13.041  0.00  0.00    +0.000 A 
ATOM     22  C   UNL     1       6.903   4.163  12.217  0.00  0.00    +0.000 A 
ATOM     23  C   UNL     1       7.791   5.083  12.766  0.00  0.00    +0.000 A 
ATOM     24  C   UNL     1       7.768   5.353  14.133  0.00  0.00    +0.000 A 
ENDBRANCH  18  19
ENDBRANCH   1  18
TORSDOF 4
ENDMDL
MODEL 7
REMARK VINA RESULT:      -8.0      0.909      1.797
REMARK  Name = 
REMARK  5 active torsions:
REMARK  status: ('A' for Active; 'I' for Inactive)
REMARK    1  A    between atoms: C_1  and  C_2
REMARK    2  A    between atoms: C_2  and  N_3
REMARK    3  A    between atoms: C_2  and  C_17
REMARK    4  A    between atoms: C_4  and  C_6
REMARK    5  A    between atoms: C_12  and  O_13
REMARK                            x       y       z     vdW  Elec       q    Type
REMARK                         _______ _______ _______ _____ _____    ______ ____
ROOT
ATOM      1  N   UNL     1       5.588   4.735  16.751  0.00  0.00    +0.000 N 
ATOM      2  C   UNL     1       5.464   4.383  18.081  0.00  0.00    +0.000 C 
ATOM      3  O   UNL     1       6.438   4.264  18.809  0.00  0.00    +0.000 OA
ATOM      4  H   UNL     1       4.827   4.532  16.124  0.00  0.00    +0.000 HD
ENDROOT
BRANCH   2   5
ATOM      5  C   UNL     1       4.024   4.188  18.597  0.00  0.00    +0.000 C 
ATOM      6  C   UNL     1       3.976   4.610  20.092  0.00  0.00    +0.000 C 
ATOM      7  C   UNL     1       2.559   4.467  20.663  0.00  0.00    +0.000 C 
ATOM      8  C   UNL     1       1.607   5.367  19.860  0.00  0.00    +0.000 C 
ATOM      9  C   UNL     1       1.613   4.956  18.377  0.00  0.00    +0.000 C 
ATOM     10  C   UNL     1       1.160   3.493  18.265  0.00  0.00    +0.000 C 
ATOM     11  C   UNL     1       2.116   2.585  19.058  0.00  0.00    +0.000 C 
ATOM     12  C   UNL     1       2.114   3.003  20.538  0.00  0.00    +0.000 C 
ATOM     13  C   UNL     1       3.538   2.726  18.487  0.00  0.00    +0.000 C 
ATOM     14  C   UNL     1       3.041   5.090  17.810  0.00  0.00    +0.000 C 
BRANCH  11  15
ATOM     15  O   UNL     1       1.707   1.231  18.933  0.00  0.00    +0.000 OA
ATOM     16  H   UNL     1       1.402   0.925  19.804  0.00  0.00    +0.000 HD
ENDBRANCH  11  15
ENDBRANCH   2   5
BRANCH   1  18
ATOM     17  C   UNL     1       7.250   6.530  16.430  0.00  0.00    +0.000 C 
ATOM     18  C   UNL     1       6.892   5.057  16.171  0.00  0.00    +0.000 C 
BRANCH  18  19
ATOM     19  C   UNL     1       6.924   4.757  14.678  0.00  0.00    +0.000 A 
ATOM     20  C   UNL     1       7.799   5.429  13.805  0.00  0.00    +0.000 A 
ATOM     21  C   UNL     1       7.785   5.163  12.430  0.00  0.00    +0.000 A 
ATOM     22  C   UNL     1       6.922   4.197  11.912  0.00  0.00    +0.000 A 
ATOM     23  C   UNL     1       6.064   3.513  12.766  0.00  0.00    +0.000 A 
ATOM     24  C   UNL     1       6.054   3.798  14.130  0.00  0.00    +0.000 A 
ENDBRANCH  18  19
ENDBRANCH   1  18
TORSDOF 4
ENDMDL
MODEL 8
REMARK VINA RESULT:      -8.0      0.915      1.525
REMARK  Name = 
REMARK  5 active torsions:
REMARK  status: ('A' for Active; 'I' for Inactive)
REMARK    1  A    between atoms: C_1  and  C_2
REMARK    2  A    between atoms: C_2  and  N_3
REMARK    3  A    between atoms: C_2  and  C_17
REMARK    4  A    between atoms: C_4  and  C_6
REMARK    5  A    between atoms: C_12  and  O_13
REMARK                            x       y       z     vdW  Elec       q    Type
REMARK                         _______ _______ _______ _____ _____    ______ ____
ROOT
ATOM      1  N   UNL     1       5.537   4.585  16.842  0.00  0.00    +0.000 N 
ATOM      2  C   UNL     1       5.388   4.334  18.192  0.00  0.00    +0.000 C 
ATOM      3  O   UNL     1       6.347   4.280  18.947  0.00  0.00    +0.000 OA
ATOM      4  H   UNL     1       4.790   4.329  16.218  0.00  0.00    +0.000 HD
ENDROOT
BRANCH   2   5
ATOM      5  C   UNL     1       3.939   4.167  18.693  0.00  0.00    +0.000 C 
ATOM      6  C   UNL     1       3.899   4.503  20.209  0.00  0.00    +0.000 C 
ATOM      7  C   UNL     1       2.475   4.384  20.767  0.00  0.00    +0.000 C 
ATOM      8  C   UNL     1       1.562   5.365  20.014  0.00  0.00    +0.000 C 
ATOM      9  C   UNL     1       1.560   5.040  18.511  0.00  0.00    +0.000 C 
ATOM     10  C   UNL     1       1.051   3.604  18.313  0.00  0.00    +0.000 C 
ATOM     11  C   UNL     1       1.967   2.615  19.056  0.00  0.00    +0.000 C 
ATOM     12  C   UNL     1       1.974   2.949  20.557  0.00  0.00    +0.000 C 
ATOM     13  C   UNL     1       3.397   2.733  18.498  0.00  0.00    +0.000 C 
ATOM     14  C   UNL     1       2.995   5.150  17.956  0.00  0.00    +0.000 C 
BRANCH  11  15
ATOM     15  O   UNL     1       1.506   1.288  18.852  0.00  0.00    +0.000 OA
ATOM     16  H   UNL     1       0.628   1.333  18.437  0.00  0.00    +0.000 HD
ENDBRANCH  11  15
ENDBRANCH   2   5
BRANCH   1  18
ATOM     17  C   UNL     1       7.278   6.315  16.590  0.00  0.00    +0.000 C 
ATOM     18  C   UNL     1       6.850   4.873  16.266  0.00  0.00    +0.000 C 
BRANCH  18  19
ATOM     19  C   UNL     1       6.858   4.644  14.760  0.00  0.00    +0.000 A 
ATOM     20  C   UNL     1       6.010   3.702  14.148  0.00  0.00    +0.000 A 
ATOM     21  C   UNL     1       6.062   3.483  12.767  0.00  0.00    +0.000 A 
ATOM     22  C   UNL     1       6.934   4.225  11.970  0.00  0.00    +0.000 A 
ATOM     23  C   UNL     1       7.766   5.171  12.560  0.00  0.00    +0.000 A 
ATOM     24  C   UNL     1       7.739   5.370  13.938  0.00  0.00    +0.000 A 
ENDBRANCH  18  19
ENDBRANCH   1  18
TORSDOF 4
ENDMDL
MODEL 9
REMARK VINA RESULT:      -8.0      4.130      6.770
REMARK  Name = 
REMARK  5 active torsions:
REMARK  status: ('A' for Active; 'I' for Inactive)
REMARK    1  A    between atoms: C_1  and  C_2
REMARK    2  A    between atoms: C_2  and  N_3
REMARK    3  A    between atoms: C_2  and  C_17
REMARK    4  A    between atoms: C_4  and  C_6
REMARK    5  A    between atoms: C_12  and  O_13
REMARK                            x       y       z     vdW  Elec       q    Type
REMARK                         _______ _______ _______ _____ _____    ______ ____
ROOT
ATOM      1  N   UNL     1       1.612   7.367  20.493  0.00  0.00    +0.000 N 
ATOM      2  C   UNL     1       2.427   6.788  19.539  0.00  0.00    +0.000 C 
ATOM      3  O   UNL     1       3.151   7.459  18.819  0.00  0.00    +0.000 OA
ATOM      4  H   UNL     1       0.830   6.839  20.845  0.00  0.00    +0.000 HD
ENDROOT
BRANCH   2   5
ATOM      5  C   UNL     1       2.395   5.248  19.467  0.00  0.00    +0.000 C 
ATOM      6  C   UNL     1       1.471   4.722  20.600  0.00  0.00    +0.000 C 
ATOM      7  C   UNL     1       1.372   3.191  20.568  0.00  0.00    +0.000 C 
ATOM      8  C   UNL     1       0.794   2.758  19.211  0.00  0.00    +0.000 C 
ATOM      9  C   UNL     1       1.704   3.244  18.069  0.00  0.00    +0.000 C 
ATOM     10  C   UNL     1       3.102   2.636  18.254  0.00  0.00    +0.000 C 
ATOM     11  C   UNL     1       3.691   3.074  19.607  0.00  0.00    +0.000 C 
ATOM     12  C   UNL     1       2.775   2.595  20.745  0.00  0.00    +0.000 C 
ATOM     13  C   UNL     1       3.791   4.609  19.641  0.00  0.00    +0.000 C 
ATOM     14  C   UNL     1       1.810   4.782  18.112  0.00  0.00    +0.000 C 
BRANCH  11  15
ATOM     15  O   UNL     1       4.992   2.528  19.764  0.00  0.00    +0.000 OA
ATOM     16  H   UNL     1       5.467   3.063  20.423  0.00  0.00    +0.000 HD
ENDBRANCH  11  15
ENDBRANCH   2   5
BRANCH   1  18
ATOM     17  C   UNL     1       1.460   9.108  22.234  0.00  0.00    +0.000 C 
ATOM     18  C   UNL     1       1.636   8.809  20.736  0.00  0.00    +0.000 C 
BRANCH  18  19
ATOM     19  C   UNL     1       0.565   9.526  19.923  0.00  0.00    +0.000 A 
ATOM     20  C   UNL     1       0.497   9.414  18.522  0.00  0.00    +0.000 A 
ATOM     21  C   UNL     1      -0.474  10.112  17.794  0.00  0.00    +0.000 A 
ATOM     22  C   UNL     1      -1.414  10.903  18.455  0.00  0.00    +0.000 A 
ATOM     23  C   UNL     1      -1.369  11.008  19.842  0.00  0.00    +0.000 A 
ATOM     24  C   UNL     1      -0.385  10.340  20.566  0.00  0.00    +0.000 A 
ENDBRANCH  18  19
ENDBRANCH   1  18
TORSDOF 4
ENDMDL
