MODEL 1
REMARK VINA RESULT:      -8.7      0.000      0.000
REMARK  Name = 
REMARK  5 active torsions:
REMARK  status: ('A' for Active; 'I' for Inactive)
REMARK    1  A    between atoms: C_1  and  C_2
REMARK    2  A    between atoms: C_5  and  C_6
REMARK    3  A    between atoms: C_8  and  C_9
REMARK    4  A    between atoms: C_9  and  N_10
REMARK    5  A    between atoms: C_15  and  C_16
REMARK                            x       y       z     vdW  Elec       q    Type
REMARK                         _______ _______ _______ _____ _____    ______ ____
ROOT
ATOM      1  N   UNL     1       6.557   4.958  17.237  0.00  0.00    +0.000 N 
ATOM      2  N   UNL     1       7.186   4.569  16.106  0.00  0.00    +0.000 NA
ATOM      3  C   UNL     1       6.237   4.051  15.349  0.00  0.00    +0.000 A 
ATOM      4  N   UNL     1       6.476   3.567  14.126  0.00  0.00    +0.000 N 
ATOM      5  C   UNL     1       4.987   4.091  15.981  0.00  0.00    +0.000 A 
ATOM      6  C   UNL     1       5.199   4.669  17.227  0.00  0.00    +0.000 A 
ATOM      7  H   UNL     1       7.379   3.805  13.736  0.00  0.00    +0.000 HD
ATOM      8  H   UNL     1       5.732   3.539  13.438  0.00  0.00    +0.000 HD
ENDROOT
BRANCH   6   9
ATOM      9  C   UNL     1       4.228   4.920  18.304  0.00  0.00    +0.000 A 
ATOM     10  C   UNL     1       3.919   3.898  19.216  0.00  0.00    +0.000 A 
ATOM     11  C   UNL     1       2.952   4.086  20.211  0.00  0.00    +0.000 A 
ATOM     12  C   UNL     1       2.294   5.306  20.324  0.00  0.00    +0.000 A 
ATOM     13  C   UNL     1       2.599   6.336  19.443  0.00  0.00    +0.000 A 
ATOM     14  C   UNL     1       3.543   6.135  18.433  0.00  0.00    +0.000 A 
ENDBRANCH   6   9
BRANCH   1  15
ATOM     15  C   UNL     1       7.325   5.591  18.311  0.00  0.00    +0.000 C 
BRANCH  15  18
ATOM     16  C   UNL     1       8.467   8.941  18.393  0.00  0.00    +0.000 A 
ATOM     17  N   UNL     1       8.581   7.691  18.799  0.00  0.00    +0.000 NA
ATOM     18  C   UNL     1       7.630   7.018  18.056  0.00  0.00    +0.000 A 
ATOM     19  C   UNL     1       7.045   7.886  17.166  0.00  0.00    +0.000 A 
ATOM     20  O   UNL     1       7.567   9.121  17.374  0.00  0.00    +0.000 OA
BRANCH  16  25
ATOM     21  C   UNL     1      11.058  13.762  20.221  0.00  0.00    +0.000 C 
ATOM     22  C   UNL     1      10.428  12.492  19.738  0.00  0.00    +0.000 A 
ATOM     23  C   UNL     1      10.425  12.153  18.379  0.00  0.00    +0.000 A 
ATOM     24  C   UNL     1       9.798  10.982  17.946  0.00  0.00    +0.000 A 
ATOM     25  C   UNL     1       9.159  10.134  18.860  0.00  0.00    +0.000 A 
ATOM     26  C   UNL     1       9.194  10.462  20.221  0.00  0.00    +0.000 A 
ATOM     27  C   UNL     1       9.821  11.631  20.657  0.00  0.00    +0.000 A 
ENDBRANCH  16  25
ENDBRANCH  15  18
ENDBRANCH   1  15
TORSDOF 4
ENDMDL
MODEL 2
REMARK VINA RESULT:      -8.6      0.185      1.370
REMARK  Name = 
REMARK  5 active torsions:
REMARK  status: ('A' for Active; 'I' for Inactive)
REMARK    1  A    between atoms: C_1  and  C_2
REMARK    2  A    between atoms: C_5  and  C_6
REMARK    3  A    between atoms: C_8  and  C_9
REMARK    4  A    between atoms: C_9  and  N_10
REMARK    5  A    between atoms: C_15  and  C_16
REMARK                            x       y       z     vdW  Elec       q    Type
REMARK                         _______ _______ _______ _____ _____    ______ ____
ROOT
ATOM      1  N   UNL     1       6.537   4.993  17.215  0.00  0.00    +0.000 N 
ATOM      2  N   UNL     1       7.197   4.559  16.118  0.00  0.00    +0.000 NA
ATOM      3  C   UNL     1       6.266   4.039  15.341  0.00  0.00    +0.000 A 
ATOM      4  N   UNL     1       6.538   3.516  14.142  0.00  0.00    +0.000 N 
ATOM      5  C   UNL     1       4.995   4.122  15.927  0.00  0.00    +0.000 A 
ATOM      6  C   UNL     1       5.175   4.730  17.163  0.00  0.00    +0.000 A 
ATOM      7  H   UNL     1       7.459   3.725  13.778  0.00  0.00    +0.000 HD
ATOM      8  H   UNL     1       5.818   3.484  13.429  0.00  0.00    +0.000 HD
ENDROOT
BRANCH   6   9
ATOM      9  C   UNL     1       4.171   5.030  18.197  0.00  0.00    +0.000 A 
ATOM     10  C   UNL     1       3.634   6.324  18.293  0.00  0.00    +0.000 A 
ATOM     11  C   UNL     1       2.727   6.656  19.306  0.00  0.00    +0.000 A 
ATOM     12  C   UNL     1       2.323   5.694  20.226  0.00  0.00    +0.000 A 
ATOM     13  C   UNL     1       2.828   4.402  20.135  0.00  0.00    +0.000 A 
ATOM     14  C   UNL     1       3.757   4.082  19.142  0.00  0.00    +0.000 A 
ENDBRANCH   6   9
BRANCH   1  15
ATOM     15  C   UNL     1       7.280   5.639  18.297  0.00  0.00    +0.000 C 
BRANCH  15  18
ATOM     16  C   UNL     1       8.460   8.978  18.342  0.00  0.00    +0.000 A 
ATOM     17  N   UNL     1       8.546   7.735  18.778  0.00  0.00    +0.000 NA
ATOM     18  C   UNL     1       7.610   7.058  18.022  0.00  0.00    +0.000 A 
ATOM     19  C   UNL     1       7.062   7.913  17.096  0.00  0.00    +0.000 A 
ATOM     20  O   UNL     1       7.593   9.145  17.292  0.00  0.00    +0.000 OA
BRANCH  16  25
ATOM     21  C   UNL     1      11.355  13.619  20.177  0.00  0.00    +0.000 C 
ATOM     22  C   UNL     1      10.563  12.435  19.716  0.00  0.00    +0.000 A 
ATOM     23  C   UNL     1      10.000  11.536  20.629  0.00  0.00    +0.000 A 
ATOM     24  C   UNL     1       9.298  10.416  20.176  0.00  0.00    +0.000 A 
ATOM     25  C   UNL     1       9.152  10.172  18.804  0.00  0.00    +0.000 A 
ATOM     26  C   UNL     1       9.689  11.093  17.896  0.00  0.00    +0.000 A 
ATOM     27  C   UNL     1      10.390  12.212  18.346  0.00  0.00    +0.000 A 
ENDBRANCH  16  25
ENDBRANCH  15  18
ENDBRANCH   1  15
TORSDOF 4
ENDMDL
MODEL 3
REMARK VINA RESULT:      -8.2      5.109      7.167
REMARK  Name = 
REMARK  5 active torsions:
REMARK  status: ('A' for Active; 'I' for Inactive)
REMARK    1  A    between atoms: C_1  and  C_2
REMARK    2  A    between atoms: C_5  and  C_6
REMARK    3  A    between atoms: C_8  and  C_9
REMARK    4  A    between atoms: C_9  and  N_10
REMARK    5  A    between atoms: C_15  and  C_16
REMARK                            x       y       z     vdW  Elec       q    Type
REMARK                         _______ _______ _______ _____ _____    ______ ____
ROOT
ATOM      1  N   UNL     1       3.093   4.447  18.868  0.00  0.00    +0.000 N 
ATOM      2  N   UNL     1       1.942   3.866  19.275  0.00  0.00    +0.000 NA
ATOM      3  C   UNL     1       1.778   2.832  18.471  0.00  0.00    +0.000 A 
ATOM      4  N   UNL     1       0.742   1.994  18.579  0.00  0.00    +0.000 N 
ATOM      5  C   UNL     1       2.813   2.736  17.530  0.00  0.00    +0.000 A 
ATOM      6  C   UNL     1       3.665   3.805  17.778  0.00  0.00    +0.000 A 
ATOM      7  H   UNL     1       0.207   2.076  19.433  0.00  0.00    +0.000 HD
ATOM      8  H   UNL     1       0.826   1.041  18.242  0.00  0.00    +0.000 HD
ENDROOT
BRANCH   6   9
ATOM      9  C   UNL     1       4.891   4.191  17.061  0.00  0.00    +0.000 A 
ATOM     10  C   UNL     1       4.850   4.404  15.674  0.00  0.00    +0.000 A 
ATOM     11  C   UNL     1       6.012   4.708  14.955  0.00  0.00    +0.000 A 
ATOM     12  C   UNL     1       7.231   4.828  15.616  0.00  0.00    +0.000 A 
ATOM     13  C   UNL     1       7.289   4.640  16.991  0.00  0.00    +0.000 A 
ATOM     14  C   UNL     1       6.132   4.307  17.701  0.00  0.00    +0.000 A 
ENDBRANCH   6   9
BRANCH   1  15
ATOM     15  C   UNL     1       3.584   5.640  19.559  0.00  0.00    +0.000 C 
BRANCH  15  18
ATOM     16  C   UNL     1       1.668   8.562  18.990  0.00  0.00    +0.000 A 
ATOM     17  N   UNL     1       2.068   7.606  19.807  0.00  0.00    +0.000 NA
ATOM     18  C   UNL     1       2.989   6.900  19.057  0.00  0.00    +0.000 A 
ATOM     19  C   UNL     1       3.168   7.523  17.845  0.00  0.00    +0.000 A 
ATOM     20  O   UNL     1       2.325   8.585  17.786  0.00  0.00    +0.000 OA
BRANCH  16  25
ATOM     21  C   UNL     1      -2.478  12.487  19.821  0.00  0.00    +0.000 C 
ATOM     22  C   UNL     1      -1.379  11.500  19.578  0.00  0.00    +0.000 A 
ATOM     23  C   UNL     1      -1.209  10.894  18.328  0.00  0.00    +0.000 A 
ATOM     24  C   UNL     1      -0.200   9.946  18.135  0.00  0.00    +0.000 A 
ATOM     25  C   UNL     1       0.651   9.585  19.188  0.00  0.00    +0.000 A 
ATOM     26  C   UNL     1       0.496  10.219  20.426  0.00  0.00    +0.000 A 
ATOM     27  C   UNL     1      -0.510  11.166  20.622  0.00  0.00    +0.000 A 
ENDBRANCH  16  25
ENDBRANCH  15  18
ENDBRANCH   1  15
TORSDOF 4
ENDMDL
MODEL 4
REMARK VINA RESULT:      -8.1      3.362      6.204
REMARK  Name = 
REMARK  5 active torsions:
REMARK  status: ('A' for Active; 'I' for Inactive)
REMARK    1  A    between atoms: C_1  and  C_2
REMARK    2  A    between atoms: C_5  and  C_6
REMARK    3  A    between atoms: C_8  and  C_9
REMARK    4  A    between atoms: C_9  and  N_10
REMARK    5  A    between atoms: C_15  and  C_16
REMARK                            x       y       z     vdW  Elec       q    Type
REMARK                         _______ _______ _______ _____ _____    ______ ____
ROOT
ATOM      1  N   UNL     1       5.708   3.870  15.868  0.00  0.00    +0.000 N 
ATOM      2  N   UNL     1       5.430   3.343  14.655  0.00  0.00    +0.000 NA
ATOM      3  C   UNL     1       6.250   3.955  13.820  0.00  0.00    +0.000 A 
ATOM      4  N   UNL     1       6.282   3.682  12.513  0.00  0.00    +0.000 N 
ATOM      5  C   UNL     1       7.060   4.889  14.481  0.00  0.00    +0.000 A 
ATOM      6  C   UNL     1       6.693   4.847  15.820  0.00  0.00    +0.000 A 
ATOM      7  H   UNL     1       5.792   2.842  12.234  0.00  0.00    +0.000 HD
ATOM      8  H   UNL     1       7.129   3.853  11.981  0.00  0.00    +0.000 HD
ENDROOT
BRANCH   6   9
ATOM      9  C   UNL     1       7.208   5.647  16.942  0.00  0.00    +0.000 A 
ATOM     10  C   UNL     1       7.337   7.039  16.805  0.00  0.00    +0.000 A 
ATOM     11  C   UNL     1       7.884   7.818  17.831  0.00  0.00    +0.000 A 
ATOM     12  C   UNL     1       8.290   7.221  19.021  0.00  0.00    +0.000 A 
ATOM     13  C   UNL     1       8.152   5.848  19.184  0.00  0.00    +0.000 A 
ATOM     14  C   UNL     1       7.633   5.070  18.146  0.00  0.00    +0.000 A 
ENDBRANCH   6   9
BRANCH   1  15
ATOM     15  C   UNL     1       4.972   3.403  17.044  0.00  0.00    +0.000 C 
BRANCH  15  18
ATOM     16  C   UNL     1       2.689   5.902  18.083  0.00  0.00    +0.000 A 
ATOM     17  N   UNL     1       3.916   5.551  17.749  0.00  0.00    +0.000 NA
ATOM     18  C   UNL     1       3.785   4.231  17.364  0.00  0.00    +0.000 A 
ATOM     19  C   UNL     1       2.459   3.872  17.400  0.00  0.00    +0.000 A 
ATOM     20  O   UNL     1       1.747   4.930  17.863  0.00  0.00    +0.000 OA
BRANCH  16  25
ATOM     21  C   UNL     1       0.591  10.830  20.229  0.00  0.00    +0.000 C 
ATOM     22  C   UNL     1       1.178   9.572  19.667  0.00  0.00    +0.000 A 
ATOM     23  C   UNL     1       1.508   9.466  18.311  0.00  0.00    +0.000 A 
ATOM     24  C   UNL     1       2.019   8.270  17.800  0.00  0.00    +0.000 A 
ATOM     25  C   UNL     1       2.202   7.159  18.634  0.00  0.00    +0.000 A 
ATOM     26  C   UNL     1       1.901   7.282  19.996  0.00  0.00    +0.000 A 
ATOM     27  C   UNL     1       1.391   8.476  20.509  0.00  0.00    +0.000 A 
ENDBRANCH  16  25
ENDBRANCH  15  18
ENDBRANCH   1  15
TORSDOF 4
ENDMDL
MODEL 5
REMARK VINA RESULT:      -8.1      4.347      6.993
REMARK  Name = 
REMARK  5 active torsions:
REMARK  status: ('A' for Active; 'I' for Inactive)
REMARK    1  A    between atoms: C_1  and  C_2
REMARK    2  A    between atoms: C_5  and  C_6
REMARK    3  A    between atoms: C_8  and  C_9
REMARK    4  A    between atoms: C_9  and  N_10
REMARK    5  A    between atoms: C_15  and  C_16
REMARK                            x       y       z     vdW  Elec       q    Type
REMARK                         _______ _______ _______ _____ _____    ______ ____
ROOT
ATOM      1  N   UNL     1       6.014   5.932  17.016  0.00  0.00    +0.000 N 
ATOM      2  N   UNL     1       6.336   6.076  18.321  0.00  0.00    +0.000 NA
ATOM      3  C   UNL     1       7.422   5.344  18.489  0.00  0.00    +0.000 A 
ATOM      4  N   UNL     1       8.053   5.250  19.663  0.00  0.00    +0.000 N 
ATOM      5  C   UNL     1       7.810   4.712  17.299  0.00  0.00    +0.000 A 
ATOM      6  C   UNL     1       6.878   5.082  16.338  0.00  0.00    +0.000 A 
ATOM      7  H   UNL     1       7.773   5.929  20.359  0.00  0.00    +0.000 HD
ATOM      8  H   UNL     1       9.042   5.026  19.689  0.00  0.00    +0.000 HD
ENDROOT
BRANCH   6   9
ATOM      9  C   UNL     1       6.799   4.675  14.926  0.00  0.00    +0.000 A 
ATOM     10  C   UNL     1       7.676   5.241  13.987  0.00  0.00    +0.000 A 
ATOM     11  C   UNL     1       7.582   4.923  12.628  0.00  0.00    +0.000 A 
ATOM     12  C   UNL     1       6.625   4.014  12.187  0.00  0.00    +0.000 A 
ATOM     13  C   UNL     1       5.761   3.428  13.103  0.00  0.00    +0.000 A 
ATOM     14  C   UNL     1       5.837   3.771  14.456  0.00  0.00    +0.000 A 
ENDBRANCH   6   9
BRANCH   1  15
ATOM     15  C   UNL     1       4.843   6.626  16.480  0.00  0.00    +0.000 C 
BRANCH  15  18
ATOM     16  C   UNL     1       2.376   7.584  18.833  0.00  0.00    +0.000 A 
ATOM     17  N   UNL     1       3.268   7.919  17.920  0.00  0.00    +0.000 NA
ATOM     18  C   UNL     1       3.714   6.704  17.436  0.00  0.00    +0.000 A 
ATOM     19  C   UNL     1       2.999   5.687  18.022  0.00  0.00    +0.000 A 
ATOM     20  O   UNL     1       2.143   6.235  18.921  0.00  0.00    +0.000 OA
BRANCH  16  25
ATOM     21  C   UNL     1      -0.807  10.853  22.363  0.00  0.00    +0.000 C 
ATOM     22  C   UNL     1       0.053  10.038  21.448  0.00  0.00    +0.000 A 
ATOM     23  C   UNL     1       0.265  10.419  20.118  0.00  0.00    +0.000 A 
ATOM     24  C   UNL     1       1.040   9.623  19.270  0.00  0.00    +0.000 A 
ATOM     25  C   UNL     1       1.610   8.430  19.736  0.00  0.00    +0.000 A 
ATOM     26  C   UNL     1       1.422   8.072  21.076  0.00  0.00    +0.000 A 
ATOM     27  C   UNL     1       0.649   8.866  21.925  0.00  0.00    +0.000 A 
ENDBRANCH  16  25
ENDBRANCH  15  18
ENDBRANCH   1  15
TORSDOF 4
ENDMDL
MODEL 6
REMARK VINA RESULT:      -8.1      4.296      7.194
REMARK  Name = 
REMARK  5 active torsions:
REMARK  status: ('A' for Active; 'I' for Inactive)
REMARK    1  A    between atoms: C_1  and  C_2
REMARK    2  A    between atoms: C_5  and  C_6
REMARK    3  A    between atoms: C_8  and  C_9
REMARK    4  A    between atoms: C_9  and  N_10
REMARK    5  A    between atoms: C_15  and  C_16
REMARK                            x       y       z     vdW  Elec       q    Type
REMARK                         _______ _______ _______ _____ _____    ______ ____
ROOT
ATOM      1  N   UNL     1       3.217   5.412  17.900  0.00  0.00    +0.000 N 
ATOM      2  N   UNL     1       2.266   4.471  17.711  0.00  0.00    +0.000 NA
ATOM      3  C   UNL     1       2.908   3.319  17.764  0.00  0.00    +0.000 A 
ATOM      4  N   UNL     1       2.289   2.142  17.636  0.00  0.00    +0.000 N 
ATOM      5  C   UNL     1       4.281   3.501  17.980  0.00  0.00    +0.000 A 
ATOM      6  C   UNL     1       4.487   4.873  18.051  0.00  0.00    +0.000 A 
ATOM      7  H   UNL     1       1.280   2.176  17.700  0.00  0.00    +0.000 HD
ATOM      8  H   UNL     1       2.694   1.310  18.048  0.00  0.00    +0.000 HD
ENDROOT
BRANCH   6   9
ATOM      9  C   UNL     1       5.749   5.607  18.234  0.00  0.00    +0.000 A 
ATOM     10  C   UNL     1       6.115   6.605  17.316  0.00  0.00    +0.000 A 
ATOM     11  C   UNL     1       7.339   7.275  17.428  0.00  0.00    +0.000 A 
ATOM     12  C   UNL     1       8.208   6.975  18.473  0.00  0.00    +0.000 A 
ATOM     13  C   UNL     1       7.855   6.005  19.403  0.00  0.00    +0.000 A 
ATOM     14  C   UNL     1       6.646   5.317  19.271  0.00  0.00    +0.000 A 
ENDBRANCH   6   9
BRANCH   1  15
ATOM     15  C   UNL     1       2.843   6.827  17.906  0.00  0.00    +0.000 C 
BRANCH  15  18
ATOM     16  C   UNL     1       1.144   8.549  20.493  0.00  0.00    +0.000 A 
ATOM     17  N   UNL     1       1.532   8.485  19.233  0.00  0.00    +0.000 NA
ATOM     18  C   UNL     1       2.133   7.245  19.138  0.00  0.00    +0.000 A 
ATOM     19  C   UNL     1       1.999   6.578  20.332  0.00  0.00    +0.000 A 
ATOM     20  O   UNL     1       1.373   7.402  21.209  0.00  0.00    +0.000 OA
BRANCH  16  25
ATOM     21  C   UNL     1      -1.518  12.861  23.250  0.00  0.00    +0.000 C 
ATOM     22  C   UNL     1      -0.785  11.760  22.549  0.00  0.00    +0.000 A 
ATOM     23  C   UNL     1      -0.061  12.001  21.375  0.00  0.00    +0.000 A 
ATOM     24  C   UNL     1       0.584  10.951  20.716  0.00  0.00    +0.000 A 
ATOM     25  C   UNL     1       0.510   9.643  21.213  0.00  0.00    +0.000 A 
ATOM     26  C   UNL     1      -0.188   9.415  22.405  0.00  0.00    +0.000 A 
ATOM     27  C   UNL     1      -0.832  10.462  23.066  0.00  0.00    +0.000 A 
ENDBRANCH  16  25
ENDBRANCH  15  18
ENDBRANCH   1  15
TORSDOF 4
ENDMDL
MODEL 7
REMARK VINA RESULT:      -8.0      1.793      2.476
REMARK  Name = 
REMARK  5 active torsions:
REMARK  status: ('A' for Active; 'I' for Inactive)
REMARK    1  A    between atoms: C_1  and  C_2
REMARK    2  A    between atoms: C_5  and  C_6
REMARK    3  A    between atoms: C_8  and  C_9
REMARK    4  A    between atoms: C_9  and  N_10
REMARK    5  A    between atoms: C_15  and  C_16
REMARK                            x       y       z     vdW  Elec       q    Type
REMARK                         _______ _______ _______ _____ _____    ______ ____
ROOT
ATOM      1  N   UNL     1       4.660   5.397  17.080  0.00  0.00    +0.000 N 
ATOM      2  N   UNL     1       5.049   4.110  16.942  0.00  0.00    +0.000 NA
ATOM      3  C   UNL     1       4.197   3.414  17.671  0.00  0.00    +0.000 A 
ATOM      4  N   UNL     1       4.252   2.082  17.768  0.00  0.00    +0.000 N 
ATOM      5  C   UNL     1       3.253   4.241  18.295  0.00  0.00    +0.000 A 
ATOM      6  C   UNL     1       3.567   5.542  17.923  0.00  0.00    +0.000 A 
ATOM      7  H   UNL     1       4.851   1.624  17.094  0.00  0.00    +0.000 HD
ATOM      8  H   UNL     1       3.414   1.556  17.989  0.00  0.00    +0.000 HD
ENDROOT
BRANCH   6   9
ATOM      9  C   UNL     1       2.913   6.798  18.323  0.00  0.00    +0.000 A 
ATOM     10  C   UNL     1       2.405   6.936  19.625  0.00  0.00    +0.000 A 
ATOM     11  C   UNL     1       1.721   8.093  20.015  0.00  0.00    +0.000 A 
ATOM     12  C   UNL     1       1.553   9.142  19.116  0.00  0.00    +0.000 A 
ATOM     13  C   UNL     1       2.066   9.033  17.829  0.00  0.00    +0.000 A 
ATOM     14  C   UNL     1       2.722   7.864  17.434  0.00  0.00    +0.000 A 
ENDBRANCH   6   9
BRANCH   1  15
ATOM     15  C   UNL     1       5.398   6.454  16.387  0.00  0.00    +0.000 C 
BRANCH  15  18
ATOM     16  C   UNL     1       7.775   8.562  17.951  0.00  0.00    +0.000 A 
ATOM     17  N   UNL     1       6.658   8.422  17.263  0.00  0.00    +0.000 NA
ATOM     18  C   UNL     1       6.478   7.053  17.206  0.00  0.00    +0.000 A 
ATOM     19  C   UNL     1       7.456   6.431  17.945  0.00  0.00    +0.000 A 
ATOM     20  O   UNL     1       8.295   7.384  18.424  0.00  0.00    +0.000 OA
BRANCH  16  25
ATOM     21  C   UNL     1      10.566  13.410  19.364  0.00  0.00    +0.000 C 
ATOM     22  C   UNL     1       9.871  12.147  18.959  0.00  0.00    +0.000 A 
ATOM     23  C   UNL     1       9.034  12.105  17.838  0.00  0.00    +0.000 A 
ATOM     24  C   UNL     1       8.365  10.925  17.501  0.00  0.00    +0.000 A 
ATOM     25  C   UNL     1       8.514   9.771  18.283  0.00  0.00    +0.000 A 
ATOM     26  C   UNL     1       9.377   9.812  19.384  0.00  0.00    +0.000 A 
ATOM     27  C   UNL     1      10.048  10.988  19.722  0.00  0.00    +0.000 A 
ENDBRANCH  16  25
ENDBRANCH  15  18
ENDBRANCH   1  15
TORSDOF 4
ENDMDL
MODEL 8
REMARK VINA RESULT:      -8.0      4.455      7.205
REMARK  Name = 
REMARK  5 active torsions:
REMARK  status: ('A' for Active; 'I' for Inactive)
REMARK    1  A    between atoms: C_1  and  C_2
REMARK    2  A    between atoms: C_5  and  C_6
REMARK    3  A    between atoms: C_8  and  C_9
REMARK    4  A    between atoms: C_9  and  N_10
REMARK    5  A    between atoms: C_15  and  C_16
REMARK                            x       y       z     vdW  Elec       q    Type
REMARK                         _______ _______ _______ _____ _____    ______ ____
ROOT
ATOM      1  N   UNL     1       2.983   5.475  18.071  0.00  0.00    +0.000 N 
ATOM      2  N   UNL     1       1.974   4.578  17.991  0.00  0.00    +0.000 NA
ATOM      3  C   UNL     1       2.562   3.397  18.032  0.00  0.00    +0.000 A 
ATOM      4  N   UNL     1       1.876   2.251  17.994  0.00  0.00    +0.000 N 
ATOM      5  C   UNL     1       3.955   3.514  18.131  0.00  0.00    +0.000 A 
ATOM      6  C   UNL     1       4.233   4.875  18.138  0.00  0.00    +0.000 A 
ATOM      7  H   UNL     1       0.879   2.339  18.138  0.00  0.00    +0.000 HD
ATOM      8  H   UNL     1       2.273   1.411  18.401  0.00  0.00    +0.000 HD
ENDROOT
BRANCH   6   9
ATOM      9  C   UNL     1       5.541   5.548  18.195  0.00  0.00    +0.000 A 
ATOM     10  C   UNL     1       6.435   5.247  19.234  0.00  0.00    +0.000 A 
ATOM     11  C   UNL     1       7.658   5.918  19.352  0.00  0.00    +0.000 A 
ATOM     12  C   UNL     1       8.018   6.883  18.417  0.00  0.00    +0.000 A 
ATOM     13  C   UNL     1       7.156   7.181  17.369  0.00  0.00    +0.000 A 
ATOM     14  C   UNL     1       5.922   6.532  17.273  0.00  0.00    +0.000 A 
ENDBRANCH   6   9
BRANCH   1  15
ATOM     15  C   UNL     1       2.681   6.906  18.057  0.00  0.00    +0.000 C 
BRANCH  15  18
ATOM     16  C   UNL     1       1.081   8.745  20.626  0.00  0.00    +0.000 A 
ATOM     17  N   UNL     1       1.398   8.611  19.352  0.00  0.00    +0.000 NA
ATOM     18  C   UNL     1       2.031   7.384  19.301  0.00  0.00    +0.000 A 
ATOM     19  C   UNL     1       1.985   6.791  20.540  0.00  0.00    +0.000 A 
ATOM     20  O   UNL     1       1.385   7.653  21.399  0.00  0.00    +0.000 OA
BRANCH  16  25
ATOM     21  C   UNL     1      -1.535  13.176  23.236  0.00  0.00    +0.000 C 
ATOM     22  C   UNL     1      -0.814  12.041  22.577  0.00  0.00    +0.000 A 
ATOM     23  C   UNL     1       0.028  12.254  21.480  0.00  0.00    +0.000 A 
ATOM     24  C   UNL     1       0.661  11.175  20.856  0.00  0.00    +0.000 A 
ATOM     25  C   UNL     1       0.456   9.867  21.313  0.00  0.00    +0.000 A 
ATOM     26  C   UNL     1      -0.362   9.664  22.431  0.00  0.00    +0.000 A 
ATOM     27  C   UNL     1      -0.994  10.740  23.056  0.00  0.00    +0.000 A 
ENDBRANCH  16  25
ENDBRANCH  15  18
ENDBRANCH   1  15
TORSDOF 4
ENDMDL
MODEL 9
REMARK VINA RESULT:      -7.9      4.184      7.161
REMARK  Name = 
REMARK  5 active torsions:
REMARK  status: ('A' for Active; 'I' for Inactive)
REMARK    1  A    between atoms: C_1  and  C_2
REMARK    2  A    between atoms: C_5  and  C_6
REMARK    3  A    between atoms: C_8  and  C_9
REMARK    4  A    between atoms: C_9  and  N_10
REMARK    5  A    between atoms: C_15  and  C_16
REMARK                            x       y       z     vdW  Elec       q    Type
REMARK                         _______ _______ _______ _____ _____    ______ ____
ROOT
ATOM      1  N   UNL     1       3.338   4.739  19.151  0.00  0.00    +0.000 N 
ATOM      2  N   UNL     1       2.407   3.785  18.924  0.00  0.00    +0.000 NA
ATOM      3  C   UNL     1       2.936   3.004  18.001  0.00  0.00    +0.000 A 
ATOM      4  N   UNL     1       2.308   1.924  17.526  0.00  0.00    +0.000 N 
ATOM      5  C   UNL     1       4.209   3.445  17.614  0.00  0.00    +0.000 A 
ATOM      6  C   UNL     1       4.465   4.593  18.354  0.00  0.00    +0.000 A 
ATOM      7  H   UNL     1       1.500   1.626  18.057  0.00  0.00    +0.000 HD
ATOM      8  H   UNL     1       2.844   1.157  17.138  0.00  0.00    +0.000 HD
ENDROOT
BRANCH   6   9
ATOM      9  C   UNL     1       5.646   5.470  18.313  0.00  0.00    +0.000 A 
ATOM     10  C   UNL     1       5.722   6.494  17.355  0.00  0.00    +0.000 A 
ATOM     11  C   UNL     1       6.860   7.302  17.250  0.00  0.00    +0.000 A 
ATOM     12  C   UNL     1       7.932   7.116  18.118  0.00  0.00    +0.000 A 
ATOM     13  C   UNL     1       7.868   6.121  19.086  0.00  0.00    +0.000 A 
ATOM     14  C   UNL     1       6.743   5.296  19.168  0.00  0.00    +0.000 A 
ENDBRANCH   6   9
BRANCH   1  15
ATOM     15  C   UNL     1       3.075   5.785  20.140  0.00  0.00    +0.000 C 
BRANCH  15  18
ATOM     16  C   UNL     1       1.244   8.742  19.477  0.00  0.00    +0.000 A 
ATOM     17  N   UNL     1       1.746   7.886  20.347  0.00  0.00    +0.000 NA
ATOM     18  C   UNL     1       2.462   7.003  19.562  0.00  0.00    +0.000 A 
ATOM     19  C   UNL     1       2.432   7.424  18.254  0.00  0.00    +0.000 A 
ATOM     20  O   UNL     1       1.652   8.532  18.184  0.00  0.00    +0.000 OA
BRANCH  16  25
ATOM     21  C   UNL     1      -2.461  13.073  20.368  0.00  0.00    +0.000 C 
ATOM     22  C   UNL     1      -1.471  11.980  20.114  0.00  0.00    +0.000 A 
ATOM     23  C   UNL     1      -1.289  11.447  18.833  0.00  0.00    +0.000 A 
ATOM     24  C   UNL     1      -0.387  10.400  18.625  0.00  0.00    +0.000 A 
ATOM     25  C   UNL     1       0.343   9.864  19.695  0.00  0.00    +0.000 A 
ATOM     26  C   UNL     1       0.181  10.424  20.968  0.00  0.00    +0.000 A 
ATOM     27  C   UNL     1      -0.719  11.470  21.178  0.00  0.00    +0.000 A 
ENDBRANCH  16  25
ENDBRANCH  15  18
ENDBRANCH   1  15
TORSDOF 4
ENDMDL
