MODEL 1
REMARK VINA RESULT:      -7.8      0.000      0.000
REMARK  Name = 
REMARK  6 active torsions:
REMARK  status: ('A' for Active; 'I' for Inactive)
REMARK    1  A    between atoms: N_1  and  C_2
REMARK    2  A    between atoms: C_4  and  C_5
REMARK    3  A    between atoms: C_11  and  N_12
REMARK    4  A    between atoms: N_12  and  C_13
REMARK    5  A    between atoms: C_13  and  C_14
REMARK    6  A    between atoms: C_14  and  C_15
REMARK                            x       y       z     vdW  Elec       q    Type
REMARK                         _______ _______ _______ _____ _____    ______ ____
ROOT
ATOM      1  C   UNL     1       3.649   2.084  18.297  0.00  0.00    +0.000 A 
ATOM      2  C   UNL     1       2.792   2.321  19.381  0.00  0.00    +0.000 A 
ATOM      3  C   UNL     1       2.301   3.607  19.648  0.00  0.00    +0.000 A 
ATOM      4  C   UNL     1       2.687   4.661  18.813  0.00  0.00    +0.000 A 
ATOM      5  C   UNL     1       3.580   4.444  17.764  0.00  0.00    +0.000 A 
ATOM      6  C   UNL     1       4.146   3.179  17.545  0.00  0.00    +0.000 A 
ENDROOT
BRANCH   3   7
ATOM      7  C   UNL     1       1.377   3.868  20.810  0.00  0.00    +0.000 C 
ATOM      8  F   UNL     1       1.958   3.674  22.027  0.00  0.00    +0.000 F 
ATOM      9  F   UNL     1       0.907   5.147  20.822  0.00  0.00    +0.000 F 
ATOM     10  F   UNL     1       0.277   3.067  20.790  0.00  0.00    +0.000 F 
ENDBRANCH   3   7
BRANCH   1  11
ATOM     11  N   UNL     1       4.186   0.788  18.114  0.00  0.00    +0.000 N 
ATOM     12  H   UNL     1       3.910   0.379  17.223  0.00  0.00    +0.000 HD
ATOM     13  H   UNL     1       5.202   0.815  18.190  0.00  0.00    +0.000 HD
ENDBRANCH   1  11
BRANCH   6  14
ATOM     14  N   UNL     1       5.121   2.951  16.536  0.00  0.00    +0.000 N 
ATOM     15  H   UNL     1       5.971   2.630  16.998  0.00  0.00    +0.000 HD
BRANCH  14  16
ATOM     16  C   UNL     1       5.364   4.094  15.638  0.00  0.00    +0.000 C 
BRANCH  16  17
ATOM     17  C   UNL     1       6.852   4.420  15.511  0.00  0.00    +0.000 C 
BRANCH  17  18
ATOM     18  C   UNL     1       7.289   5.316  16.650  0.00  0.00    +0.000 A 
ATOM     19  C   UNL     1       7.585   4.778  17.902  0.00  0.00    +0.000 A 
ATOM     20  C   UNL     1       7.937   5.637  18.941  0.00  0.00    +0.000 A 
ATOM     21  C   UNL     1       7.984   7.005  18.705  0.00  0.00    +0.000 A 
ATOM     22  C   UNL     1       7.670   7.457  17.433  0.00  0.00    +0.000 A 
ATOM     23  N   UNL     1       7.321   6.646  16.409  0.00  0.00    +0.000 NA
ENDBRANCH  17  18
ENDBRANCH  16  17
ENDBRANCH  14  16
ENDBRANCH   6  14
TORSDOF 6
ENDMDL
MODEL 2
REMARK VINA RESULT:      -7.8      1.514      2.601
REMARK  Name = 
REMARK  6 active torsions:
REMARK  status: ('A' for Active; 'I' for Inactive)
REMARK    1  A    between atoms: N_1  and  C_2
REMARK    2  A    between atoms: C_4  and  C_5
REMARK    3  A    between atoms: C_11  and  N_12
REMARK    4  A    between atoms: N_12  and  C_13
REMARK    5  A    between atoms: C_13  and  C_14
REMARK    6  A    between atoms: C_14  and  C_15
REMARK                            x       y       z     vdW  Elec       q    Type
REMARK                         _______ _______ _______ _____ _____    ______ ____
ROOT
ATOM      1  C   UNL     1       4.458   2.690  19.764  0.00  0.00    +0.000 A 
ATOM      2  C   UNL     1       3.118   2.551  20.155  0.00  0.00    +0.000 A 
ATOM      3  C   UNL     1       2.192   3.582  19.944  0.00  0.00    +0.000 A 
ATOM      4  C   UNL     1       2.628   4.764  19.336  0.00  0.00    +0.000 A 
ATOM      5  C   UNL     1       3.969   4.931  18.990  0.00  0.00    +0.000 A 
ATOM      6  C   UNL     1       4.919   3.941  19.280  0.00  0.00    +0.000 A 
ENDROOT
BRANCH   3   7
ATOM      7  C   UNL     1       0.750   3.438  20.360  0.00  0.00    +0.000 C 
ATOM      8  F   UNL     1       0.586   2.833  21.569  0.00  0.00    +0.000 F 
ATOM      9  F   UNL     1       0.115   4.639  20.456  0.00  0.00    +0.000 F 
ATOM     10  F   UNL     1       0.024   2.702  19.474  0.00  0.00    +0.000 F 
ENDBRANCH   3   7
BRANCH   1  11
ATOM     11  N   UNL     1       5.376   1.659  20.072  0.00  0.00    +0.000 N 
ATOM     12  H   UNL     1       5.034   1.048  20.811  0.00  0.00    +0.000 HD
ATOM     13  H   UNL     1       5.587   1.116  19.236  0.00  0.00    +0.000 HD
ENDBRANCH   1  11
BRANCH   6  14
ATOM     14  N   UNL     1       6.304   4.120  19.014  0.00  0.00    +0.000 N 
ATOM     15  H   UNL     1       6.799   3.325  19.416  0.00  0.00    +0.000 HD
BRANCH  14  16
ATOM     16  C   UNL     1       6.858   5.412  19.457  0.00  0.00    +0.000 C 
BRANCH  16  17
ATOM     17  C   UNL     1       7.565   6.155  18.323  0.00  0.00    +0.000 C 
BRANCH  17  18
ATOM     18  C   UNL     1       6.945   5.788  16.992  0.00  0.00    +0.000 A 
ATOM     19  C   UNL     1       5.847   6.494  16.502  0.00  0.00    +0.000 A 
ATOM     20  C   UNL     1       5.272   6.099  15.297  0.00  0.00    +0.000 A 
ATOM     21  C   UNL     1       5.803   5.011  14.615  0.00  0.00    +0.000 A 
ATOM     22  C   UNL     1       6.892   4.361  15.174  0.00  0.00    +0.000 A 
ATOM     23  N   UNL     1       7.466   4.722  16.344  0.00  0.00    +0.000 NA
ENDBRANCH  17  18
ENDBRANCH  16  17
ENDBRANCH  14  16
ENDBRANCH   6  14
TORSDOF 6
ENDMDL
MODEL 3
REMARK VINA RESULT:      -7.6      1.339      2.200
REMARK  Name = 
REMARK  6 active torsions:
REMARK  status: ('A' for Active; 'I' for Inactive)
REMARK    1  A    between atoms: N_1  and  C_2
REMARK    2  A    between atoms: C_4  and  C_5
REMARK    3  A    between atoms: C_11  and  N_12
REMARK    4  A    between atoms: N_12  and  C_13
REMARK    5  A    between atoms: C_13  and  C_14
REMARK    6  A    between atoms: C_14  and  C_15
REMARK                            x       y       z     vdW  Elec       q    Type
REMARK                         _______ _______ _______ _____ _____    ______ ____
ROOT
ATOM      1  C   UNL     1       3.795   5.930  17.837  0.00  0.00    +0.000 A 
ATOM      2  C   UNL     1       2.996   5.878  18.988  0.00  0.00    +0.000 A 
ATOM      3  C   UNL     1       2.489   4.660  19.463  0.00  0.00    +0.000 A 
ATOM      4  C   UNL     1       2.791   3.487  18.762  0.00  0.00    +0.000 A 
ATOM      5  C   UNL     1       3.542   3.536  17.588  0.00  0.00    +0.000 A 
ATOM      6  C   UNL     1       3.976   4.760  17.058  0.00  0.00    +0.000 A 
ENDROOT
BRANCH   3   7
ATOM      7  C   UNL     1       1.631   4.597  20.701  0.00  0.00    +0.000 C 
ATOM      8  F   UNL     1       0.592   3.722  20.604  0.00  0.00    +0.000 F 
ATOM      9  F   UNL     1       2.337   4.215  21.802  0.00  0.00    +0.000 F 
ATOM     10  F   UNL     1       1.077   5.801  21.012  0.00  0.00    +0.000 F 
ENDBRANCH   3   7
BRANCH   1  11
ATOM     11  N   UNL     1       4.215   7.189  17.347  0.00  0.00    +0.000 N 
ATOM     12  H   UNL     1       5.214   7.210  17.146  0.00  0.00    +0.000 HD
ATOM     13  H   UNL     1       3.684   7.436  16.513  0.00  0.00    +0.000 HD
ENDBRANCH   1  11
BRANCH   6  14
ATOM     14  N   UNL     1       4.671   4.843  15.820  0.00  0.00    +0.000 N 
ATOM     15  H   UNL     1       3.973   4.914  15.080  0.00  0.00    +0.000 HD
BRANCH  14  16
ATOM     16  C   UNL     1       5.641   3.760  15.578  0.00  0.00    +0.000 C 
BRANCH  16  17
ATOM     17  C   UNL     1       7.071   4.285  15.447  0.00  0.00    +0.000 C 
BRANCH  17  18
ATOM     18  C   UNL     1       7.396   5.206  16.603  0.00  0.00    +0.000 A 
ATOM     19  C   UNL     1       7.655   4.688  17.871  0.00  0.00    +0.000 A 
ATOM     20  C   UNL     1       7.904   5.567  18.923  0.00  0.00    +0.000 A 
ATOM     21  C   UNL     1       7.888   6.935  18.683  0.00  0.00    +0.000 A 
ATOM     22  C   UNL     1       7.617   7.367  17.395  0.00  0.00    +0.000 A 
ATOM     23  N   UNL     1       7.368   6.535  16.357  0.00  0.00    +0.000 NA
ENDBRANCH  17  18
ENDBRANCH  16  17
ENDBRANCH  14  16
ENDBRANCH   6  14
TORSDOF 6
ENDMDL
MODEL 4
REMARK VINA RESULT:      -7.6      2.016      3.407
REMARK  Name = 
REMARK  6 active torsions:
REMARK  status: ('A' for Active; 'I' for Inactive)
REMARK    1  A    between atoms: N_1  and  C_2
REMARK    2  A    between atoms: C_4  and  C_5
REMARK    3  A    between atoms: C_11  and  N_12
REMARK    4  A    between atoms: N_12  and  C_13
REMARK    5  A    between atoms: C_13  and  C_14
REMARK    6  A    between atoms: C_14  and  C_15
REMARK                            x       y       z     vdW  Elec       q    Type
REMARK                         _______ _______ _______ _____ _____    ______ ____
ROOT
ATOM      1  C   UNL     1       4.605   4.101  18.631  0.00  0.00    +0.000 A 
ATOM      2  C   UNL     1       3.598   3.230  19.072  0.00  0.00    +0.000 A 
ATOM      3  C   UNL     1       2.243   3.546  18.904  0.00  0.00    +0.000 A 
ATOM      4  C   UNL     1       1.906   4.757  18.290  0.00  0.00    +0.000 A 
ATOM      5  C   UNL     1       2.900   5.652  17.895  0.00  0.00    +0.000 A 
ATOM      6  C   UNL     1       4.254   5.384  18.141  0.00  0.00    +0.000 A 
ENDROOT
BRANCH   3   7
ATOM      7  C   UNL     1       1.155   2.613  19.374  0.00  0.00    +0.000 C 
ATOM      8  F   UNL     1       0.442   3.090  20.432  0.00  0.00    +0.000 F 
ATOM      9  F   UNL     1       0.242   2.349  18.398  0.00  0.00    +0.000 F 
ATOM     10  F   UNL     1       1.642   1.404  19.767  0.00  0.00    +0.000 F 
ENDBRANCH   3   7
BRANCH   1  11
ATOM     11  N   UNL     1       5.957   3.780  18.896  0.00  0.00    +0.000 N 
ATOM     12  H   UNL     1       6.083   3.382  19.825  0.00  0.00    +0.000 HD
ATOM     13  H   UNL     1       6.311   3.139  18.187  0.00  0.00    +0.000 HD
ENDBRANCH   1  11
BRANCH   6  14
ATOM     14  N   UNL     1       5.280   6.316  17.824  0.00  0.00    +0.000 N 
ATOM     15  H   UNL     1       5.002   7.220  18.205  0.00  0.00    +0.000 HD
BRANCH  14  16
ATOM     16  C   UNL     1       5.631   6.390  16.394  0.00  0.00    +0.000 C 
BRANCH  16  17
ATOM     17  C   UNL     1       6.919   5.630  16.077  0.00  0.00    +0.000 C 
BRANCH  17  18
ATOM     18  C   UNL     1       6.859   5.062  14.675  0.00  0.00    +0.000 A 
ATOM     19  C   UNL     1       5.923   4.082  14.347  0.00  0.00    +0.000 A 
ATOM     20  C   UNL     1       5.927   3.548  13.061  0.00  0.00    +0.000 A 
ATOM     21  C   UNL     1       6.861   4.002  12.139  0.00  0.00    +0.000 A 
ATOM     22  C   UNL     1       7.759   4.975  12.548  0.00  0.00    +0.000 A 
ATOM     23  N   UNL     1       7.779   5.508  13.791  0.00  0.00    +0.000 NA
ENDBRANCH  17  18
ENDBRANCH  16  17
ENDBRANCH  14  16
ENDBRANCH   6  14
TORSDOF 6
ENDMDL
MODEL 5
REMARK VINA RESULT:      -7.6      0.804      1.186
REMARK  Name = 
REMARK  6 active torsions:
REMARK  status: ('A' for Active; 'I' for Inactive)
REMARK    1  A    between atoms: N_1  and  C_2
REMARK    2  A    between atoms: C_4  and  C_5
REMARK    3  A    between atoms: C_11  and  N_12
REMARK    4  A    between atoms: N_12  and  C_13
REMARK    5  A    between atoms: C_13  and  C_14
REMARK    6  A    between atoms: C_14  and  C_15
REMARK                            x       y       z     vdW  Elec       q    Type
REMARK                         _______ _______ _______ _____ _____    ______ ____
ROOT
ATOM      1  C   UNL     1       3.689   2.443  18.248  0.00  0.00    +0.000 A 
ATOM      2  C   UNL     1       2.903   2.804  19.352  0.00  0.00    +0.000 A 
ATOM      3  C   UNL     1       2.478   4.127  19.536  0.00  0.00    +0.000 A 
ATOM      4  C   UNL     1       2.856   5.092  18.597  0.00  0.00    +0.000 A 
ATOM      5  C   UNL     1       3.681   4.753  17.525  0.00  0.00    +0.000 A 
ATOM      6  C   UNL     1       4.185   3.452  17.383  0.00  0.00    +0.000 A 
ENDROOT
BRANCH   3   7
ATOM      7  C   UNL     1       1.630   4.520  20.719  0.00  0.00    +0.000 C 
ATOM      8  F   UNL     1       1.918   3.826  21.855  0.00  0.00    +0.000 F 
ATOM      9  F   UNL     1       1.769   5.836  21.042  0.00  0.00    +0.000 F 
ATOM     10  F   UNL     1       0.301   4.330  20.493  0.00  0.00    +0.000 F 
ENDBRANCH   3   7
BRANCH   1  11
ATOM     11  N   UNL     1       4.166   1.115  18.146  0.00  0.00    +0.000 N 
ATOM     12  H   UNL     1       4.676   0.955  17.279  0.00  0.00    +0.000 HD
ATOM     13  H   UNL     1       4.754   0.891  18.948  0.00  0.00    +0.000 HD
ENDBRANCH   1  11
BRANCH   6  14
ATOM     14  N   UNL     1       5.092   3.101  16.347  0.00  0.00    +0.000 N 
ATOM     15  H   UNL     1       5.952   2.776  16.788  0.00  0.00    +0.000 HD
BRANCH  14  16
ATOM     16  C   UNL     1       5.336   4.160  15.351  0.00  0.00    +0.000 C 
BRANCH  16  17
ATOM     17  C   UNL     1       6.806   4.581  15.306  0.00  0.00    +0.000 C 
BRANCH  17  18
ATOM     18  C   UNL     1       7.187   5.281  16.592  0.00  0.00    +0.000 A 
ATOM     19  C   UNL     1       7.182   6.673  16.670  0.00  0.00    +0.000 A 
ATOM     20  C   UNL     1       7.585   7.285  17.854  0.00  0.00    +0.000 A 
ATOM     21  C   UNL     1       7.981   6.496  18.927  0.00  0.00    +0.000 A 
ATOM     22  C   UNL     1       7.961   5.120  18.764  0.00  0.00    +0.000 A 
ATOM     23  N   UNL     1       7.579   4.501  17.624  0.00  0.00    +0.000 NA
ENDBRANCH  17  18
ENDBRANCH  16  17
ENDBRANCH  14  16
ENDBRANCH   6  14
TORSDOF 6
ENDMDL
MODEL 6
REMARK VINA RESULT:      -7.5      4.043      6.401
REMARK  Name = 
REMARK  6 active torsions:
REMARK  status: ('A' for Active; 'I' for Inactive)
REMARK    1  A    between atoms: N_1  and  C_2
REMARK    2  A    between atoms: C_4  and  C_5
REMARK    3  A    between atoms: C_11  and  N_12
REMARK    4  A    between atoms: N_12  and  C_13
REMARK    5  A    between atoms: C_13  and  C_14
REMARK    6  A    between atoms: C_14  and  C_15
REMARK                            x       y       z     vdW  Elec       q    Type
REMARK                         _______ _______ _______ _____ _____    ______ ____
ROOT
ATOM      1  C   UNL     1       5.111   4.341  18.123  0.00  0.00    +0.000 A 
ATOM      2  C   UNL     1       5.506   3.934  16.840  0.00  0.00    +0.000 A 
ATOM      3  C   UNL     1       5.513   4.835  15.765  0.00  0.00    +0.000 A 
ATOM      4  C   UNL     1       5.112   6.156  15.992  0.00  0.00    +0.000 A 
ATOM      5  C   UNL     1       4.669   6.556  17.253  0.00  0.00    +0.000 A 
ATOM      6  C   UNL     1       4.573   5.639  18.310  0.00  0.00    +0.000 A 
ENDROOT
BRANCH   3   7
ATOM      7  C   UNL     1       5.939   4.405  14.385  0.00  0.00    +0.000 C 
ATOM      8  F   UNL     1       6.514   3.171  14.347  0.00  0.00    +0.000 F 
ATOM      9  F   UNL     1       4.895   4.356  13.512  0.00  0.00    +0.000 F 
ATOM     10  F   UNL     1       6.847   5.256  13.832  0.00  0.00    +0.000 F 
ENDBRANCH   3   7
BRANCH   1  11
ATOM     11  N   UNL     1       5.039   3.379  19.158  0.00  0.00    +0.000 N 
ATOM     12  H   UNL     1       4.268   3.560  19.798  0.00  0.00    +0.000 HD
ATOM     13  H   UNL     1       4.956   2.443  18.762  0.00  0.00    +0.000 HD
ENDBRANCH   1  11
BRANCH   6  14
ATOM     14  N   UNL     1       4.047   6.001  19.580  0.00  0.00    +0.000 N 
ATOM     15  H   UNL     1       3.981   5.151  20.139  0.00  0.00    +0.000 HD
BRANCH  14  16
ATOM     16  C   UNL     1       2.776   6.747  19.535  0.00  0.00    +0.000 C 
BRANCH  16  17
ATOM     17  C   UNL     1       1.704   6.111  20.422  0.00  0.00    +0.000 C 
BRANCH  17  18
ATOM     18  C   UNL     1       1.601   4.629  20.135  0.00  0.00    +0.000 A 
ATOM     19  C   UNL     1       1.721   3.697  21.165  0.00  0.00    +0.000 A 
ATOM     20  C   UNL     1       1.668   2.340  20.858  0.00  0.00    +0.000 A 
ATOM     21  C   UNL     1       1.499   1.948  19.536  0.00  0.00    +0.000 A 
ATOM     22  C   UNL     1       1.393   2.938  18.573  0.00  0.00    +0.000 A 
ATOM     23  N   UNL     1       1.445   4.262  18.843  0.00  0.00    +0.000 NA
ENDBRANCH  17  18
ENDBRANCH  16  17
ENDBRANCH  14  16
ENDBRANCH   6  14
TORSDOF 6
ENDMDL
MODEL 7
REMARK VINA RESULT:      -7.4      1.428      1.871
REMARK  Name = 
REMARK  6 active torsions:
REMARK  status: ('A' for Active; 'I' for Inactive)
REMARK    1  A    between atoms: N_1  and  C_2
REMARK    2  A    between atoms: C_4  and  C_5
REMARK    3  A    between atoms: C_11  and  N_12
REMARK    4  A    between atoms: N_12  and  C_13
REMARK    5  A    between atoms: C_13  and  C_14
REMARK    6  A    between atoms: C_14  and  C_15
REMARK                            x       y       z     vdW  Elec       q    Type
REMARK                         _______ _______ _______ _____ _____    ______ ____
ROOT
ATOM      1  C   UNL     1       3.678   5.131  18.192  0.00  0.00    +0.000 A 
ATOM      2  C   UNL     1       2.711   4.720  19.121  0.00  0.00    +0.000 A 
ATOM      3  C   UNL     1       2.020   3.511  18.959  0.00  0.00    +0.000 A 
ATOM      4  C   UNL     1       2.308   2.716  17.845  0.00  0.00    +0.000 A 
ATOM      5  C   UNL     1       3.230   3.141  16.889  0.00  0.00    +0.000 A 
ATOM      6  C   UNL     1       3.859   4.391  16.997  0.00  0.00    +0.000 A 
ENDROOT
BRANCH   3   7
ATOM      7  C   UNL     1       0.981   3.062  19.955  0.00  0.00    +0.000 C 
ATOM      8  F   UNL     1       1.482   2.289  20.959  0.00  0.00    +0.000 F 
ATOM      9  F   UNL     1       0.362   4.109  20.567  0.00  0.00    +0.000 F 
ATOM     10  F   UNL     1      -0.009   2.327  19.379  0.00  0.00    +0.000 F 
ENDBRANCH   3   7
BRANCH   1  11
ATOM     11  N   UNL     1       4.290   6.397  18.350  0.00  0.00    +0.000 N 
ATOM     12  H   UNL     1       4.408   6.881  17.461  0.00  0.00    +0.000 HD
ATOM     13  H   UNL     1       3.747   6.972  18.994  0.00  0.00    +0.000 HD
ENDBRANCH   1  11
BRANCH   6  14
ATOM     14  N   UNL     1       4.739   4.883  15.995  0.00  0.00    +0.000 N 
ATOM     15  H   UNL     1       4.171   5.356  15.293  0.00  0.00    +0.000 HD
BRANCH  14  16
ATOM     16  C   UNL     1       5.637   3.873  15.407  0.00  0.00    +0.000 C 
BRANCH  16  17
ATOM     17  C   UNL     1       7.085   4.362  15.335  0.00  0.00    +0.000 C 
BRANCH  17  18
ATOM     18  C   UNL     1       7.406   5.222  16.539  0.00  0.00    +0.000 A 
ATOM     19  C   UNL     1       7.635   4.640  17.784  0.00  0.00    +0.000 A 
ATOM     20  C   UNL     1       7.881   5.464  18.880  0.00  0.00    +0.000 A 
ATOM     21  C   UNL     1       7.890   6.842  18.706  0.00  0.00    +0.000 A 
ATOM     22  C   UNL     1       7.647   7.339  17.435  0.00  0.00    +0.000 A 
ATOM     23  N   UNL     1       7.402   6.561  16.355  0.00  0.00    +0.000 NA
ENDBRANCH  17  18
ENDBRANCH  16  17
ENDBRANCH  14  16
ENDBRANCH   6  14
TORSDOF 6
ENDMDL
MODEL 8
REMARK VINA RESULT:      -7.3      1.174      1.513
REMARK  Name = 
REMARK  6 active torsions:
REMARK  status: ('A' for Active; 'I' for Inactive)
REMARK    1  A    between atoms: N_1  and  C_2
REMARK    2  A    between atoms: C_4  and  C_5
REMARK    3  A    between atoms: C_11  and  N_12
REMARK    4  A    between atoms: N_12  and  C_13
REMARK    5  A    between atoms: C_13  and  C_14
REMARK    6  A    between atoms: C_14  and  C_15
REMARK                            x       y       z     vdW  Elec       q    Type
REMARK                         _______ _______ _______ _____ _____    ______ ____
ROOT
ATOM      1  C   UNL     1       4.392   3.201  18.922  0.00  0.00    +0.000 A 
ATOM      2  C   UNL     1       3.357   3.355  19.856  0.00  0.00    +0.000 A 
ATOM      3  C   UNL     1       2.017   3.416  19.449  0.00  0.00    +0.000 A 
ATOM      4  C   UNL     1       1.724   3.324  18.084  0.00  0.00    +0.000 A 
ATOM      5  C   UNL     1       2.750   3.223  17.144  0.00  0.00    +0.000 A 
ATOM      6  C   UNL     1       4.096   3.252  17.537  0.00  0.00    +0.000 A 
ENDROOT
BRANCH   3   7
ATOM      7  C   UNL     1       0.900   3.578  20.448  0.00  0.00    +0.000 C 
ATOM      8  F   UNL     1       1.180   3.053  21.674  0.00  0.00    +0.000 F 
ATOM      9  F   UNL     1       0.587   4.886  20.667  0.00  0.00    +0.000 F 
ATOM     10  F   UNL     1      -0.253   2.981  20.041  0.00  0.00    +0.000 F 
ENDBRANCH   3   7
BRANCH   1  11
ATOM     11  N   UNL     1       5.734   3.229  19.370  0.00  0.00    +0.000 N 
ATOM     12  H   UNL     1       5.876   2.650  20.196  0.00  0.00    +0.000 HD
ATOM     13  H   UNL     1       6.360   2.934  18.621  0.00  0.00    +0.000 HD
ENDBRANCH   1  11
BRANCH   6  14
ATOM     14  N   UNL     1       5.160   3.234  16.593  0.00  0.00    +0.000 N 
ATOM     15  H   UNL     1       6.025   3.082  17.109  0.00  0.00    +0.000 HD
BRANCH  14  16
ATOM     16  C   UNL     1       5.229   4.415  15.713  0.00  0.00    +0.000 C 
BRANCH  16  17
ATOM     17  C   UNL     1       6.666   4.890  15.499  0.00  0.00    +0.000 C 
BRANCH  17  18
ATOM     18  C   UNL     1       7.159   5.632  16.723  0.00  0.00    +0.000 A 
ATOM     19  C   UNL     1       7.271   7.021  16.713  0.00  0.00    +0.000 A 
ATOM     20  C   UNL     1       7.773   7.667  17.840  0.00  0.00    +0.000 A 
ATOM     21  C   UNL     1       8.149   6.913  18.945  0.00  0.00    +0.000 A 
ATOM     22  C   UNL     1       8.009   5.536  18.870  0.00  0.00    +0.000 A 
ATOM     23  N   UNL     1       7.529   4.884  17.787  0.00  0.00    +0.000 NA
ENDBRANCH  17  18
ENDBRANCH  16  17
ENDBRANCH  14  16
ENDBRANCH   6  14
TORSDOF 6
ENDMDL
MODEL 9
REMARK VINA RESULT:      -7.3      4.030      6.409
REMARK  Name = 
REMARK  6 active torsions:
REMARK  status: ('A' for Active; 'I' for Inactive)
REMARK    1  A    between atoms: N_1  and  C_2
REMARK    2  A    between atoms: C_4  and  C_5
REMARK    3  A    between atoms: C_11  and  N_12
REMARK    4  A    between atoms: N_12  and  C_13
REMARK    5  A    between atoms: C_13  and  C_14
REMARK    6  A    between atoms: C_14  and  C_15
REMARK                            x       y       z     vdW  Elec       q    Type
REMARK                         _______ _______ _______ _____ _____    ______ ____
ROOT
ATOM      1  C   UNL     1       5.180   4.389  18.133  0.00  0.00    +0.000 A 
ATOM      2  C   UNL     1       5.564   3.974  16.850  0.00  0.00    +0.000 A 
ATOM      3  C   UNL     1       5.533   4.860  15.764  0.00  0.00    +0.000 A 
ATOM      4  C   UNL     1       5.105   6.174  15.979  0.00  0.00    +0.000 A 
ATOM      5  C   UNL     1       4.672   6.580  17.241  0.00  0.00    +0.000 A 
ATOM      6  C   UNL     1       4.614   5.676  18.312  0.00  0.00    +0.000 A 
ENDROOT
BRANCH   3   7
ATOM      7  C   UNL     1       5.948   4.421  14.382  0.00  0.00    +0.000 C 
ATOM      8  F   UNL     1       6.543   3.197  14.351  0.00  0.00    +0.000 F 
ATOM      9  F   UNL     1       4.892   4.344  13.524  0.00  0.00    +0.000 F 
ATOM     10  F   UNL     1       6.833   5.281  13.807  0.00  0.00    +0.000 F 
ENDBRANCH   3   7
BRANCH   1  11
ATOM     11  N   UNL     1       5.146   3.440  19.182  0.00  0.00    +0.000 N 
ATOM     12  H   UNL     1       5.592   2.562  18.921  0.00  0.00    +0.000 HD
ATOM     13  H   UNL     1       5.587   3.824  20.017  0.00  0.00    +0.000 HD
ENDBRANCH   1  11
BRANCH   6  14
ATOM     14  N   UNL     1       4.099   6.043  19.585  0.00  0.00    +0.000 N 
ATOM     15  H   UNL     1       4.046   5.197  20.151  0.00  0.00    +0.000 HD
BRANCH  14  16
ATOM     16  C   UNL     1       2.822   6.779  19.549  0.00  0.00    +0.000 C 
BRANCH  16  17
ATOM     17  C   UNL     1       1.709   6.037  20.291  0.00  0.00    +0.000 C 
BRANCH  17  18
ATOM     18  C   UNL     1       1.760   4.560  19.965  0.00  0.00    +0.000 A 
ATOM     19  C   UNL     1       1.329   4.092  18.725  0.00  0.00    +0.000 A 
ATOM     20  C   UNL     1       1.345   2.722  18.476  0.00  0.00    +0.000 A 
ATOM     21  C   UNL     1       1.788   1.856  19.468  0.00  0.00    +0.000 A 
ATOM     22  C   UNL     1       2.194   2.403  20.674  0.00  0.00    +0.000 A 
ATOM     23  N   UNL     1       2.185   3.729  20.943  0.00  0.00    +0.000 NA
ENDBRANCH  17  18
ENDBRANCH  16  17
ENDBRANCH  14  16
ENDBRANCH   6  14
TORSDOF 6
ENDMDL
