MODEL 1
REMARK VINA RESULT:      -8.3      0.000      0.000
REMARK  Name = 
REMARK  9 active torsions:
REMARK  status: ('A' for Active; 'I' for Inactive)
REMARK    1  A    between atoms: C_1  and  C_2
REMARK    2  A    between atoms: C_4  and  C_5
REMARK    3  A    between atoms: N_7  and  C_8
REMARK    4  A    between atoms: C_8  and  C_9
REMARK    5  A    between atoms: C_19  and  O_20
REMARK    6  A    between atoms: O_20  and  C_21
REMARK    7  A    between atoms: C_21  and  C_22
REMARK    8  A    between atoms: C_25  and  C_26
REMARK    9  A    between atoms: C_26  and  O_27
REMARK                            x       y       z     vdW  Elec       q    Type
REMARK                         _______ _______ _______ _____ _____    ______ ____
ROOT
ATOM      1  C   UNL     1       2.097   2.506  21.782  0.00  0.00    +0.000 C 
ATOM      2  C   UNL     1       1.175   3.281  20.835  0.00  0.00    +0.000 C 
ATOM      3  C   UNL     1       1.563   4.719  20.793  0.00  0.00    +0.000 C 
ATOM      4  C   UNL     1       1.837   5.392  19.666  0.00  0.00    +0.000 C 
ATOM      5  O   UNL     1       1.801   4.832  18.410  0.00  0.00    +0.000 OA
ATOM      6  C   UNL     1       1.836   3.400  18.325  0.00  0.00    +0.000 C 
ATOM      7  C   UNL     1       1.100   2.646  19.449  0.00  0.00    +0.000 C 
ENDROOT
BRANCH   4   8
ATOM      8  C   UNL     1       2.169   6.859  19.799  0.00  0.00    +0.000 C 
ATOM      9  O   UNL     1       2.855   7.461  18.973  0.00  0.00    +0.000 OA
ATOM     10  N   UNL     1       1.650   7.470  20.910  0.00  0.00    +0.000 N 
ATOM     11  H   UNL     1       1.056   6.945  21.556  0.00  0.00    +0.000 HD
BRANCH  10  12
ATOM     12  C   UNL     1       1.846   8.878  21.133  0.00  0.00    +0.000 C 
BRANCH  12  13
ATOM     13  C   UNL     1       0.729   9.673  20.551  0.00  0.00    +0.000 A 
ATOM     14  N   UNL     1      -0.035  10.574  21.145  0.00  0.00    +0.000 NA
ATOM     15  C   UNL     1      -0.933  10.991  20.188  0.00  0.00    +0.000 A 
ATOM     16  C   UNL     1      -1.984  11.916  20.283  0.00  0.00    +0.000 A 
ATOM     17  C   UNL     1      -2.773  12.155  19.150  0.00  0.00    +0.000 A 
ATOM     18  C   UNL     1      -2.517  11.495  17.945  0.00  0.00    +0.000 A 
ATOM     19  C   UNL     1      -1.467  10.574  17.827  0.00  0.00    +0.000 A 
ATOM     20  C   UNL     1      -0.703  10.352  18.976  0.00  0.00    +0.000 A 
ATOM     21  N   UNL     1       0.366   9.533  19.230  0.00  0.00    +0.000 N 
ATOM     22  H   UNL     1       0.811   8.912  18.561  0.00  0.00    +0.000 HD
ENDBRANCH  12  13
ENDBRANCH  10  12
ENDBRANCH   4   8
BRANCH   6  23
ATOM     23  O   UNL     1       3.183   2.949  18.144  0.00  0.00    +0.000 OA
BRANCH  23  24
ATOM     24  C   UNL     1       3.803   3.524  16.995  0.00  0.00    +0.000 C 
BRANCH  24  25
ATOM     25  C   UNL     1       4.881   4.498  17.377  0.00  0.00    +0.000 A 
ATOM     26  C   UNL     1       5.358   5.389  16.404  0.00  0.00    +0.000 A 
ATOM     27  C   UNL     1       6.375   6.288  16.706  0.00  0.00    +0.000 A 
ATOM     28  C   UNL     1       6.915   6.339  17.995  0.00  0.00    +0.000 A 
ATOM     29  C   UNL     1       6.429   5.455  18.971  0.00  0.00    +0.000 A 
ATOM     30  C   UNL     1       5.407   4.552  18.669  0.00  0.00    +0.000 A 
BRANCH  28  31
ATOM     31  C   UNL     1       8.052   7.283  18.281  0.00  0.00    +0.000 C 
BRANCH  31  32
ATOM     32  O   UNL     1       7.832   8.566  17.711  0.00  0.00    +0.000 OA
ATOM     33  H   UNL     1       7.890   8.453  16.746  0.00  0.00    +0.000 HD
ENDBRANCH  31  32
ENDBRANCH  28  31
ENDBRANCH  24  25
ENDBRANCH  23  24
ENDBRANCH   6  23
TORSDOF 8
ENDMDL
MODEL 2
REMARK VINA RESULT:      -8.3      1.142      1.240
REMARK  Name = 
REMARK  9 active torsions:
REMARK  status: ('A' for Active; 'I' for Inactive)
REMARK    1  A    between atoms: C_1  and  C_2
REMARK    2  A    between atoms: C_4  and  C_5
REMARK    3  A    between atoms: N_7  and  C_8
REMARK    4  A    between atoms: C_8  and  C_9
REMARK    5  A    between atoms: C_19  and  O_20
REMARK    6  A    between atoms: O_20  and  C_21
REMARK    7  A    between atoms: C_21  and  C_22
REMARK    8  A    between atoms: C_25  and  C_26
REMARK    9  A    between atoms: C_26  and  O_27
REMARK                            x       y       z     vdW  Elec       q    Type
REMARK                         _______ _______ _______ _____ _____    ______ ____
ROOT
ATOM      1  C   UNL     1       2.774   2.659  21.615  0.00  0.00    +0.000 C 
ATOM      2  C   UNL     1       1.609   3.297  20.851  0.00  0.00    +0.000 C 
ATOM      3  C   UNL     1       1.853   4.753  20.652  0.00  0.00    +0.000 C 
ATOM      4  C   UNL     1       1.823   5.366  19.461  0.00  0.00    +0.000 C 
ATOM      5  O   UNL     1       1.573   4.721  18.272  0.00  0.00    +0.000 OA
ATOM      6  C   UNL     1       1.714   3.293  18.255  0.00  0.00    +0.000 C 
ATOM      7  C   UNL     1       1.299   2.565  19.547  0.00  0.00    +0.000 C 
ENDROOT
BRANCH   4   8
ATOM      8  C   UNL     1       2.046   6.860  19.444  0.00  0.00    +0.000 C 
ATOM      9  O   UNL     1       2.102   7.533  20.472  0.00  0.00    +0.000 OA
ATOM     10  N   UNL     1       2.178   7.409  18.196  0.00  0.00    +0.000 N 
ATOM     11  H   UNL     1       2.159   6.813  17.366  0.00  0.00    +0.000 HD
BRANCH  10  12
ATOM     12  C   UNL     1       2.447   8.815  18.037  0.00  0.00    +0.000 C 
BRANCH  12  13
ATOM     13  C   UNL     1       1.231   9.628  18.318  0.00  0.00    +0.000 A 
ATOM     14  N   UNL     1       1.020  10.472  19.313  0.00  0.00    +0.000 NA
ATOM     15  C   UNL     1      -0.264  10.939  19.139  0.00  0.00    +0.000 A 
ATOM     16  C   UNL     1      -1.008  11.837  19.920  0.00  0.00    +0.000 A 
ATOM     17  C   UNL     1      -2.320  12.139  19.530  0.00  0.00    +0.000 A 
ATOM     18  C   UNL     1      -2.877  11.568  18.382  0.00  0.00    +0.000 A 
ATOM     19  C   UNL     1      -2.147  10.676  17.585  0.00  0.00    +0.000 A 
ATOM     20  C   UNL     1      -0.846  10.388  18.004  0.00  0.00    +0.000 A 
ATOM     21  N   UNL     1       0.130   9.573  17.493  0.00  0.00    +0.000 N 
ATOM     22  H   UNL     1       0.053   9.007  16.654  0.00  0.00    +0.000 HD
ENDBRANCH  12  13
ENDBRANCH  10  12
ENDBRANCH   4   8
BRANCH   6  23
ATOM     23  O   UNL     1       3.027   2.932  17.811  0.00  0.00    +0.000 OA
BRANCH  23  24
ATOM     24  C   UNL     1       3.470   3.725  16.711  0.00  0.00    +0.000 C 
BRANCH  24  25
ATOM     25  C   UNL     1       4.590   4.645  17.107  0.00  0.00    +0.000 A 
ATOM     26  C   UNL     1       4.973   5.662  16.219  0.00  0.00    +0.000 A 
ATOM     27  C   UNL     1       6.023   6.517  16.534  0.00  0.00    +0.000 A 
ATOM     28  C   UNL     1       6.693   6.397  17.755  0.00  0.00    +0.000 A 
ATOM     29  C   UNL     1       6.301   5.387  18.648  0.00  0.00    +0.000 A 
ATOM     30  C   UNL     1       5.246   4.527  18.334  0.00  0.00    +0.000 A 
BRANCH  28  31
ATOM     31  C   UNL     1       7.861   7.299  18.047  0.00  0.00    +0.000 C 
BRANCH  31  32
ATOM     32  O   UNL     1       8.518   6.943  19.255  0.00  0.00    +0.000 OA
ATOM     33  H   UNL     1       7.938   6.306  19.708  0.00  0.00    +0.000 HD
ENDBRANCH  31  32
ENDBRANCH  28  31
ENDBRANCH  24  25
ENDBRANCH  23  24
ENDBRANCH   6  23
TORSDOF 8
ENDMDL
MODEL 3
REMARK VINA RESULT:      -8.2      1.180      1.955
REMARK  Name = 
REMARK  9 active torsions:
REMARK  status: ('A' for Active; 'I' for Inactive)
REMARK    1  A    between atoms: C_1  and  C_2
REMARK    2  A    between atoms: C_4  and  C_5
REMARK    3  A    between atoms: N_7  and  C_8
REMARK    4  A    between atoms: C_8  and  C_9
REMARK    5  A    between atoms: C_19  and  O_20
REMARK    6  A    between atoms: O_20  and  C_21
REMARK    7  A    between atoms: C_21  and  C_22
REMARK    8  A    between atoms: C_25  and  C_26
REMARK    9  A    between atoms: C_26  and  O_27
REMARK                            x       y       z     vdW  Elec       q    Type
REMARK                         _______ _______ _______ _____ _____    ______ ____
ROOT
ATOM      1  C   UNL     1       2.242   3.250  21.753  0.00  0.00    +0.000 C 
ATOM      2  C   UNL     1       1.370   3.753  20.599  0.00  0.00    +0.000 C 
ATOM      3  C   UNL     1       1.760   5.139  20.217  0.00  0.00    +0.000 C 
ATOM      4  C   UNL     1       2.090   5.513  18.973  0.00  0.00    +0.000 C 
ATOM      5  O   UNL     1       2.118   4.657  17.897  0.00  0.00    +0.000 OA
ATOM      6  C   UNL     1       2.156   3.250  18.174  0.00  0.00    +0.000 C 
ATOM      7  C   UNL     1       1.364   2.791  19.413  0.00  0.00    +0.000 C 
ENDROOT
BRANCH   4   8
ATOM      8  C   UNL     1       2.415   6.971  18.751  0.00  0.00    +0.000 C 
ATOM      9  O   UNL     1       3.324   7.342  18.010  0.00  0.00    +0.000 OA
ATOM     10  N   UNL     1       1.622   7.850  19.441  0.00  0.00    +0.000 N 
ATOM     11  H   UNL     1       0.854   7.505  20.021  0.00  0.00    +0.000 HD
BRANCH  10  12
ATOM     12  C   UNL     1       1.789   9.271  19.280  0.00  0.00    +0.000 C 
BRANCH  12  13
ATOM     13  C   UNL     1       0.741  10.021  20.027  0.00  0.00    +0.000 A 
ATOM     14  N   UNL     1      -0.068  10.966  19.579  0.00  0.00    +0.000 NA
ATOM     15  C   UNL     1      -0.822  11.356  20.664  0.00  0.00    +0.000 A 
ATOM     16  C   UNL     1      -1.815  12.342  20.762  0.00  0.00    +0.000 A 
ATOM     17  C   UNL     1      -2.428  12.558  22.004  0.00  0.00    +0.000 A 
ATOM     18  C   UNL     1      -2.067  11.803  23.123  0.00  0.00    +0.000 A 
ATOM     19  C   UNL     1      -1.082  10.808  23.044  0.00  0.00    +0.000 A 
ATOM     20  C   UNL     1      -0.485  10.622  21.795  0.00  0.00    +0.000 A 
ATOM     21  N   UNL     1       0.497   9.772  21.359  0.00  0.00    +0.000 N 
ATOM     22  H   UNL     1       0.981   9.081  21.925  0.00  0.00    +0.000 HD
ENDBRANCH  12  13
ENDBRANCH  10  12
ENDBRANCH   4   8
BRANCH   6  23
ATOM     23  O   UNL     1       3.511   2.785  18.178  0.00  0.00    +0.000 OA
BRANCH  23  24
ATOM     24  C   UNL     1       4.228   3.177  17.008  0.00  0.00    +0.000 C 
BRANCH  24  25
ATOM     25  C   UNL     1       5.250   4.235  17.314  0.00  0.00    +0.000 A 
ATOM     26  C   UNL     1       5.603   4.463  18.653  0.00  0.00    +0.000 A 
ATOM     27  C   UNL     1       6.523   5.451  18.984  0.00  0.00    +0.000 A 
ATOM     28  C   UNL     1       7.136   6.211  17.983  0.00  0.00    +0.000 A 
ATOM     29  C   UNL     1       6.792   5.974  16.643  0.00  0.00    +0.000 A 
ATOM     30  C   UNL     1       5.868   4.981  16.309  0.00  0.00    +0.000 A 
BRANCH  28  31
ATOM     31  C   UNL     1       8.087   7.311  18.371  0.00  0.00    +0.000 C 
BRANCH  31  32
ATOM     32  O   UNL     1       7.815   8.518  17.673  0.00  0.00    +0.000 OA
ATOM     33  H   UNL     1       7.315   8.270  16.876  0.00  0.00    +0.000 HD
ENDBRANCH  31  32
ENDBRANCH  28  31
ENDBRANCH  24  25
ENDBRANCH  23  24
ENDBRANCH   6  23
TORSDOF 8
ENDMDL
MODEL 4
REMARK VINA RESULT:      -8.2      3.408      8.277
REMARK  Name = 
REMARK  9 active torsions:
REMARK  status: ('A' for Active; 'I' for Inactive)
REMARK    1  A    between atoms: C_1  and  C_2
REMARK    2  A    between atoms: C_4  and  C_5
REMARK    3  A    between atoms: N_7  and  C_8
REMARK    4  A    between atoms: C_8  and  C_9
REMARK    5  A    between atoms: C_19  and  O_20
REMARK    6  A    between atoms: O_20  and  C_21
REMARK    7  A    between atoms: C_21  and  C_22
REMARK    8  A    between atoms: C_25  and  C_26
REMARK    9  A    between atoms: C_26  and  O_27
REMARK                            x       y       z     vdW  Elec       q    Type
REMARK                         _______ _______ _______ _____ _____    ______ ____
ROOT
ATOM      1  C   UNL     1       0.630   2.832  18.549  0.00  0.00    +0.000 C 
ATOM      2  C   UNL     1       1.686   2.883  19.658  0.00  0.00    +0.000 C 
ATOM      3  C   UNL     1       3.001   3.312  19.105  0.00  0.00    +0.000 C 
ATOM      4  C   UNL     1       3.718   4.340  19.581  0.00  0.00    +0.000 C 
ATOM      5  O   UNL     1       3.320   5.131  20.634  0.00  0.00    +0.000 OA
ATOM      6  C   UNL     1       1.933   5.094  20.999  0.00  0.00    +0.000 C 
ATOM      7  C   UNL     1       1.238   3.728  20.848  0.00  0.00    +0.000 C 
ENDROOT
BRANCH   4   8
ATOM      8  C   UNL     1       5.055   4.611  18.932  0.00  0.00    +0.000 C 
ATOM      9  O   UNL     1       6.046   3.913  19.141  0.00  0.00    +0.000 OA
ATOM     10  N   UNL     1       5.080   5.696  18.096  0.00  0.00    +0.000 N 
ATOM     11  H   UNL     1       4.227   6.232  17.921  0.00  0.00    +0.000 HD
BRANCH  10  12
ATOM     12  C   UNL     1       6.277   6.036  17.372  0.00  0.00    +0.000 C 
BRANCH  12  13
ATOM     13  C   UNL     1       6.271   5.430  16.011  0.00  0.00    +0.000 A 
ATOM     14  N   UNL     1       5.361   4.640  15.468  0.00  0.00    +0.000 NA
ATOM     15  C   UNL     1       5.837   4.331  14.213  0.00  0.00    +0.000 A 
ATOM     16  C   UNL     1       5.285   3.509  13.219  0.00  0.00    +0.000 A 
ATOM     17  C   UNL     1       5.987   3.344  12.017  0.00  0.00    +0.000 A 
ATOM     18  C   UNL     1       7.208   3.990  11.805  0.00  0.00    +0.000 A 
ATOM     19  C   UNL     1       7.772   4.822  12.782  0.00  0.00    +0.000 A 
ATOM     20  C   UNL     1       7.052   4.960  13.971  0.00  0.00    +0.000 A 
ATOM     21  N   UNL     1       7.297   5.664  15.122  0.00  0.00    +0.000 N 
ATOM     22  H   UNL     1       8.107   6.249  15.300  0.00  0.00    +0.000 HD
ENDBRANCH  12  13
ENDBRANCH  10  12
ENDBRANCH   4   8
BRANCH   6  23
ATOM     23  O   UNL     1       1.223   6.153  20.346  0.00  0.00    +0.000 OA
BRANCH  23  24
ATOM     24  C   UNL     1       1.960   7.375  20.326  0.00  0.00    +0.000 C 
BRANCH  24  25
ATOM     25  C   UNL     1       1.113   8.538  20.761  0.00  0.00    +0.000 A 
ATOM     26  C   UNL     1       0.872   8.720  22.130  0.00  0.00    +0.000 A 
ATOM     27  C   UNL     1       0.071   9.766  22.574  0.00  0.00    +0.000 A 
ATOM     28  C   UNL     1      -0.480  10.673  21.663  0.00  0.00    +0.000 A 
ATOM     29  C   UNL     1      -0.228  10.497  20.293  0.00  0.00    +0.000 A 
ATOM     30  C   UNL     1       0.578   9.447  19.846  0.00  0.00    +0.000 A 
BRANCH  28  31
ATOM     31  C   UNL     1      -1.388  11.763  22.165  0.00  0.00    +0.000 C 
BRANCH  31  32
ATOM     32  O   UNL     1      -2.077  11.377  23.345  0.00  0.00    +0.000 OA
ATOM     33  H   UNL     1      -2.901  11.895  23.367  0.00  0.00    +0.000 HD
ENDBRANCH  31  32
ENDBRANCH  28  31
ENDBRANCH  24  25
ENDBRANCH  23  24
ENDBRANCH   6  23
TORSDOF 8
ENDMDL
MODEL 5
REMARK VINA RESULT:      -8.1      3.322      7.971
REMARK  Name = 
REMARK  9 active torsions:
REMARK  status: ('A' for Active; 'I' for Inactive)
REMARK    1  A    between atoms: C_1  and  C_2
REMARK    2  A    between atoms: C_4  and  C_5
REMARK    3  A    between atoms: N_7  and  C_8
REMARK    4  A    between atoms: C_8  and  C_9
REMARK    5  A    between atoms: C_19  and  O_20
REMARK    6  A    between atoms: O_20  and  C_21
REMARK    7  A    between atoms: C_21  and  C_22
REMARK    8  A    between atoms: C_25  and  C_26
REMARK    9  A    between atoms: C_26  and  O_27
REMARK                            x       y       z     vdW  Elec       q    Type
REMARK                         _______ _______ _______ _____ _____    ______ ____
ROOT
ATOM      1  C   UNL     1       1.061   2.429  18.544  0.00  0.00    +0.000 C 
ATOM      2  C   UNL     1       2.125   2.593  19.634  0.00  0.00    +0.000 C 
ATOM      3  C   UNL     1       3.361   3.202  19.067  0.00  0.00    +0.000 C 
ATOM      4  C   UNL     1       3.949   4.305  19.554  0.00  0.00    +0.000 C 
ATOM      5  O   UNL     1       3.474   5.015  20.632  0.00  0.00    +0.000 OA
ATOM      6  C   UNL     1       2.112   4.790  21.022  0.00  0.00    +0.000 C 
ATOM      7  C   UNL     1       1.597   3.348  20.852  0.00  0.00    +0.000 C 
ENDROOT
BRANCH   4   8
ATOM      8  C   UNL     1       5.225   4.762  18.887  0.00  0.00    +0.000 C 
ATOM      9  O   UNL     1       6.311   4.226  19.100  0.00  0.00    +0.000 OA
ATOM     10  N   UNL     1       5.080   5.819  18.028  0.00  0.00    +0.000 N 
ATOM     11  H   UNL     1       4.154   6.216  17.851  0.00  0.00    +0.000 HD
BRANCH  10  12
ATOM     12  C   UNL     1       6.207   6.322  17.286  0.00  0.00    +0.000 C 
BRANCH  12  13
ATOM     13  C   UNL     1       6.331   5.635  15.971  0.00  0.00    +0.000 A 
ATOM     14  N   UNL     1       7.349   5.654  15.127  0.00  0.00    +0.000 NA
ATOM     15  C   UNL     1       6.956   4.890  14.052  0.00  0.00    +0.000 A 
ATOM     16  C   UNL     1       7.637   4.595  12.860  0.00  0.00    +0.000 A 
ATOM     17  C   UNL     1       7.001   3.795  11.903  0.00  0.00    +0.000 A 
ATOM     18  C   UNL     1       5.718   3.289  12.128  0.00  0.00    +0.000 A 
ATOM     19  C   UNL     1       5.024   3.565  13.315  0.00  0.00    +0.000 A 
ATOM     20  C   UNL     1       5.682   4.372  14.246  0.00  0.00    +0.000 A 
ATOM     21  N   UNL     1       5.315   4.847  15.479  0.00  0.00    +0.000 N 
ATOM     22  H   UNL     1       4.434   4.664  15.948  0.00  0.00    +0.000 HD
ENDBRANCH  12  13
ENDBRANCH  10  12
ENDBRANCH   4   8
BRANCH   6  23
ATOM     23  O   UNL     1       1.256   5.760  20.407  0.00  0.00    +0.000 OA
BRANCH  23  24
ATOM     24  C   UNL     1       1.950   6.955  20.053  0.00  0.00    +0.000 C 
BRANCH  24  25
ATOM     25  C   UNL     1       1.275   8.175  20.614  0.00  0.00    +0.000 A 
ATOM     26  C   UNL     1       1.196   9.327  19.818  0.00  0.00    +0.000 A 
ATOM     27  C   UNL     1       0.605  10.486  20.308  0.00  0.00    +0.000 A 
ATOM     28  C   UNL     1       0.052  10.510  21.592  0.00  0.00    +0.000 A 
ATOM     29  C   UNL     1       0.121   9.353  22.384  0.00  0.00    +0.000 A 
ATOM     30  C   UNL     1       0.713   8.187  21.892  0.00  0.00    +0.000 A 
BRANCH  28  31
ATOM     31  C   UNL     1      -0.532  11.793  22.119  0.00  0.00    +0.000 C 
BRANCH  31  32
ATOM     32  O   UNL     1       0.355  12.890  21.946  0.00  0.00    +0.000 OA
ATOM     33  H   UNL     1      -0.104  13.675  22.292  0.00  0.00    +0.000 HD
ENDBRANCH  31  32
ENDBRANCH  28  31
ENDBRANCH  24  25
ENDBRANCH  23  24
ENDBRANCH   6  23
TORSDOF 8
ENDMDL
MODEL 6
REMARK VINA RESULT:      -7.9      2.053      2.959
REMARK  Name = 
REMARK  9 active torsions:
REMARK  status: ('A' for Active; 'I' for Inactive)
REMARK    1  A    between atoms: C_1  and  C_2
REMARK    2  A    between atoms: C_4  and  C_5
REMARK    3  A    between atoms: N_7  and  C_8
REMARK    4  A    between atoms: C_8  and  C_9
REMARK    5  A    between atoms: C_19  and  O_20
REMARK    6  A    between atoms: O_20  and  C_21
REMARK    7  A    between atoms: C_21  and  C_22
REMARK    8  A    between atoms: C_25  and  C_26
REMARK    9  A    between atoms: C_26  and  O_27
REMARK                            x       y       z     vdW  Elec       q    Type
REMARK                         _______ _______ _______ _____ _____    ______ ____
ROOT
ATOM      1  C   UNL     1       2.526   3.354  21.591  0.00  0.00    +0.000 C 
ATOM      2  C   UNL     1       1.954   4.022  20.337  0.00  0.00    +0.000 C 
ATOM      3  C   UNL     1       1.618   5.447  20.614  0.00  0.00    +0.000 C 
ATOM      4  C   UNL     1       2.073   6.482  19.892  0.00  0.00    +0.000 C 
ATOM      5  O   UNL     1       2.914   6.353  18.812  0.00  0.00    +0.000 OA
ATOM      6  C   UNL     1       3.626   5.115  18.674  0.00  0.00    +0.000 C 
ATOM      7  C   UNL     1       2.864   3.853  19.122  0.00  0.00    +0.000 C 
ENDROOT
BRANCH   4   8
ATOM      8  C   UNL     1       1.595   7.861  20.282  0.00  0.00    +0.000 C 
ATOM      9  O   UNL     1       1.277   8.150  21.435  0.00  0.00    +0.000 OA
ATOM     10  N   UNL     1       1.540   8.764  19.254  0.00  0.00    +0.000 N 
ATOM     11  H   UNL     1       1.845   8.496  18.315  0.00  0.00    +0.000 HD
BRANCH  10  12
ATOM     12  C   UNL     1       1.152  10.129  19.496  0.00  0.00    +0.000 C 
BRANCH  12  13
ATOM     13  C   UNL     1      -0.171  10.427  18.880  0.00  0.00    +0.000 A 
ATOM     14  N   UNL     1      -1.185  11.099  19.398  0.00  0.00    +0.000 NA
ATOM     15  C   UNL     1      -2.179  11.066  18.446  0.00  0.00    +0.000 A 
ATOM     16  C   UNL     1      -3.477  11.598  18.481  0.00  0.00    +0.000 A 
ATOM     17  C   UNL     1      -4.311  11.410  17.371  0.00  0.00    +0.000 A 
ATOM     18  C   UNL     1      -3.861  10.715  16.245  0.00  0.00    +0.000 A 
ATOM     19  C   UNL     1      -2.565  10.183  16.187  0.00  0.00    +0.000 A 
ATOM     20  C   UNL     1      -1.761  10.380  17.312  0.00  0.00    +0.000 A 
ATOM     21  N   UNL     1      -0.478  10.000  17.608  0.00  0.00    +0.000 N 
ATOM     22  H   UNL     1       0.142   9.475  16.999  0.00  0.00    +0.000 HD
ENDBRANCH  12  13
ENDBRANCH  10  12
ENDBRANCH   4   8
BRANCH   6  23
ATOM     23  O   UNL     1       4.923   5.222  19.273  0.00  0.00    +0.000 OA
BRANCH  23  24
ATOM     24  C   UNL     1       5.835   5.971  18.471  0.00  0.00    +0.000 C 
BRANCH  24  25
ATOM     25  C   UNL     1       5.907   5.437  17.069  0.00  0.00    +0.000 A 
ATOM     26  C   UNL     1       6.602   4.240  16.840  0.00  0.00    +0.000 A 
ATOM     27  C   UNL     1       6.718   3.724  15.554  0.00  0.00    +0.000 A 
ATOM     28  C   UNL     1       6.115   4.375  14.473  0.00  0.00    +0.000 A 
ATOM     29  C   UNL     1       5.409   5.566  14.705  0.00  0.00    +0.000 A 
ATOM     30  C   UNL     1       5.291   6.085  15.997  0.00  0.00    +0.000 A 
BRANCH  28  31
ATOM     31  C   UNL     1       6.302   3.826  13.085  0.00  0.00    +0.000 C 
BRANCH  31  32
ATOM     32  O   UNL     1       5.065   3.680  12.401  0.00  0.00    +0.000 OA
ATOM     33  H   UNL     1       5.219   3.972  11.486  0.00  0.00    +0.000 HD
ENDBRANCH  31  32
ENDBRANCH  28  31
ENDBRANCH  24  25
ENDBRANCH  23  24
ENDBRANCH   6  23
TORSDOF 8
ENDMDL
MODEL 7
REMARK VINA RESULT:      -7.9      1.217      1.263
REMARK  Name = 
REMARK  9 active torsions:
REMARK  status: ('A' for Active; 'I' for Inactive)
REMARK    1  A    between atoms: C_1  and  C_2
REMARK    2  A    between atoms: C_4  and  C_5
REMARK    3  A    between atoms: N_7  and  C_8
REMARK    4  A    between atoms: C_8  and  C_9
REMARK    5  A    between atoms: C_19  and  O_20
REMARK    6  A    between atoms: O_20  and  C_21
REMARK    7  A    between atoms: C_21  and  C_22
REMARK    8  A    between atoms: C_25  and  C_26
REMARK    9  A    between atoms: C_26  and  O_27
REMARK                            x       y       z     vdW  Elec       q    Type
REMARK                         _______ _______ _______ _____ _____    ______ ____
ROOT
ATOM      1  C   UNL     1       2.387   2.925  21.623  0.00  0.00    +0.000 C 
ATOM      2  C   UNL     1       1.303   3.565  20.750  0.00  0.00    +0.000 C 
ATOM      3  C   UNL     1       1.725   4.923  20.307  0.00  0.00    +0.000 C 
ATOM      4  C   UNL     1       1.757   5.322  19.028  0.00  0.00    +0.000 C 
ATOM      5  O   UNL     1       1.412   4.519  17.965  0.00  0.00    +0.000 OA
ATOM      6  C   UNL     1       1.371   3.104  18.194  0.00  0.00    +0.000 C 
ATOM      7  C   UNL     1       0.885   2.666  19.589  0.00  0.00    +0.000 C 
ENDROOT
BRANCH   4   8
ATOM      8  C   UNL     1       2.167   6.750  18.757  0.00  0.00    +0.000 C 
ATOM      9  O   UNL     1       3.032   7.046  17.934  0.00  0.00    +0.000 OA
ATOM     10  N   UNL     1       1.503   7.691  19.500  0.00  0.00    +0.000 N 
ATOM     11  H   UNL     1       0.766   7.408  20.150  0.00  0.00    +0.000 HD
BRANCH  10  12
ATOM     12  C   UNL     1       1.759   9.094  19.305  0.00  0.00    +0.000 C 
BRANCH  12  13
ATOM     13  C   UNL     1       0.493   9.841  19.068  0.00  0.00    +0.000 A 
ATOM     14  N   UNL     1      -0.162  10.634  19.900  0.00  0.00    +0.000 NA
ATOM     15  C   UNL     1      -1.281  11.051  19.215  0.00  0.00    +0.000 A 
ATOM     16  C   UNL     1      -2.332  11.882  19.631  0.00  0.00    +0.000 A 
ATOM     17  C   UNL     1      -3.377  12.143  18.735  0.00  0.00    +0.000 A 
ATOM     18  C   UNL     1      -3.373  11.597  17.448  0.00  0.00    +0.000 A 
ATOM     19  C   UNL     1      -2.328  10.771  17.011  0.00  0.00    +0.000 A 
ATOM     20  C   UNL     1      -1.305  10.523  17.930  0.00  0.00    +0.000 A 
ATOM     21  N   UNL     1      -0.160   9.773  17.858  0.00  0.00    +0.000 N 
ATOM     22  H   UNL     1       0.151   9.239  17.051  0.00  0.00    +0.000 HD
ENDBRANCH  12  13
ENDBRANCH  10  12
ENDBRANCH   4   8
BRANCH   6  23
ATOM     23  O   UNL     1       2.622   2.509  17.830  0.00  0.00    +0.000 OA
BRANCH  23  24
ATOM     24  C   UNL     1       3.341   3.287  16.875  0.00  0.00    +0.000 C 
BRANCH  24  25
ATOM     25  C   UNL     1       4.523   3.975  17.497  0.00  0.00    +0.000 A 
ATOM     26  C   UNL     1       5.330   4.789  16.689  0.00  0.00    +0.000 A 
ATOM     27  C   UNL     1       6.450   5.421  17.218  0.00  0.00    +0.000 A 
ATOM     28  C   UNL     1       6.769   5.280  18.572  0.00  0.00    +0.000 A 
ATOM     29  C   UNL     1       5.954   4.475  19.382  0.00  0.00    +0.000 A 
ATOM     30  C   UNL     1       4.828   3.840  18.853  0.00  0.00    +0.000 A 
BRANCH  28  31
ATOM     31  C   UNL     1       8.017   5.930  19.106  0.00  0.00    +0.000 C 
BRANCH  31  32
ATOM     32  O   UNL     1       8.303   5.517  20.435  0.00  0.00    +0.000 OA
ATOM     33  H   UNL     1       7.463   5.555  20.923  0.00  0.00    +0.000 HD
ENDBRANCH  31  32
ENDBRANCH  28  31
ENDBRANCH  24  25
ENDBRANCH  23  24
ENDBRANCH   6  23
TORSDOF 8
ENDMDL
MODEL 8
REMARK VINA RESULT:      -7.8      1.094      1.569
REMARK  Name = 
REMARK  9 active torsions:
REMARK  status: ('A' for Active; 'I' for Inactive)
REMARK    1  A    between atoms: C_1  and  C_2
REMARK    2  A    between atoms: C_4  and  C_5
REMARK    3  A    between atoms: N_7  and  C_8
REMARK    4  A    between atoms: C_8  and  C_9
REMARK    5  A    between atoms: C_19  and  O_20
REMARK    6  A    between atoms: O_20  and  C_21
REMARK    7  A    between atoms: C_21  and  C_22
REMARK    8  A    between atoms: C_25  and  C_26
REMARK    9  A    between atoms: C_26  and  O_27
REMARK                            x       y       z     vdW  Elec       q    Type
REMARK                         _______ _______ _______ _____ _____    ______ ____
ROOT
ATOM      1  C   UNL     1       2.112   2.490  21.893  0.00  0.00    +0.000 C 
ATOM      2  C   UNL     1       1.192   3.121  20.843  0.00  0.00    +0.000 C 
ATOM      3  C   UNL     1       1.534   4.557  20.646  0.00  0.00    +0.000 C 
ATOM      4  C   UNL     1       1.817   5.109  19.457  0.00  0.00    +0.000 C 
ATOM      5  O   UNL     1       1.835   4.410  18.273  0.00  0.00    +0.000 OA
ATOM      6  C   UNL     1       1.919   2.980  18.352  0.00  0.00    +0.000 C 
ATOM      7  C   UNL     1       1.177   2.331  19.536  0.00  0.00    +0.000 C 
ENDROOT
BRANCH   4   8
ATOM      8  C   UNL     1       2.097   6.593  19.431  0.00  0.00    +0.000 C 
ATOM      9  O   UNL     1       2.247   7.257  20.455  0.00  0.00    +0.000 OA
ATOM     10  N   UNL     1       2.168   7.144  18.179  0.00  0.00    +0.000 N 
ATOM     11  H   UNL     1       2.071   6.553  17.349  0.00  0.00    +0.000 HD
BRANCH  10  12
ATOM     12  C   UNL     1       2.480   8.538  18.007  0.00  0.00    +0.000 C 
BRANCH  12  13
ATOM     13  C   UNL     1       1.317   9.396  18.365  0.00  0.00    +0.000 A 
ATOM     14  N   UNL     1       0.256   9.690  17.632  0.00  0.00    +0.000 NA
ATOM     15  C   UNL     1      -0.505  10.539  18.403  0.00  0.00    +0.000 A 
ATOM     16  C   UNL     1      -1.720  11.176  18.108  0.00  0.00    +0.000 A 
ATOM     17  C   UNL     1      -2.291  12.017  19.073  0.00  0.00    +0.000 A 
ATOM     18  C   UNL     1      -1.671  12.214  20.309  0.00  0.00    +0.000 A 
ATOM     19  C   UNL     1      -0.460  11.581  20.627  0.00  0.00    +0.000 A 
ATOM     20  C   UNL     1       0.086  10.755  19.642  0.00  0.00    +0.000 A 
ATOM     21  N   UNL     1       1.233  10.006  19.597  0.00  0.00    +0.000 N 
ATOM     22  H   UNL     1       1.919   9.923  20.342  0.00  0.00    +0.000 HD
ENDBRANCH  12  13
ENDBRANCH  10  12
ENDBRANCH   4   8
BRANCH   6  23
ATOM     23  O   UNL     1       3.285   2.560  18.256  0.00  0.00    +0.000 OA
BRANCH  23  24
ATOM     24  C   UNL     1       3.908   2.994  17.049  0.00  0.00    +0.000 C 
BRANCH  24  25
ATOM     25  C   UNL     1       4.747   4.222  17.269  0.00  0.00    +0.000 A 
ATOM     26  C   UNL     1       4.785   5.199  16.264  0.00  0.00    +0.000 A 
ATOM     27  C   UNL     1       5.571   6.337  16.414  0.00  0.00    +0.000 A 
ATOM     28  C   UNL     1       6.308   6.539  17.585  0.00  0.00    +0.000 A 
ATOM     29  C   UNL     1       6.259   5.565  18.595  0.00  0.00    +0.000 A 
ATOM     30  C   UNL     1       5.470   4.422  18.446  0.00  0.00    +0.000 A 
BRANCH  28  31
ATOM     31  C   UNL     1       7.193   7.751  17.699  0.00  0.00    +0.000 C 
BRANCH  31  32
ATOM     32  O   UNL     1       8.230   7.744  16.728  0.00  0.00    +0.000 OA
ATOM     33  H   UNL     1       9.006   8.153  17.149  0.00  0.00    +0.000 HD
ENDBRANCH  31  32
ENDBRANCH  28  31
ENDBRANCH  24  25
ENDBRANCH  23  24
ENDBRANCH   6  23
TORSDOF 8
ENDMDL
MODEL 9
REMARK VINA RESULT:      -7.7      1.702      2.498
REMARK  Name = 
REMARK  9 active torsions:
REMARK  status: ('A' for Active; 'I' for Inactive)
REMARK    1  A    between atoms: C_1  and  C_2
REMARK    2  A    between atoms: C_4  and  C_5
REMARK    3  A    between atoms: N_7  and  C_8
REMARK    4  A    between atoms: C_8  and  C_9
REMARK    5  A    between atoms: C_19  and  O_20
REMARK    6  A    between atoms: O_20  and  C_21
REMARK    7  A    between atoms: C_21  and  C_22
REMARK    8  A    between atoms: C_25  and  C_26
REMARK    9  A    between atoms: C_26  and  O_27
REMARK                            x       y       z     vdW  Elec       q    Type
REMARK                         _______ _______ _______ _____ _____    ______ ____
ROOT
ATOM      1  C   UNL     1       2.056   2.620  19.515  0.00  0.00    +0.000 C 
ATOM      2  C   UNL     1       1.938   3.546  18.300  0.00  0.00    +0.000 C 
ATOM      3  C   UNL     1       1.793   4.963  18.737  0.00  0.00    +0.000 C 
ATOM      4  C   UNL     1       2.583   5.964  18.323  0.00  0.00    +0.000 C 
ATOM      5  O   UNL     1       3.632   5.801  17.449  0.00  0.00    +0.000 OA
ATOM      6  C   UNL     1       4.133   4.470  17.259  0.00  0.00    +0.000 C 
ATOM      7  C   UNL     1       3.079   3.347  17.305  0.00  0.00    +0.000 C 
ENDROOT
BRANCH   4   8
ATOM      8  C   UNL     1       2.267   7.351  18.830  0.00  0.00    +0.000 C 
ATOM      9  O   UNL     1       2.155   7.609  20.028  0.00  0.00    +0.000 OA
ATOM     10  N   UNL     1       2.111   8.299  17.854  0.00  0.00    +0.000 N 
ATOM     11  H   UNL     1       2.245   8.054  16.870  0.00  0.00    +0.000 HD
BRANCH  10  12
ATOM     12  C   UNL     1       1.859   9.674  18.200  0.00  0.00    +0.000 C 
BRANCH  12  13
ATOM     13  C   UNL     1       0.402   9.980  18.151  0.00  0.00    +0.000 A 
ATOM     14  N   UNL     1      -0.549   9.345  17.488  0.00  0.00    +0.000 NA
ATOM     15  C   UNL     1      -1.710  10.038  17.747  0.00  0.00    +0.000 A 
ATOM     16  C   UNL     1      -3.014   9.816  17.279  0.00  0.00    +0.000 A 
ATOM     17  C   UNL     1      -4.032  10.689  17.685  0.00  0.00    +0.000 A 
ATOM     18  C   UNL     1      -3.762  11.755  18.546  0.00  0.00    +0.000 A 
ATOM     19  C   UNL     1      -2.467  11.990  19.032  0.00  0.00    +0.000 A 
ATOM     20  C   UNL     1      -1.473  11.107  18.603  0.00  0.00    +0.000 A 
ATOM     21  N   UNL     1      -0.128  11.037  18.856  0.00  0.00    +0.000 N 
ATOM     22  H   UNL     1       0.398  11.669  19.452  0.00  0.00    +0.000 HD
ENDBRANCH  12  13
ENDBRANCH  10  12
ENDBRANCH   4   8
BRANCH   6  23
ATOM     23  O   UNL     1       5.239   4.229  18.138  0.00  0.00    +0.000 OA
BRANCH  23  24
ATOM     24  C   UNL     1       6.499   4.388  17.488  0.00  0.00    +0.000 C 
BRANCH  24  25
ATOM     25  C   UNL     1       7.112   5.726  17.791  0.00  0.00    +0.000 A 
ATOM     26  C   UNL     1       6.862   6.794  16.916  0.00  0.00    +0.000 A 
ATOM     27  C   UNL     1       7.433   8.042  17.142  0.00  0.00    +0.000 A 
ATOM     28  C   UNL     1       8.239   8.259  18.264  0.00  0.00    +0.000 A 
ATOM     29  C   UNL     1       8.478   7.192  19.146  0.00  0.00    +0.000 A 
ATOM     30  C   UNL     1       7.904   5.939  18.920  0.00  0.00    +0.000 A 
BRANCH  28  31
ATOM     31  C   UNL     1       8.888   9.603  18.456  0.00  0.00    +0.000 C 
BRANCH  31  32
ATOM     32  O   UNL     1       9.075   9.910  19.831  0.00  0.00    +0.000 OA
ATOM     33  H   UNL     1      10.011  10.157  19.934  0.00  0.00    +0.000 HD
ENDBRANCH  31  32
ENDBRANCH  28  31
ENDBRANCH  24  25
ENDBRANCH  23  24
ENDBRANCH   6  23
TORSDOF 8
ENDMDL
