MODEL 1
REMARK VINA RESULT:      -7.4      0.000      0.000
REMARK  Name = 
REMARK  2 active torsions:
REMARK  status: ('A' for Active; 'I' for Inactive)
REMARK    1  A    between atoms: N_9  and  C_10
REMARK    2  A    between atoms: C_10  and  C_11
REMARK                            x       y       z     vdW  Elec       q    Type
REMARK                         _______ _______ _______ _____ _____    ______ ____
ROOT
ATOM      1  O   UNL     1       0.193  10.445  20.148  0.00  0.00    +0.000 OA
ATOM      2  C   UNL     1       0.852   9.848  19.317  0.00  0.00    +0.000 A 
ATOM      3  N   UNL     1       1.209  10.301  18.049  0.00  0.00    +0.000 N 
ATOM      4  N   UNL     1       2.033   9.395  17.425  0.00  0.00    +0.000 NA
ATOM      5  C   UNL     1       2.137   8.429  18.295  0.00  0.00    +0.000 A 
ATOM      6  N   UNL     1       1.422   8.615  19.422  0.00  0.00    +0.000 N 
ATOM      7  C   UNL     1       1.503   7.775  20.590  0.00  0.00    +0.000 C 
ATOM      8  C   UNL     1       1.998   6.373  20.214  0.00  0.00    +0.000 C 
ATOM      9  N   UNL     1       3.207   6.447  19.365  0.00  0.00    +0.000 NA
ATOM     10  C   UNL     1       2.912   7.149  18.084  0.00  0.00    +0.000 C 
ATOM     11  H   UNL     1       0.984  11.203  17.653  0.00  0.00    +0.000 HD
ENDROOT
BRANCH   9  12
ATOM     12  C   UNL     1       3.732   5.085  19.107  0.00  0.00    +0.000 C 
BRANCH  12  13
ATOM     13  C   UNL     1       5.171   5.072  18.613  0.00  0.00    +0.000 A 
ATOM     14  C   UNL     1       6.171   5.410  19.549  0.00  0.00    +0.000 A 
ATOM     15  C   UNL     1       7.500   5.533  19.165  0.00  0.00    +0.000 A 
ATOM     16  C   UNL     1       7.860   5.298  17.844  0.00  0.00    +0.000 A 
ATOM     17  C   UNL     1       6.908   4.893  16.898  0.00  0.00    +0.000 A 
ATOM     18  C   UNL     1       7.320   4.610  15.585  0.00  0.00    +0.000 A 
ATOM     19  C   UNL     1       6.413   4.168  14.626  0.00  0.00    +0.000 A 
ATOM     20  C   UNL     1       5.077   4.020  14.965  0.00  0.00    +0.000 A 
ATOM     21  C   UNL     1       4.647   4.322  16.263  0.00  0.00    +0.000 A 
ATOM     22  C   UNL     1       5.542   4.761  17.269  0.00  0.00    +0.000 A 
ENDBRANCH  12  13
ENDBRANCH   9  12
TORSDOF 2
ENDMDL
MODEL 2
REMARK VINA RESULT:      -7.4      4.144      6.779
REMARK  Name = 
REMARK  2 active torsions:
REMARK  status: ('A' for Active; 'I' for Inactive)
REMARK    1  A    between atoms: N_9  and  C_10
REMARK    2  A    between atoms: C_10  and  C_11
REMARK                            x       y       z     vdW  Elec       q    Type
REMARK                         _______ _______ _______ _____ _____    ______ ____
ROOT
ATOM      1  O   UNL     1       5.999   3.333  12.243  0.00  0.00    +0.000 OA
ATOM      2  C   UNL     1       6.550   4.017  13.086  0.00  0.00    +0.000 A 
ATOM      3  N   UNL     1       7.661   4.837  12.903  0.00  0.00    +0.000 N 
ATOM      4  N   UNL     1       7.949   5.527  14.057  0.00  0.00    +0.000 NA
ATOM      5  C   UNL     1       7.045   5.105  14.896  0.00  0.00    +0.000 A 
ATOM      6  N   UNL     1       6.211   4.172  14.397  0.00  0.00    +0.000 N 
ATOM      7  C   UNL     1       5.039   3.677  15.071  0.00  0.00    +0.000 C 
ATOM      8  C   UNL     1       5.170   3.858  16.588  0.00  0.00    +0.000 C 
ATOM      9  N   UNL     1       5.598   5.233  16.923  0.00  0.00    +0.000 NA
ATOM     10  C   UNL     1       6.939   5.527  16.344  0.00  0.00    +0.000 C 
ATOM     11  H   UNL     1       8.151   4.992  12.033  0.00  0.00    +0.000 HD
ENDROOT
BRANCH   9  12
ATOM     12  C   UNL     1       5.611   5.419  18.394  0.00  0.00    +0.000 C 
BRANCH  12  13
ATOM     13  C   UNL     1       4.225   5.584  18.999  0.00  0.00    +0.000 A 
ATOM     14  C   UNL     1       3.571   6.813  18.772  0.00  0.00    +0.000 A 
ATOM     15  C   UNL     1       2.352   7.098  19.374  0.00  0.00    +0.000 A 
ATOM     16  C   UNL     1       1.752   6.152  20.196  0.00  0.00    +0.000 A 
ATOM     17  C   UNL     1       2.335   4.892  20.391  0.00  0.00    +0.000 A 
ATOM     18  C   UNL     1       1.669   3.942  21.184  0.00  0.00    +0.000 A 
ATOM     19  C   UNL     1       2.195   2.667  21.372  0.00  0.00    +0.000 A 
ATOM     20  C   UNL     1       3.405   2.333  20.783  0.00  0.00    +0.000 A 
ATOM     21  C   UNL     1       4.092   3.277  20.011  0.00  0.00    +0.000 A 
ATOM     22  C   UNL     1       3.582   4.580  19.786  0.00  0.00    +0.000 A 
ENDBRANCH  12  13
ENDBRANCH   9  12
TORSDOF 2
ENDMDL
MODEL 3
REMARK VINA RESULT:      -7.2      1.772      3.223
REMARK  Name = 
REMARK  2 active torsions:
REMARK  status: ('A' for Active; 'I' for Inactive)
REMARK    1  A    between atoms: N_9  and  C_10
REMARK    2  A    between atoms: C_10  and  C_11
REMARK                            x       y       z     vdW  Elec       q    Type
REMARK                         _______ _______ _______ _____ _____    ______ ____
ROOT
ATOM      1  O   UNL     1      -0.799  11.921  18.371  0.00  0.00    +0.000 OA
ATOM      2  C   UNL     1      -0.438  11.182  19.267  0.00  0.00    +0.000 A 
ATOM      3  N   UNL     1      -0.881  11.189  20.587  0.00  0.00    +0.000 N 
ATOM      4  N   UNL     1      -0.318  10.152  21.293  0.00  0.00    +0.000 NA
ATOM      5  C   UNL     1       0.448   9.568  20.414  0.00  0.00    +0.000 A 
ATOM      6  N   UNL     1       0.459  10.158  19.203  0.00  0.00    +0.000 N 
ATOM      7  C   UNL     1       1.093   9.610  18.032  0.00  0.00    +0.000 C 
ATOM      8  C   UNL     1       2.216   8.643  18.427  0.00  0.00    +0.000 C 
ATOM      9  N   UNL     1       1.750   7.675  19.443  0.00  0.00    +0.000 NA
ATOM     10  C   UNL     1       1.336   8.376  20.691  0.00  0.00    +0.000 C 
ATOM     11  H   UNL     1      -1.583  11.802  20.978  0.00  0.00    +0.000 HD
ENDROOT
BRANCH   9  12
ATOM     12  C   UNL     1       2.814   6.683  19.728  0.00  0.00    +0.000 C 
BRANCH  12  13
ATOM     13  C   UNL     1       2.869   5.544  18.721  0.00  0.00    +0.000 A 
ATOM     14  C   UNL     1       1.837   4.585  18.785  0.00  0.00    +0.000 A 
ATOM     15  C   UNL     1       1.861   3.452  17.981  0.00  0.00    +0.000 A 
ATOM     16  C   UNL     1       2.904   3.267  17.082  0.00  0.00    +0.000 A 
ATOM     17  C   UNL     1       3.912   4.231  16.938  0.00  0.00    +0.000 A 
ATOM     18  C   UNL     1       4.919   4.035  15.978  0.00  0.00    +0.000 A 
ATOM     19  C   UNL     1       5.916   4.986  15.777  0.00  0.00    +0.000 A 
ATOM     20  C   UNL     1       5.928   6.137  16.549  0.00  0.00    +0.000 A 
ATOM     21  C   UNL     1       4.945   6.335  17.526  0.00  0.00    +0.000 A 
ATOM     22  C   UNL     1       3.907   5.397  17.751  0.00  0.00    +0.000 A 
ENDBRANCH  12  13
ENDBRANCH   9  12
TORSDOF 2
ENDMDL
MODEL 4
REMARK VINA RESULT:      -7.2      3.589      7.621
REMARK  Name = 
REMARK  2 active torsions:
REMARK  status: ('A' for Active; 'I' for Inactive)
REMARK    1  A    between atoms: N_9  and  C_10
REMARK    2  A    between atoms: C_10  and  C_11
REMARK                            x       y       z     vdW  Elec       q    Type
REMARK                         _______ _______ _______ _____ _____    ______ ____
ROOT
ATOM      1  O   UNL     1       2.877   1.641  17.621  0.00  0.00    +0.000 OA
ATOM      2  C   UNL     1       3.423   2.665  17.987  0.00  0.00    +0.000 A 
ATOM      3  N   UNL     1       4.706   3.093  17.655  0.00  0.00    +0.000 N 
ATOM      4  N   UNL     1       4.951   4.341  18.178  0.00  0.00    +0.000 NA
ATOM      5  C   UNL     1       3.849   4.624  18.816  0.00  0.00    +0.000 A 
ATOM      6  N   UNL     1       2.919   3.651  18.781  0.00  0.00    +0.000 N 
ATOM      7  C   UNL     1       1.570   3.790  19.267  0.00  0.00    +0.000 C 
ATOM      8  C   UNL     1       1.489   4.895  20.328  0.00  0.00    +0.000 C 
ATOM      9  N   UNL     1       2.158   6.129  19.861  0.00  0.00    +0.000 NA
ATOM     10  C   UNL     1       3.607   5.885  19.614  0.00  0.00    +0.000 C 
ATOM     11  H   UNL     1       5.355   2.617  17.044  0.00  0.00    +0.000 HD
ENDROOT
BRANCH   9  12
ATOM     12  C   UNL     1       1.972   7.215  20.853  0.00  0.00    +0.000 C 
BRANCH  12  13
ATOM     13  C   UNL     1       1.330   8.466  20.271  0.00  0.00    +0.000 A 
ATOM     14  C   UNL     1       1.584   8.741  18.911  0.00  0.00    +0.000 A 
ATOM     15  C   UNL     1       1.133   9.914  18.320  0.00  0.00    +0.000 A 
ATOM     16  C   UNL     1       0.401  10.826  19.071  0.00  0.00    +0.000 A 
ATOM     17  C   UNL     1       0.068  10.558  20.406  0.00  0.00    +0.000 A 
ATOM     18  C   UNL     1      -0.723  11.478  21.115  0.00  0.00    +0.000 A 
ATOM     19  C   UNL     1      -1.107  11.233  22.430  0.00  0.00    +0.000 A 
ATOM     20  C   UNL     1      -0.690  10.070  23.059  0.00  0.00    +0.000 A 
ATOM     21  C   UNL     1       0.118   9.155  22.373  0.00  0.00    +0.000 A 
ATOM     22  C   UNL     1       0.519   9.364  21.030  0.00  0.00    +0.000 A 
ENDBRANCH  12  13
ENDBRANCH   9  12
TORSDOF 2
ENDMDL
MODEL 5
REMARK VINA RESULT:      -7.1      3.204      7.205
REMARK  Name = 
REMARK  2 active torsions:
REMARK  status: ('A' for Active; 'I' for Inactive)
REMARK    1  A    between atoms: N_9  and  C_10
REMARK    2  A    between atoms: C_10  and  C_11
REMARK                            x       y       z     vdW  Elec       q    Type
REMARK                         _______ _______ _______ _____ _____    ______ ____
ROOT
ATOM      1  O   UNL     1       6.147   3.551  14.793  0.00  0.00    +0.000 OA
ATOM      2  C   UNL     1       6.133   4.527  15.519  0.00  0.00    +0.000 A 
ATOM      3  N   UNL     1       7.046   5.579  15.525  0.00  0.00    +0.000 N 
ATOM      4  N   UNL     1       6.662   6.550  16.420  0.00  0.00    +0.000 NA
ATOM      5  C   UNL     1       5.566   6.068  16.938  0.00  0.00    +0.000 A 
ATOM      6  N   UNL     1       5.222   4.848  16.480  0.00  0.00    +0.000 N 
ATOM      7  C   UNL     1       3.979   4.184  16.776  0.00  0.00    +0.000 C 
ATOM      8  C   UNL     1       3.383   4.710  18.088  0.00  0.00    +0.000 C 
ATOM      9  N   UNL     1       3.367   6.188  18.108  0.00  0.00    +0.000 NA
ATOM     10  C   UNL     1       4.751   6.734  18.022  0.00  0.00    +0.000 C 
ATOM     11  H   UNL     1       7.838   5.685  14.907  0.00  0.00    +0.000 HD
ENDROOT
BRANCH   9  12
ATOM     12  C   UNL     1       2.688   6.674  19.333  0.00  0.00    +0.000 C 
BRANCH  12  13
ATOM     13  C   UNL     1       1.999   8.018  19.153  0.00  0.00    +0.000 A 
ATOM     14  C   UNL     1       2.057   8.600  17.870  0.00  0.00    +0.000 A 
ATOM     15  C   UNL     1       1.553   9.873  17.636  0.00  0.00    +0.000 A 
ATOM     16  C   UNL     1       0.961  10.581  18.675  0.00  0.00    +0.000 A 
ATOM     17  C   UNL     1       0.821  10.011  19.948  0.00  0.00    +0.000 A 
ATOM     18  C   UNL     1       0.165  10.736  20.957  0.00  0.00    +0.000 A 
ATOM     19  C   UNL     1      -0.029  10.192  22.223  0.00  0.00    +0.000 A 
ATOM     20  C   UNL     1       0.448   8.920  22.501  0.00  0.00    +0.000 A 
ATOM     21  C   UNL     1       1.124   8.195  21.513  0.00  0.00    +0.000 A 
ATOM     22  C   UNL     1       1.329   8.710  20.209  0.00  0.00    +0.000 A 
ENDBRANCH  12  13
ENDBRANCH   9  12
TORSDOF 2
ENDMDL
MODEL 6
REMARK VINA RESULT:      -7.1      2.170      3.890
REMARK  Name = 
REMARK  2 active torsions:
REMARK  status: ('A' for Active; 'I' for Inactive)
REMARK    1  A    between atoms: N_9  and  C_10
REMARK    2  A    between atoms: C_10  and  C_11
REMARK                            x       y       z     vdW  Elec       q    Type
REMARK                         _______ _______ _______ _____ _____    ______ ____
ROOT
ATOM      1  O   UNL     1      -1.072  12.116  18.148  0.00  0.00    +0.000 OA
ATOM      2  C   UNL     1      -0.742  11.526  19.160  0.00  0.00    +0.000 A 
ATOM      3  N   UNL     1      -1.191  11.771  20.456  0.00  0.00    +0.000 N 
ATOM      4  N   UNL     1      -0.670  10.849  21.332  0.00  0.00    +0.000 NA
ATOM      5  C   UNL     1       0.080  10.099  20.573  0.00  0.00    +0.000 A 
ATOM      6  N   UNL     1       0.118  10.476  19.280  0.00  0.00    +0.000 N 
ATOM      7  C   UNL     1       0.739   9.718  18.224  0.00  0.00    +0.000 C 
ATOM      8  C   UNL     1       1.825   8.793  18.789  0.00  0.00    +0.000 C 
ATOM      9  N   UNL     1       1.319   8.027  19.948  0.00  0.00    +0.000 NA
ATOM     10  C   UNL     1       0.924   8.942  21.056  0.00  0.00    +0.000 C 
ATOM     11  H   UNL     1      -1.873  12.464  20.730  0.00  0.00    +0.000 HD
ENDROOT
BRANCH   9  12
ATOM     12  C   UNL     1       2.346   7.061  20.408  0.00  0.00    +0.000 C 
BRANCH  12  13
ATOM     13  C   UNL     1       2.144   5.655  19.865  0.00  0.00    +0.000 A 
ATOM     14  C   UNL     1       1.166   4.860  20.498  0.00  0.00    +0.000 A 
ATOM     15  C   UNL     1       0.985   3.529  20.146  0.00  0.00    +0.000 A 
ATOM     16  C   UNL     1       1.764   2.971  19.139  0.00  0.00    +0.000 A 
ATOM     17  C   UNL     1       2.699   3.746  18.438  0.00  0.00    +0.000 A 
ATOM     18  C   UNL     1       3.426   3.161  17.387  0.00  0.00    +0.000 A 
ATOM     19  C   UNL     1       4.336   3.905  16.642  0.00  0.00    +0.000 A 
ATOM     20  C   UNL     1       4.543   5.241  16.950  0.00  0.00    +0.000 A 
ATOM     21  C   UNL     1       3.843   5.831  18.009  0.00  0.00    +0.000 A 
ATOM     22  C   UNL     1       2.899   5.110  18.782  0.00  0.00    +0.000 A 
ENDBRANCH  12  13
ENDBRANCH   9  12
TORSDOF 2
ENDMDL
MODEL 7
REMARK VINA RESULT:      -7.0      3.032      7.430
REMARK  Name = 
REMARK  2 active torsions:
REMARK  status: ('A' for Active; 'I' for Inactive)
REMARK    1  A    between atoms: N_9  and  C_10
REMARK    2  A    between atoms: C_10  and  C_11
REMARK                            x       y       z     vdW  Elec       q    Type
REMARK                         _______ _______ _______ _____ _____    ______ ____
ROOT
ATOM      1  O   UNL     1       5.855   3.366  15.799  0.00  0.00    +0.000 OA
ATOM      2  C   UNL     1       5.836   3.893  16.895  0.00  0.00    +0.000 A 
ATOM      3  N   UNL     1       6.913   4.064  17.760  0.00  0.00    +0.000 N 
ATOM      4  N   UNL     1       6.535   4.783  18.870  0.00  0.00    +0.000 NA
ATOM      5  C   UNL     1       5.267   5.007  18.668  0.00  0.00    +0.000 A 
ATOM      6  N   UNL     1       4.778   4.465  17.535  0.00  0.00    +0.000 N 
ATOM      7  C   UNL     1       3.457   4.710  17.015  0.00  0.00    +0.000 C 
ATOM      8  C   UNL     1       2.504   5.137  18.138  0.00  0.00    +0.000 C 
ATOM      9  N   UNL     1       3.102   6.209  18.963  0.00  0.00    +0.000 NA
ATOM     10  C   UNL     1       4.349   5.734  19.625  0.00  0.00    +0.000 C 
ATOM     11  H   UNL     1       7.870   3.789  17.585  0.00  0.00    +0.000 HD
ENDROOT
BRANCH   9  12
ATOM     12  C   UNL     1       2.123   6.683  19.971  0.00  0.00    +0.000 C 
BRANCH  12  13
ATOM     13  C   UNL     1       1.643   8.106  19.729  0.00  0.00    +0.000 A 
ATOM     14  C   UNL     1       1.912   8.665  18.463  0.00  0.00    +0.000 A 
ATOM     15  C   UNL     1       1.611   9.993  18.187  0.00  0.00    +0.000 A 
ATOM     16  C   UNL     1       1.015  10.781  19.163  0.00  0.00    +0.000 A 
ATOM     17  C   UNL     1       0.668  10.245  20.411  0.00  0.00    +0.000 A 
ATOM     18  C   UNL     1       0.014  11.059  21.351  0.00  0.00    +0.000 A 
ATOM     19  C   UNL     1      -0.382  10.555  22.587  0.00  0.00    +0.000 A 
ATOM     20  C   UNL     1      -0.112   9.232  22.904  0.00  0.00    +0.000 A 
ATOM     21  C   UNL     1       0.560   8.416  21.986  0.00  0.00    +0.000 A 
ATOM     22  C   UNL     1       0.967   8.889  20.714  0.00  0.00    +0.000 A 
ENDBRANCH  12  13
ENDBRANCH   9  12
TORSDOF 2
ENDMDL
MODEL 8
REMARK VINA RESULT:      -7.0      2.038      3.132
REMARK  Name = 
REMARK  2 active torsions:
REMARK  status: ('A' for Active; 'I' for Inactive)
REMARK    1  A    between atoms: N_9  and  C_10
REMARK    2  A    between atoms: C_10  and  C_11
REMARK                            x       y       z     vdW  Elec       q    Type
REMARK                         _______ _______ _______ _____ _____    ______ ____
ROOT
ATOM      1  O   UNL     1       0.297  10.026  23.234  0.00  0.00    +0.000 OA
ATOM      2  C   UNL     1       0.308  10.212  22.032  0.00  0.00    +0.000 A 
ATOM      3  N   UNL     1      -0.188  11.322  21.352  0.00  0.00    +0.000 N 
ATOM      4  N   UNL     1       0.079  11.226  20.007  0.00  0.00    +0.000 NA
ATOM      5  C   UNL     1       0.696  10.082  19.901  0.00  0.00    +0.000 A 
ATOM      6  N   UNL     1       0.823   9.407  21.060  0.00  0.00    +0.000 N 
ATOM      7  C   UNL     1       1.603   8.208  21.228  0.00  0.00    +0.000 C 
ATOM      8  C   UNL     1       1.764   7.476  19.889  0.00  0.00    +0.000 C 
ATOM      9  N   UNL     1       2.198   8.407  18.825  0.00  0.00    +0.000 NA
ATOM     10  C   UNL     1       1.179   9.471  18.605  0.00  0.00    +0.000 C 
ATOM     11  H   UNL     1      -0.610  12.139  21.771  0.00  0.00    +0.000 HD
ENDROOT
BRANCH   9  12
ATOM     12  C   UNL     1       2.455   7.661  17.569  0.00  0.00    +0.000 C 
BRANCH  12  13
ATOM     13  C   UNL     1       3.462   6.532  17.728  0.00  0.00    +0.000 A 
ATOM     14  C   UNL     1       4.824   6.894  17.777  0.00  0.00    +0.000 A 
ATOM     15  C   UNL     1       5.822   5.927  17.811  0.00  0.00    +0.000 A 
ATOM     16  C   UNL     1       5.477   4.582  17.817  0.00  0.00    +0.000 A 
ATOM     17  C   UNL     1       4.133   4.181  17.839  0.00  0.00    +0.000 A 
ATOM     18  C   UNL     1       3.825   2.812  17.903  0.00  0.00    +0.000 A 
ATOM     19  C   UNL     1       2.505   2.374  17.965  0.00  0.00    +0.000 A 
ATOM     20  C   UNL     1       1.475   3.302  17.945  0.00  0.00    +0.000 A 
ATOM     21  C   UNL     1       1.767   4.669  17.857  0.00  0.00    +0.000 A 
ATOM     22  C   UNL     1       3.097   5.153  17.805  0.00  0.00    +0.000 A 
ENDBRANCH  12  13
ENDBRANCH   9  12
TORSDOF 2
ENDMDL
MODEL 9
REMARK VINA RESULT:      -7.0      0.898      1.649
REMARK  Name = 
REMARK  2 active torsions:
REMARK  status: ('A' for Active; 'I' for Inactive)
REMARK    1  A    between atoms: N_9  and  C_10
REMARK    2  A    between atoms: C_10  and  C_11
REMARK                            x       y       z     vdW  Elec       q    Type
REMARK                         _______ _______ _______ _____ _____    ______ ____
ROOT
ATOM      1  O   UNL     1       0.964  10.552  18.746  0.00  0.00    +0.000 OA
ATOM      2  C   UNL     1       1.194   9.566  19.420  0.00  0.00    +0.000 A 
ATOM      3  N   UNL     1       0.807   9.346  20.740  0.00  0.00    +0.000 N 
ATOM      4  N   UNL     1       1.165   8.082  21.147  0.00  0.00    +0.000 NA
ATOM      5  C   UNL     1       1.764   7.585  20.100  0.00  0.00    +0.000 A 
ATOM      6  N   UNL     1       1.856   8.432  19.056  0.00  0.00    +0.000 N 
ATOM      7  C   UNL     1       2.323   8.065  17.744  0.00  0.00    +0.000 C 
ATOM      8  C   UNL     1       3.233   6.832  17.818  0.00  0.00    +0.000 C 
ATOM      9  N   UNL     1       2.610   5.761  18.625  0.00  0.00    +0.000 NA
ATOM     10  C   UNL     1       2.394   6.213  20.028  0.00  0.00    +0.000 C 
ATOM     11  H   UNL     1       0.261   9.973  21.315  0.00  0.00    +0.000 HD
ENDROOT
BRANCH   9  12
ATOM     12  C   UNL     1       3.454   4.542  18.592  0.00  0.00    +0.000 C 
BRANCH  12  13
ATOM     13  C   UNL     1       4.917   4.824  18.285  0.00  0.00    +0.000 A 
ATOM     14  C   UNL     1       5.726   5.249  19.359  0.00  0.00    +0.000 A 
ATOM     15  C   UNL     1       7.045   5.635  19.155  0.00  0.00    +0.000 A 
ATOM     16  C   UNL     1       7.588   5.582  17.877  0.00  0.00    +0.000 A 
ATOM     17  C   UNL     1       6.839   5.100  16.795  0.00  0.00    +0.000 A 
ATOM     18  C   UNL     1       7.442   5.008  15.529  0.00  0.00    +0.000 A 
ATOM     19  C   UNL     1       6.745   4.500  14.436  0.00  0.00    +0.000 A 
ATOM     20  C   UNL     1       5.429   4.092  14.593  0.00  0.00    +0.000 A 
ATOM     21  C   UNL     1       4.808   4.200  15.843  0.00  0.00    +0.000 A 
ATOM     22  C   UNL     1       5.488   4.700  16.981  0.00  0.00    +0.000 A 
ENDBRANCH  12  13
ENDBRANCH   9  12
TORSDOF 2
ENDMDL
