MODEL 1
REMARK VINA RESULT:      -8.8      0.000      0.000
REMARK  Name = 
REMARK  6 active torsions:
REMARK  status: ('A' for Active; 'I' for Inactive)
REMARK    1  A    between atoms: C_1  and  C_2
REMARK    2  A    between atoms: C_2  and  C_3
REMARK    3  A    between atoms: C_2  and  N_4
REMARK    4  A    between atoms: C_8  and  C_9
REMARK    5  A    between atoms: N_11  and  C_12
REMARK    6  A    between atoms: C_21  and  C_22
REMARK                            x       y       z     vdW  Elec       q    Type
REMARK                         _______ _______ _______ _____ _____    ______ ____
ROOT
ATOM      1  N   UNL     1       3.000   4.024  19.785  0.00  0.00    +0.000 N 
ATOM      2  N   UNL     1       3.807   3.111  19.192  0.00  0.00    +0.000 NA
ATOM      3  C   UNL     1       4.309   3.772  18.148  0.00  0.00    +0.000 A 
ATOM      4  C   UNL     1       3.870   5.111  18.087  0.00  0.00    +0.000 A 
ATOM      5  C   UNL     1       4.052   6.216  17.240  0.00  0.00    +0.000 A 
ATOM      6  C   UNL     1       3.400   7.404  17.561  0.00  0.00    +0.000 A 
ATOM      7  C   UNL     1       2.582   7.438  18.692  0.00  0.00    +0.000 A 
ATOM      8  N   UNL     1       2.385   6.390  19.544  0.00  0.00    +0.000 NA
ATOM      9  C   UNL     1       3.038   5.262  19.184  0.00  0.00    +0.000 A 
ENDROOT
BRANCH   7  10
ATOM     10  C   UNL     1       1.838   8.657  19.066  0.00  0.00    +0.000 A 
ATOM     11  C   UNL     1       1.588   9.785  18.305  0.00  0.00    +0.000 A 
ATOM     12  C   UNL     1       0.818  10.767  18.998  0.00  0.00    +0.000 A 
ATOM     13  C   UNL     1       0.520  10.373  20.281  0.00  0.00    +0.000 A 
ATOM     14  S   UNL     1       1.167   8.836  20.643  0.00  0.00    +0.000 S 
ENDBRANCH   7  10
BRANCH   5  15
ATOM     15  C   UNL     1       4.813   6.024  15.995  0.00  0.00    +0.000 C 
ATOM     16  O   UNL     1       5.141   7.046  15.399  0.00  0.00    +0.000 OA
ATOM     17  N   UNL     1       5.052   4.733  15.563  0.00  0.00    +0.000 N 
ATOM     18  H   UNL     1       4.566   3.963  16.019  0.00  0.00    +0.000 HD
BRANCH  17  19
ATOM     19  C   UNL     1       5.679   4.423  14.329  0.00  0.00    +0.000 A 
ATOM     20  C   UNL     1       5.049   3.689  13.319  0.00  0.00    +0.000 A 
ATOM     21  C   UNL     1       5.760   3.294  12.190  0.00  0.00    +0.000 A 
ATOM     22  F   UNL     1       5.149   2.551  11.259  0.00  0.00    +0.000 F 
ATOM     23  C   UNL     1       7.093   3.643  12.024  0.00  0.00    +0.000 A 
ATOM     24  C   UNL     1       7.715   4.436  12.988  0.00  0.00    +0.000 A 
ATOM     25  C   UNL     1       7.004   4.827  14.123  0.00  0.00    +0.000 A 
ATOM     26  F   UNL     1       7.624   5.570  15.055  0.00  0.00    +0.000 F 
ENDBRANCH  17  19
ENDBRANCH   5  15
BRANCH   1  28
ATOM     27  C   UNL     1       0.755   3.254  20.445  0.00  0.00    +0.000 C 
ATOM     28  C   UNL     1       2.174   3.599  20.910  0.00  0.00    +0.000 C 
ATOM     29  C   UNL     1       2.803   2.409  21.637  0.00  0.00    +0.000 C 
ENDBRANCH   1  28
TORSDOF 4
ENDMDL
MODEL 2
REMARK VINA RESULT:      -8.8      0.885      1.688
REMARK  Name = 
REMARK  6 active torsions:
REMARK  status: ('A' for Active; 'I' for Inactive)
REMARK    1  A    between atoms: C_1  and  C_2
REMARK    2  A    between atoms: C_2  and  C_3
REMARK    3  A    between atoms: C_2  and  N_4
REMARK    4  A    between atoms: C_8  and  C_9
REMARK    5  A    between atoms: N_11  and  C_12
REMARK    6  A    between atoms: C_21  and  C_22
REMARK                            x       y       z     vdW  Elec       q    Type
REMARK                         _______ _______ _______ _____ _____    ______ ____
ROOT
ATOM      1  N   UNL     1       2.766   3.889  19.631  0.00  0.00    +0.000 N 
ATOM      2  N   UNL     1       3.668   2.972  19.205  0.00  0.00    +0.000 NA
ATOM      3  C   UNL     1       4.396   3.643  18.312  0.00  0.00    +0.000 A 
ATOM      4  C   UNL     1       4.003   4.993  18.191  0.00  0.00    +0.000 A 
ATOM      5  C   UNL     1       4.383   6.111  17.433  0.00  0.00    +0.000 A 
ATOM      6  C   UNL     1       3.696   7.306  17.634  0.00  0.00    +0.000 A 
ATOM      7  C   UNL     1       2.652   7.334  18.561  0.00  0.00    +0.000 A 
ATOM      8  N   UNL     1       2.257   6.272  19.322  0.00  0.00    +0.000 NA
ATOM      9  C   UNL     1       2.954   5.139  19.085  0.00  0.00    +0.000 A 
ENDROOT
BRANCH   7  10
ATOM     10  C   UNL     1       1.864   8.560  18.794  0.00  0.00    +0.000 A 
ATOM     11  C   UNL     1       1.601   9.599  17.919  0.00  0.00    +0.000 A 
ATOM     12  C   UNL     1       0.786  10.620  18.493  0.00  0.00    +0.000 A 
ATOM     13  C   UNL     1       0.468  10.347  19.803  0.00  0.00    +0.000 A 
ATOM     14  S   UNL     1       1.150   8.875  20.330  0.00  0.00    +0.000 S 
ENDBRANCH   7  10
BRANCH   5  15
ATOM     15  C   UNL     1       5.394   5.930  16.378  0.00  0.00    +0.000 C 
ATOM     16  O   UNL     1       6.321   6.735  16.373  0.00  0.00    +0.000 OA
ATOM     17  N   UNL     1       5.205   4.920  15.453  0.00  0.00    +0.000 N 
ATOM     18  H   UNL     1       4.307   4.441  15.424  0.00  0.00    +0.000 HD
BRANCH  17  19
ATOM     19  C   UNL     1       6.051   4.715  14.333  0.00  0.00    +0.000 A 
ATOM     20  C   UNL     1       7.289   5.348  14.190  0.00  0.00    +0.000 A 
ATOM     21  C   UNL     1       8.011   5.219  13.008  0.00  0.00    +0.000 A 
ATOM     22  F   UNL     1       9.172   5.873  12.875  0.00  0.00    +0.000 F 
ATOM     23  C   UNL     1       7.540   4.440  11.960  0.00  0.00    +0.000 A 
ATOM     24  C   UNL     1       6.340   3.745  12.115  0.00  0.00    +0.000 A 
ATOM     25  C   UNL     1       5.613   3.878  13.299  0.00  0.00    +0.000 A 
ATOM     26  F   UNL     1       4.448   3.221  13.424  0.00  0.00    +0.000 F 
ENDBRANCH  17  19
ENDBRANCH   5  15
BRANCH   1  28
ATOM     27  C   UNL     1       0.657   2.627  19.794  0.00  0.00    +0.000 C 
ATOM     28  C   UNL     1       1.708   3.458  20.538  0.00  0.00    +0.000 C 
ATOM     29  C   UNL     1       2.280   2.667  21.716  0.00  0.00    +0.000 C 
ENDBRANCH   1  28
TORSDOF 4
ENDMDL
MODEL 3
REMARK VINA RESULT:      -8.8      1.163      2.045
REMARK  Name = 
REMARK  6 active torsions:
REMARK  status: ('A' for Active; 'I' for Inactive)
REMARK    1  A    between atoms: C_1  and  C_2
REMARK    2  A    between atoms: C_2  and  C_3
REMARK    3  A    between atoms: C_2  and  N_4
REMARK    4  A    between atoms: C_8  and  C_9
REMARK    5  A    between atoms: N_11  and  C_12
REMARK    6  A    between atoms: C_21  and  C_22
REMARK                            x       y       z     vdW  Elec       q    Type
REMARK                         _______ _______ _______ _____ _____    ______ ____
ROOT
ATOM      1  N   UNL     1       2.892   3.179  19.181  0.00  0.00    +0.000 N 
ATOM      2  N   UNL     1       3.700   2.390  18.431  0.00  0.00    +0.000 NA
ATOM      3  C   UNL     1       4.287   3.249  17.597  0.00  0.00    +0.000 A 
ATOM      4  C   UNL     1       3.901   4.586  17.829  0.00  0.00    +0.000 A 
ATOM      5  C   UNL     1       4.172   5.846  17.274  0.00  0.00    +0.000 A 
ATOM      6  C   UNL     1       3.545   6.959  17.831  0.00  0.00    +0.000 A 
ATOM      7  C   UNL     1       2.663   6.770  18.896  0.00  0.00    +0.000 A 
ATOM      8  N   UNL     1       2.377   5.564  19.468  0.00  0.00    +0.000 NA
ATOM      9  C   UNL     1       3.010   4.520  18.888  0.00  0.00    +0.000 A 
ENDROOT
BRANCH   7  10
ATOM     10  C   UNL     1       1.941   7.903  19.507  0.00  0.00    +0.000 A 
ATOM     11  C   UNL     1       1.488   8.041  20.807  0.00  0.00    +0.000 A 
ATOM     12  C   UNL     1       0.837   9.289  21.042  0.00  0.00    +0.000 A 
ATOM     13  C   UNL     1       0.788  10.064  19.907  0.00  0.00    +0.000 A 
ATOM     14  S   UNL     1       1.517   9.288  18.574  0.00  0.00    +0.000 S 
ENDBRANCH   7  10
BRANCH   5  15
ATOM     15  C   UNL     1       4.999   5.911  16.059  0.00  0.00    +0.000 C 
ATOM     16  O   UNL     1       5.037   6.997  15.487  0.00  0.00    +0.000 OA
ATOM     17  N   UNL     1       5.619   4.754  15.623  0.00  0.00    +0.000 N 
ATOM     18  H   UNL     1       5.363   3.867  16.051  0.00  0.00    +0.000 HD
BRANCH  17  19
ATOM     19  C   UNL     1       6.352   4.667  14.411  0.00  0.00    +0.000 A 
ATOM     20  C   UNL     1       7.558   5.343  14.202  0.00  0.00    +0.000 A 
ATOM     21  C   UNL     1       8.160   5.334  12.948  0.00  0.00    +0.000 A 
ATOM     22  F   UNL     1       9.288   6.028  12.758  0.00  0.00    +0.000 F 
ATOM     23  C   UNL     1       7.600   4.633  11.889  0.00  0.00    +0.000 A 
ATOM     24  C   UNL     1       6.436   3.894  12.101  0.00  0.00    +0.000 A 
ATOM     25  C   UNL     1       5.829   3.907  13.358  0.00  0.00    +0.000 A 
ATOM     26  F   UNL     1       4.695   3.211  13.540  0.00  0.00    +0.000 F 
ENDBRANCH  17  19
ENDBRANCH   5  15
BRANCH   1  28
ATOM     27  C   UNL     1       2.379   2.889  21.573  0.00  0.00    +0.000 C 
ATOM     28  C   UNL     1       1.985   2.546  20.132  0.00  0.00    +0.000 C 
ATOM     29  C   UNL     1       0.534   2.950  19.862  0.00  0.00    +0.000 C 
ENDBRANCH   1  28
TORSDOF 4
ENDMDL
MODEL 4
REMARK VINA RESULT:      -8.5      3.551      7.879
REMARK  Name = 
REMARK  6 active torsions:
REMARK  status: ('A' for Active; 'I' for Inactive)
REMARK    1  A    between atoms: C_1  and  C_2
REMARK    2  A    between atoms: C_2  and  C_3
REMARK    3  A    between atoms: C_2  and  N_4
REMARK    4  A    between atoms: C_8  and  C_9
REMARK    5  A    between atoms: N_11  and  C_12
REMARK    6  A    between atoms: C_21  and  C_22
REMARK                            x       y       z     vdW  Elec       q    Type
REMARK                         _______ _______ _______ _____ _____    ______ ____
ROOT
ATOM      1  N   UNL     1       5.212   5.535  16.454  0.00  0.00    +0.000 N 
ATOM      2  N   UNL     1       5.378   6.691  15.765  0.00  0.00    +0.000 NA
ATOM      3  C   UNL     1       4.491   7.515  16.322  0.00  0.00    +0.000 A 
ATOM      4  C   UNL     1       3.786   6.920  17.389  0.00  0.00    +0.000 A 
ATOM      5  C   UNL     1       2.772   7.289  18.286  0.00  0.00    +0.000 A 
ATOM      6  C   UNL     1       2.348   6.349  19.223  0.00  0.00    +0.000 A 
ATOM      7  C   UNL     1       2.932   5.081  19.215  0.00  0.00    +0.000 A 
ATOM      8  N   UNL     1       3.923   4.685  18.365  0.00  0.00    +0.000 NA
ATOM      9  C   UNL     1       4.295   5.633  17.476  0.00  0.00    +0.000 A 
ENDROOT
BRANCH   7  10
ATOM     10  C   UNL     1       2.502   4.031  20.158  0.00  0.00    +0.000 A 
ATOM     11  C   UNL     1       1.328   3.951  20.886  0.00  0.00    +0.000 A 
ATOM     12  C   UNL     1       1.251   2.777  21.693  0.00  0.00    +0.000 A 
ATOM     13  C   UNL     1       2.381   2.001  21.581  0.00  0.00    +0.000 A 
ATOM     14  S   UNL     1       3.521   2.688  20.514  0.00  0.00    +0.000 S 
ENDBRANCH   7  10
BRANCH   5  15
ATOM     15  C   UNL     1       2.124   8.598  18.107  0.00  0.00    +0.000 C 
ATOM     16  O   UNL     1       2.517   9.271  17.157  0.00  0.00    +0.000 OA
ATOM     17  N   UNL     1       1.177   8.996  19.032  0.00  0.00    +0.000 N 
ATOM     18  H   UNL     1       1.070   8.458  19.889  0.00  0.00    +0.000 HD
BRANCH  17  19
ATOM     19  C   UNL     1       0.563  10.275  19.025  0.00  0.00    +0.000 A 
ATOM     20  C   UNL     1       1.007  11.336  19.820  0.00  0.00    +0.000 A 
ATOM     21  C   UNL     1       0.282  12.522  19.878  0.00  0.00    +0.000 A 
ATOM     22  F   UNL     1       0.700  13.506  20.683  0.00  0.00    +0.000 F 
ATOM     23  C   UNL     1      -0.874  12.693  19.129  0.00  0.00    +0.000 A 
ATOM     24  C   UNL     1      -1.291  11.670  18.276  0.00  0.00    +0.000 A 
ATOM     25  C   UNL     1      -0.566  10.479  18.222  0.00  0.00    +0.000 A 
ATOM     26  F   UNL     1      -0.993   9.494  17.415  0.00  0.00    +0.000 F 
ENDBRANCH  17  19
ENDBRANCH   5  15
BRANCH   1  28
ATOM     27  C   UNL     1       5.930   4.229  14.492  0.00  0.00    +0.000 C 
ATOM     28  C   UNL     1       5.946   4.352  16.020  0.00  0.00    +0.000 C 
ATOM     29  C   UNL     1       7.384   4.374  16.541  0.00  0.00    +0.000 C 
ENDBRANCH   1  28
TORSDOF 4
ENDMDL
MODEL 5
REMARK VINA RESULT:      -8.4      1.249      2.093
REMARK  Name = 
REMARK  6 active torsions:
REMARK  status: ('A' for Active; 'I' for Inactive)
REMARK    1  A    between atoms: C_1  and  C_2
REMARK    2  A    between atoms: C_2  and  C_3
REMARK    3  A    between atoms: C_2  and  N_4
REMARK    4  A    between atoms: C_8  and  C_9
REMARK    5  A    between atoms: N_11  and  C_12
REMARK    6  A    between atoms: C_21  and  C_22
REMARK                            x       y       z     vdW  Elec       q    Type
REMARK                         _______ _______ _______ _____ _____    ______ ____
ROOT
ATOM      1  N   UNL     1       2.779   2.885  19.651  0.00  0.00    +0.000 N 
ATOM      2  N   UNL     1       3.628   1.919  19.221  0.00  0.00    +0.000 NA
ATOM      3  C   UNL     1       4.428   2.564  18.371  0.00  0.00    +0.000 A 
ATOM      4  C   UNL     1       4.134   3.941  18.282  0.00  0.00    +0.000 A 
ATOM      5  C   UNL     1       4.614   5.051  17.571  0.00  0.00    +0.000 A 
ATOM      6  C   UNL     1       4.005   6.286  17.790  0.00  0.00    +0.000 A 
ATOM      7  C   UNL     1       2.938   6.359  18.687  0.00  0.00    +0.000 A 
ATOM      8  N   UNL     1       2.447   5.306  19.402  0.00  0.00    +0.000 NA
ATOM      9  C   UNL     1       3.070   4.134  19.149  0.00  0.00    +0.000 A 
ENDROOT
BRANCH   7  10
ATOM     10  C   UNL     1       2.230   7.630  18.936  0.00  0.00    +0.000 A 
ATOM     11  C   UNL     1       2.018   8.687  18.068  0.00  0.00    +0.000 A 
ATOM     12  C   UNL     1       1.276   9.753  18.658  0.00  0.00    +0.000 A 
ATOM     13  C   UNL     1       0.962   9.495  19.972  0.00  0.00    +0.000 A 
ATOM     14  S   UNL     1       1.560   7.982  20.484  0.00  0.00    +0.000 S 
ENDBRANCH   7  10
BRANCH   5  15
ATOM     15  C   UNL     1       5.641   4.830  16.541  0.00  0.00    +0.000 C 
ATOM     16  O   UNL     1       6.806   4.819  16.932  0.00  0.00    +0.000 OA
ATOM     17  N   UNL     1       5.238   4.708  15.224  0.00  0.00    +0.000 N 
ATOM     18  H   UNL     1       4.275   4.933  14.982  0.00  0.00    +0.000 HD
BRANCH  17  19
ATOM     19  C   UNL     1       6.139   4.599  14.134  0.00  0.00    +0.000 A 
ATOM     20  C   UNL     1       7.330   5.328  14.057  0.00  0.00    +0.000 A 
ATOM     21  C   UNL     1       8.104   5.287  12.902  0.00  0.00    +0.000 A 
ATOM     22  F   UNL     1       9.215   6.030  12.833  0.00  0.00    +0.000 F 
ATOM     23  C   UNL     1       7.735   4.504  11.818  0.00  0.00    +0.000 A 
ATOM     24  C   UNL     1       6.587   3.715  11.907  0.00  0.00    +0.000 A 
ATOM     25  C   UNL     1       5.807   3.760  13.063  0.00  0.00    +0.000 A 
ATOM     26  F   UNL     1       4.692   3.014  13.125  0.00  0.00    +0.000 F 
ENDBRANCH  17  19
ENDBRANCH   5  15
BRANCH   1  28
ATOM     27  C   UNL     1       1.904   2.971  21.952  0.00  0.00    +0.000 C 
ATOM     28  C   UNL     1       1.666   2.502  20.513  0.00  0.00    +0.000 C 
ATOM     29  C   UNL     1       0.343   3.056  19.981  0.00  0.00    +0.000 C 
ENDBRANCH   1  28
TORSDOF 4
ENDMDL
MODEL 6
REMARK VINA RESULT:      -8.4      3.898      6.611
REMARK  Name = 
REMARK  6 active torsions:
REMARK  status: ('A' for Active; 'I' for Inactive)
REMARK    1  A    between atoms: C_1  and  C_2
REMARK    2  A    between atoms: C_2  and  C_3
REMARK    3  A    between atoms: C_2  and  N_4
REMARK    4  A    between atoms: C_8  and  C_9
REMARK    5  A    between atoms: N_11  and  C_12
REMARK    6  A    between atoms: C_21  and  C_22
REMARK                            x       y       z     vdW  Elec       q    Type
REMARK                         _______ _______ _______ _____ _____    ______ ____
ROOT
ATOM      1  N   UNL     1      -0.170  11.055  21.263  0.00  0.00    +0.000 N 
ATOM      2  N   UNL     1       0.989  10.654  21.841  0.00  0.00    +0.000 NA
ATOM      3  C   UNL     1       1.554   9.888  20.908  0.00  0.00    +0.000 A 
ATOM      4  C   UNL     1       0.796   9.827  19.719  0.00  0.00    +0.000 A 
ATOM      5  C   UNL     1       0.890   9.192  18.471  0.00  0.00    +0.000 A 
ATOM      6  C   UNL     1      -0.127   9.411  17.544  0.00  0.00    +0.000 A 
ATOM      7  C   UNL     1      -1.199  10.231  17.904  0.00  0.00    +0.000 A 
ATOM      8  N   UNL     1      -1.324  10.870  19.102  0.00  0.00    +0.000 NA
ATOM      9  C   UNL     1      -0.313  10.621  19.964  0.00  0.00    +0.000 A 
ENDROOT
BRANCH   7  10
ATOM     10  C   UNL     1      -2.324  10.474  16.979  0.00  0.00    +0.000 A 
ATOM     11  C   UNL     1      -2.477  10.046  15.672  0.00  0.00    +0.000 A 
ATOM     12  C   UNL     1      -3.710  10.466  15.089  0.00  0.00    +0.000 A 
ATOM     13  C   UNL     1      -4.457  11.225  15.958  0.00  0.00    +0.000 A 
ATOM     14  S   UNL     1      -3.674  11.430  17.460  0.00  0.00    +0.000 S 
ENDBRANCH   7  10
BRANCH   5  15
ATOM     15  C   UNL     1       1.984   8.232  18.256  0.00  0.00    +0.000 C 
ATOM     16  O   UNL     1       2.801   8.528  17.387  0.00  0.00    +0.000 OA
ATOM     17  N   UNL     1       1.987   7.062  18.992  0.00  0.00    +0.000 N 
ATOM     18  H   UNL     1       1.160   6.821  19.536  0.00  0.00    +0.000 HD
BRANCH  17  19
ATOM     19  C   UNL     1       2.926   6.016  18.798  0.00  0.00    +0.000 A 
ATOM     20  C   UNL     1       4.193   6.014  19.390  0.00  0.00    +0.000 A 
ATOM     21  C   UNL     1       5.123   5.035  19.052  0.00  0.00    +0.000 A 
ATOM     22  F   UNL     1       6.345   5.080  19.595  0.00  0.00    +0.000 F 
ATOM     23  C   UNL     1       4.809   4.027  18.153  0.00  0.00    +0.000 A 
ATOM     24  C   UNL     1       3.525   3.974  17.609  0.00  0.00    +0.000 A 
ATOM     25  C   UNL     1       2.593   4.958  17.943  0.00  0.00    +0.000 A 
ATOM     26  F   UNL     1       1.369   4.909  17.392  0.00  0.00    +0.000 F 
ENDBRANCH  17  19
ENDBRANCH   5  15
BRANCH   1  28
ATOM     27  C   UNL     1      -1.525  11.043  23.320  0.00  0.00    +0.000 C 
ATOM     28  C   UNL     1      -1.121  11.820  22.062  0.00  0.00    +0.000 C 
ATOM     29  C   UNL     1      -0.550  13.188  22.438  0.00  0.00    +0.000 C 
ENDBRANCH   1  28
TORSDOF 4
ENDMDL
MODEL 7
REMARK VINA RESULT:      -8.1      3.627      7.672
REMARK  Name = 
REMARK  6 active torsions:
REMARK  status: ('A' for Active; 'I' for Inactive)
REMARK    1  A    between atoms: C_1  and  C_2
REMARK    2  A    between atoms: C_2  and  C_3
REMARK    3  A    between atoms: C_2  and  N_4
REMARK    4  A    between atoms: C_8  and  C_9
REMARK    5  A    between atoms: N_11  and  C_12
REMARK    6  A    between atoms: C_21  and  C_22
REMARK                            x       y       z     vdW  Elec       q    Type
REMARK                         _______ _______ _______ _____ _____    ______ ____
ROOT
ATOM      1  N   UNL     1       5.181   5.620  16.465  0.00  0.00    +0.000 N 
ATOM      2  N   UNL     1       5.310   6.772  15.762  0.00  0.00    +0.000 NA
ATOM      3  C   UNL     1       4.390   7.571  16.304  0.00  0.00    +0.000 A 
ATOM      4  C   UNL     1       3.702   6.964  17.375  0.00  0.00    +0.000 A 
ATOM      5  C   UNL     1       2.671   7.309  18.263  0.00  0.00    +0.000 A 
ATOM      6  C   UNL     1       2.275   6.366  19.209  0.00  0.00    +0.000 A 
ATOM      7  C   UNL     1       2.905   5.120  19.220  0.00  0.00    +0.000 A 
ATOM      8  N   UNL     1       3.914   4.748  18.380  0.00  0.00    +0.000 NA
ATOM      9  C   UNL     1       4.256   5.698  17.481  0.00  0.00    +0.000 A 
ENDROOT
BRANCH   7  10
ATOM     10  C   UNL     1       2.508   4.067  20.175  0.00  0.00    +0.000 A 
ATOM     11  C   UNL     1       1.344   3.967  20.918  0.00  0.00    +0.000 A 
ATOM     12  C   UNL     1       1.301   2.796  21.733  0.00  0.00    +0.000 A 
ATOM     13  C   UNL     1       2.445   2.043  21.611  0.00  0.00    +0.000 A 
ATOM     14  S   UNL     1       3.558   2.747  20.525  0.00  0.00    +0.000 S 
ENDBRANCH   7  10
BRANCH   5  15
ATOM     15  C   UNL     1       1.977   8.591  18.063  0.00  0.00    +0.000 C 
ATOM     16  O   UNL     1       2.538   9.401  17.330  0.00  0.00    +0.000 OA
ATOM     17  N   UNL     1       0.795   8.813  18.744  0.00  0.00    +0.000 N 
ATOM     18  H   UNL     1       0.521   8.163  19.479  0.00  0.00    +0.000 HD
BRANCH  17  19
ATOM     19  C   UNL     1       0.093  10.045  18.716  0.00  0.00    +0.000 A 
ATOM     20  C   UNL     1      -1.045  10.254  17.930  0.00  0.00    +0.000 A 
ATOM     21  C   UNL     1      -1.608  11.522  17.833  0.00  0.00    +0.000 A 
ATOM     22  F   UNL     1      -2.667  11.709  17.037  0.00  0.00    +0.000 F 
ATOM     23  C   UNL     1      -1.079  12.597  18.533  0.00  0.00    +0.000 A 
ATOM     24  C   UNL     1       0.012  12.390  19.378  0.00  0.00    +0.000 A 
ATOM     25  C   UNL     1       0.581  11.119  19.471  0.00  0.00    +0.000 A 
ATOM     26  F   UNL     1       1.645  10.940  20.269  0.00  0.00    +0.000 F 
ENDBRANCH  17  19
ENDBRANCH   5  15
BRANCH   1  28
ATOM     27  C   UNL     1       6.108   4.417  14.525  0.00  0.00    +0.000 C 
ATOM     28  C   UNL     1       5.960   4.458  16.050  0.00  0.00    +0.000 C 
ATOM     29  C   UNL     1       7.334   4.447  16.722  0.00  0.00    +0.000 C 
ENDBRANCH   1  28
TORSDOF 4
ENDMDL
MODEL 8
REMARK VINA RESULT:      -8.1      3.786      7.883
REMARK  Name = 
REMARK  6 active torsions:
REMARK  status: ('A' for Active; 'I' for Inactive)
REMARK    1  A    between atoms: C_1  and  C_2
REMARK    2  A    between atoms: C_2  and  C_3
REMARK    3  A    between atoms: C_2  and  N_4
REMARK    4  A    between atoms: C_8  and  C_9
REMARK    5  A    between atoms: N_11  and  C_12
REMARK    6  A    between atoms: C_21  and  C_22
REMARK                            x       y       z     vdW  Elec       q    Type
REMARK                         _______ _______ _______ _____ _____    ______ ____
ROOT
ATOM      1  N   UNL     1       5.104   5.531  16.414  0.00  0.00    +0.000 N 
ATOM      2  N   UNL     1       5.256   6.698  15.740  0.00  0.00    +0.000 NA
ATOM      3  C   UNL     1       4.392   7.518  16.339  0.00  0.00    +0.000 A 
ATOM      4  C   UNL     1       3.719   6.909  17.419  0.00  0.00    +0.000 A 
ATOM      5  C   UNL     1       2.738   7.270  18.355  0.00  0.00    +0.000 A 
ATOM      6  C   UNL     1       2.338   6.317  19.289  0.00  0.00    +0.000 A 
ATOM      7  C   UNL     1       2.914   5.046  19.240  0.00  0.00    +0.000 A 
ATOM      8  N   UNL     1       3.873   4.657  18.352  0.00  0.00    +0.000 NA
ATOM      9  C   UNL     1       4.222   5.618  17.468  0.00  0.00    +0.000 A 
ENDROOT
BRANCH   7  10
ATOM     10  C   UNL     1       2.508   3.982  20.180  0.00  0.00    +0.000 A 
ATOM     11  C   UNL     1       1.316   3.848  20.872  0.00  0.00    +0.000 A 
ATOM     12  C   UNL     1       1.274   2.678  21.688  0.00  0.00    +0.000 A 
ATOM     13  C   UNL     1       2.445   1.960  21.617  0.00  0.00    +0.000 A 
ATOM     14  S   UNL     1       3.581   2.696  20.579  0.00  0.00    +0.000 S 
ENDBRANCH   7  10
BRANCH   5  15
ATOM     15  C   UNL     1       2.093   8.586  18.218  0.00  0.00    +0.000 C 
ATOM     16  O   UNL     1       2.166   9.111  17.111  0.00  0.00    +0.000 OA
ATOM     17  N   UNL     1       1.511   9.152  19.337  0.00  0.00    +0.000 N 
ATOM     18  H   UNL     1       1.681   8.730  20.248  0.00  0.00    +0.000 HD
BRANCH  17  19
ATOM     19  C   UNL     1       0.955  10.457  19.355  0.00  0.00    +0.000 A 
ATOM     20  C   UNL     1       1.549  11.546  18.710  0.00  0.00    +0.000 A 
ATOM     21  C   UNL     1       1.036  12.828  18.880  0.00  0.00    +0.000 A 
ATOM     22  F   UNL     1       1.649  13.862  18.291  0.00  0.00    +0.000 F 
ATOM     23  C   UNL     1      -0.089  13.053  19.661  0.00  0.00    +0.000 A 
ATOM     24  C   UNL     1      -0.735  11.968  20.253  0.00  0.00    +0.000 A 
ATOM     25  C   UNL     1      -0.218  10.682  20.088  0.00  0.00    +0.000 A 
ATOM     26  F   UNL     1      -0.837   9.650  20.684  0.00  0.00    +0.000 F 
ENDBRANCH  17  19
ENDBRANCH   5  15
BRANCH   1  28
ATOM     27  C   UNL     1       5.725   4.239  14.411  0.00  0.00    +0.000 C 
ATOM     28  C   UNL     1       5.816   4.351  15.936  0.00  0.00    +0.000 C 
ATOM     29  C   UNL     1       7.278   4.370  16.386  0.00  0.00    +0.000 C 
ENDBRANCH   1  28
TORSDOF 4
ENDMDL
MODEL 9
REMARK VINA RESULT:      -8.0      3.684      7.802
REMARK  Name = 
REMARK  6 active torsions:
REMARK  status: ('A' for Active; 'I' for Inactive)
REMARK    1  A    between atoms: C_1  and  C_2
REMARK    2  A    between atoms: C_2  and  C_3
REMARK    3  A    between atoms: C_2  and  N_4
REMARK    4  A    between atoms: C_8  and  C_9
REMARK    5  A    between atoms: N_11  and  C_12
REMARK    6  A    between atoms: C_21  and  C_22
REMARK                            x       y       z     vdW  Elec       q    Type
REMARK                         _______ _______ _______ _____ _____    ______ ____
ROOT
ATOM      1  N   UNL     1       2.469   4.513  20.108  0.00  0.00    +0.000 N 
ATOM      2  N   UNL     1       1.483   5.161  20.776  0.00  0.00    +0.000 NA
ATOM      3  C   UNL     1       1.409   6.339  20.156  0.00  0.00    +0.000 A 
ATOM      4  C   UNL     1       2.304   6.441  19.070  0.00  0.00    +0.000 A 
ATOM      5  C   UNL     1       2.656   7.407  18.114  0.00  0.00    +0.000 A 
ATOM      6  C   UNL     1       3.638   7.082  17.181  0.00  0.00    +0.000 A 
ATOM      7  C   UNL     1       4.239   5.823  17.249  0.00  0.00    +0.000 A 
ATOM      8  N   UNL     1       3.921   4.855  18.157  0.00  0.00    +0.000 NA
ATOM      9  C   UNL     1       2.966   5.224  19.039  0.00  0.00    +0.000 A 
ENDROOT
BRANCH   7  10
ATOM     10  C   UNL     1       5.309   5.431  16.311  0.00  0.00    +0.000 A 
ATOM     11  C   UNL     1       5.196   4.803  15.083  0.00  0.00    +0.000 A 
ATOM     12  C   UNL     1       6.455   4.591  14.446  0.00  0.00    +0.000 A 
ATOM     13  C   UNL     1       7.502   5.040  15.216  0.00  0.00    +0.000 A 
ATOM     14  S   UNL     1       6.966   5.708  16.692  0.00  0.00    +0.000 S 
ENDBRANCH   7  10
BRANCH   5  15
ATOM     15  C   UNL     1       2.067   8.751  18.230  0.00  0.00    +0.000 C 
ATOM     16  O   UNL     1       2.578   9.627  17.536  0.00  0.00    +0.000 OA
ATOM     17  N   UNL     1       1.038   8.942  19.132  0.00  0.00    +0.000 N 
ATOM     18  H   UNL     1       0.825   8.204  19.800  0.00  0.00    +0.000 HD
BRANCH  17  19
ATOM     19  C   UNL     1       0.463  10.210  19.408  0.00  0.00    +0.000 A 
ATOM     20  C   UNL     1       0.926  11.049  20.426  0.00  0.00    +0.000 A 
ATOM     21  C   UNL     1       0.236  12.215  20.743  0.00  0.00    +0.000 A 
ATOM     22  F   UNL     1       0.671  12.978  21.752  0.00  0.00    +0.000 F 
ATOM     23  C   UNL     1      -0.902  12.587  20.043  0.00  0.00    +0.000 A 
ATOM     24  C   UNL     1      -1.337  11.797  18.978  0.00  0.00    +0.000 A 
ATOM     25  C   UNL     1      -0.648  10.625  18.663  0.00  0.00    +0.000 A 
ATOM     26  F   UNL     1      -1.092   9.862  17.651  0.00  0.00    +0.000 F 
ENDBRANCH  17  19
ENDBRANCH   5  15
BRANCH   1  28
ATOM     27  C   UNL     1       2.179   2.847  21.900  0.00  0.00    +0.000 C 
ATOM     28  C   UNL     1       2.914   3.216  20.607  0.00  0.00    +0.000 C 
ATOM     29  C   UNL     1       2.724   2.125  19.552  0.00  0.00    +0.000 C 
ENDBRANCH   1  28
TORSDOF 4
ENDMDL
