MODEL 1
REMARK VINA RESULT:      -8.9      0.000      0.000
REMARK  Name = 
REMARK  8 active torsions:
REMARK  status: ('A' for Active; 'I' for Inactive)
REMARK    1  A    between atoms: C_2  and  C_5
REMARK    2  A    between atoms: N_3  and  O_4
REMARK    3  A    between atoms: N_9  and  C_10
REMARK    4  A    between atoms: C_10  and  C_11
REMARK    5  A    between atoms: C_14  and  C_15
REMARK    6  A    between atoms: C_16  and  C_17
REMARK    7  A    between atoms: C_20  and  C_21
REMARK    8  A    between atoms: C_21  and  N_22
REMARK                            x       y       z     vdW  Elec       q    Type
REMARK                         _______ _______ _______ _____ _____    ______ ____
ROOT
ATOM      1  C   UNL     1       5.908   5.630  17.839  0.00  0.00    +0.000 A 
ATOM      2  C   UNL     1       5.678   6.824  17.137  0.00  0.00    +0.000 A 
ATOM      3  C   UNL     1       6.541   7.919  17.290  0.00  0.00    +0.000 A 
ATOM      4  C   UNL     1       7.640   7.828  18.149  0.00  0.00    +0.000 A 
ATOM      5  C   UNL     1       7.892   6.633  18.826  0.00  0.00    +0.000 A 
ATOM      6  C   UNL     1       7.033   5.545  18.671  0.00  0.00    +0.000 A 
ENDROOT
BRANCH   4   7
ATOM      7  C   UNL     1       8.516   8.938  18.361  0.00  0.00    +0.000 C 
ATOM      8  C   UNL     1       9.247   9.890  18.447  0.00  0.00    +0.000 C 
BRANCH   8   9
ATOM      9  C   UNL     1      10.066  11.053  18.487  0.00  0.00    +0.000 A 
ATOM     10  C   UNL     1      10.850  11.307  19.609  0.00  0.00    +0.000 A 
ATOM     11  C   UNL     1      11.580  12.492  19.690  0.00  0.00    +0.000 A 
ATOM     12  C   UNL     1      11.553  13.423  18.641  0.00  0.00    +0.000 A 
ATOM     13  C   UNL     1      10.789  13.141  17.501  0.00  0.00    +0.000 A 
ATOM     14  C   UNL     1      10.043  11.964  17.427  0.00  0.00    +0.000 A 
BRANCH  12  15
ATOM     15  C   UNL     1      12.332  14.715  18.747  0.00  0.00    +0.000 C 
BRANCH  15  16
ATOM     16  N   UNL     1      11.503  15.916  18.999  0.00  0.00    +0.000 NA
ATOM     17  C   UNL     1      10.303  15.566  19.795  0.00  0.00    +0.000 C 
ATOM     18  C   UNL     1       9.299  16.698  20.040  0.00  0.00    +0.000 C 
ATOM     19  S   UNL     1       8.642  17.376  18.493  0.00  0.00    +0.000 S 
ATOM     20  C   UNL     1      10.250  17.747  17.741  0.00  0.00    +0.000 C 
ATOM     21  C   UNL     1      11.144  16.504  17.687  0.00  0.00    +0.000 C 
ENDBRANCH  15  16
ENDBRANCH  12  15
ENDBRANCH   8   9
ENDBRANCH   4   7
BRANCH   1  22
ATOM     22  C   UNL     1       4.947   4.454  17.753  0.00  0.00    +0.000 C 
BRANCH  22  27
ATOM     23  C   UNL     1       3.130   3.196  18.886  0.00  0.00    +0.000 C 
ATOM     24  C   UNL     1       2.207   3.094  17.685  0.00  0.00    +0.000 C 
ATOM     25  C   UNL     1       1.658   4.503  17.596  0.00  0.00    +0.000 C 
ATOM     26  C   UNL     1       2.742   5.393  18.206  0.00  0.00    +0.000 C 
ATOM     27  N   UNL     1       3.824   4.512  18.716  0.00  0.00    +0.000 NA
BRANCH  23  29
ATOM     28  O   UNL     1       3.912   0.926  18.463  0.00  0.00    +0.000 OA
ATOM     29  C   UNL     1       4.022   1.977  19.093  0.00  0.00    +0.000 C 
ATOM     30  N   UNL     1       4.915   2.101  20.134  0.00  0.00    +0.000 N 
ATOM     31  H   UNL     1       4.836   2.835  20.831  0.00  0.00    +0.000 HD
BRANCH  30  32
ATOM     32  O   UNL     1       5.575   0.911  20.521  0.00  0.00    +0.000 OA
ATOM     33  H   UNL     1       5.911   0.566  19.663  0.00  0.00    +0.000 HD
ENDBRANCH  30  32
ENDBRANCH  23  29
ENDBRANCH  22  27
ENDBRANCH   1  22
TORSDOF 8
ENDMDL
MODEL 2
REMARK VINA RESULT:      -8.8      5.130     12.058
REMARK  Name = 
REMARK  8 active torsions:
REMARK  status: ('A' for Active; 'I' for Inactive)
REMARK    1  A    between atoms: C_2  and  C_5
REMARK    2  A    between atoms: N_3  and  O_4
REMARK    3  A    between atoms: N_9  and  C_10
REMARK    4  A    between atoms: C_10  and  C_11
REMARK    5  A    between atoms: C_14  and  C_15
REMARK    6  A    between atoms: C_16  and  C_17
REMARK    7  A    between atoms: C_20  and  C_21
REMARK    8  A    between atoms: C_21  and  N_22
REMARK                            x       y       z     vdW  Elec       q    Type
REMARK                         _______ _______ _______ _____ _____    ______ ____
ROOT
ATOM      1  C   UNL     1      10.403  12.914  19.439  0.00  0.00    +0.000 A 
ATOM      2  C   UNL     1      10.004  12.688  18.111  0.00  0.00    +0.000 A 
ATOM      3  C   UNL     1       9.385  11.483  17.749  0.00  0.00    +0.000 A 
ATOM      4  C   UNL     1       9.161  10.494  18.711  0.00  0.00    +0.000 A 
ATOM      5  C   UNL     1       9.526  10.727  20.039  0.00  0.00    +0.000 A 
ATOM      6  C   UNL     1      10.141  11.927  20.397  0.00  0.00    +0.000 A 
ENDROOT
BRANCH   4   7
ATOM      7  C   UNL     1       8.571   9.238  18.369  0.00  0.00    +0.000 C 
ATOM      8  C   UNL     1       7.991   8.227  18.073  0.00  0.00    +0.000 C 
BRANCH   8   9
ATOM      9  C   UNL     1       7.255   7.076  17.672  0.00  0.00    +0.000 A 
ATOM     10  C   UNL     1       6.229   7.201  16.740  0.00  0.00    +0.000 A 
ATOM     11  C   UNL     1       5.446   6.094  16.418  0.00  0.00    +0.000 A 
ATOM     12  C   UNL     1       5.696   4.845  17.005  0.00  0.00    +0.000 A 
ATOM     13  C   UNL     1       6.754   4.721  17.916  0.00  0.00    +0.000 A 
ATOM     14  C   UNL     1       7.527   5.834  18.253  0.00  0.00    +0.000 A 
BRANCH  12  15
ATOM     15  C   UNL     1       4.829   3.654  16.665  0.00  0.00    +0.000 C 
BRANCH  15  16
ATOM     16  N   UNL     1       3.587   3.546  17.465  0.00  0.00    +0.000 NA
ATOM     17  C   UNL     1       3.486   4.670  18.424  0.00  0.00    +0.000 C 
ATOM     18  C   UNL     1       2.297   4.628  19.393  0.00  0.00    +0.000 C 
ATOM     19  S   UNL     1       2.310   3.140  20.426  0.00  0.00    +0.000 S 
ATOM     20  C   UNL     1       2.401   1.951  19.060  0.00  0.00    +0.000 C 
ATOM     21  C   UNL     1       3.599   2.233  18.150  0.00  0.00    +0.000 C 
ENDBRANCH  15  16
ENDBRANCH  12  15
ENDBRANCH   8   9
ENDBRANCH   4   7
BRANCH   1  22
ATOM     22  C   UNL     1      11.146  14.178  19.845  0.00  0.00    +0.000 C 
BRANCH  22  27
ATOM     23  C   UNL     1      10.188  16.456  19.602  0.00  0.00    +0.000 C 
ATOM     24  C   UNL     1      11.467  17.221  19.892  0.00  0.00    +0.000 C 
ATOM     25  C   UNL     1      11.596  17.051  21.392  0.00  0.00    +0.000 C 
ATOM     26  C   UNL     1      10.886  15.733  21.707  0.00  0.00    +0.000 C 
ATOM     27  N   UNL     1      10.286  15.224  20.447  0.00  0.00    +0.000 NA
BRANCH  23  29
ATOM     28  O   UNL     1       8.825  15.882  17.665  0.00  0.00    +0.000 OA
ATOM     29  C   UNL     1       9.909  16.246  18.118  0.00  0.00    +0.000 C 
ATOM     30  N   UNL     1      11.013  16.394  17.310  0.00  0.00    +0.000 N 
ATOM     31  H   UNL     1      11.958  16.419  17.682  0.00  0.00    +0.000 HD
BRANCH  30  32
ATOM     32  O   UNL     1      10.857  15.960  15.972  0.00  0.00    +0.000 OA
ATOM     33  H   UNL     1      10.371  15.111  16.079  0.00  0.00    +0.000 HD
ENDBRANCH  30  32
ENDBRANCH  23  29
ENDBRANCH  22  27
ENDBRANCH   1  22
TORSDOF 8
ENDMDL
MODEL 3
REMARK VINA RESULT:      -8.5      1.178      1.489
REMARK  Name = 
REMARK  8 active torsions:
REMARK  status: ('A' for Active; 'I' for Inactive)
REMARK    1  A    between atoms: C_2  and  C_5
REMARK    2  A    between atoms: N_3  and  O_4
REMARK    3  A    between atoms: N_9  and  C_10
REMARK    4  A    between atoms: C_10  and  C_11
REMARK    5  A    between atoms: C_14  and  C_15
REMARK    6  A    between atoms: C_16  and  C_17
REMARK    7  A    between atoms: C_20  and  C_21
REMARK    8  A    between atoms: C_21  and  N_22
REMARK                            x       y       z     vdW  Elec       q    Type
REMARK                         _______ _______ _______ _____ _____    ______ ____
ROOT
ATOM      1  C   UNL     1       6.218   5.233  18.336  0.00  0.00    +0.000 A 
ATOM      2  C   UNL     1       5.806   6.261  17.473  0.00  0.00    +0.000 A 
ATOM      3  C   UNL     1       6.526   7.462  17.401  0.00  0.00    +0.000 A 
ATOM      4  C   UNL     1       7.663   7.645  18.193  0.00  0.00    +0.000 A 
ATOM      5  C   UNL     1       8.095   6.614  19.029  0.00  0.00    +0.000 A 
ATOM      6  C   UNL     1       7.378   5.419  19.099  0.00  0.00    +0.000 A 
ENDROOT
BRANCH   4   7
ATOM      7  C   UNL     1       8.396   8.872  18.175  0.00  0.00    +0.000 C 
ATOM      8  C   UNL     1       9.007   9.904  18.255  0.00  0.00    +0.000 C 
BRANCH   8   9
ATOM      9  C   UNL     1       9.764  11.099  18.421  0.00  0.00    +0.000 A 
ATOM     10  C   UNL     1      10.557  11.262  19.553  0.00  0.00    +0.000 A 
ATOM     11  C   UNL     1      11.224  12.468  19.764  0.00  0.00    +0.000 A 
ATOM     12  C   UNL     1      11.124  13.514  18.834  0.00  0.00    +0.000 A 
ATOM     13  C   UNL     1      10.351  13.327  17.680  0.00  0.00    +0.000 A 
ATOM     14  C   UNL     1       9.668  12.126  17.478  0.00  0.00    +0.000 A 
BRANCH  12  15
ATOM     15  C   UNL     1      11.834  14.826  19.081  0.00  0.00    +0.000 C 
BRANCH  15  16
ATOM     16  N   UNL     1      10.943  16.007  19.144  0.00  0.00    +0.000 NA
ATOM     17  C   UNL     1      11.737  17.256  19.221  0.00  0.00    +0.000 C 
ATOM     18  C   UNL     1      10.940  18.555  19.398  0.00  0.00    +0.000 C 
ATOM     19  S   UNL     1       9.947  18.546  20.913  0.00  0.00    +0.000 S 
ATOM     20  C   UNL     1       9.074  16.994  20.570  0.00  0.00    +0.000 C 
ATOM     21  C   UNL     1      10.053  15.844  20.317  0.00  0.00    +0.000 C 
ENDBRANCH  15  16
ENDBRANCH  12  15
ENDBRANCH   8   9
ENDBRANCH   4   7
BRANCH   1  22
ATOM     22  C   UNL     1       5.413   3.950  18.493  0.00  0.00    +0.000 C 
BRANCH  22  27
ATOM     23  C   UNL     1       3.226   2.979  19.155  0.00  0.00    +0.000 C 
ATOM     24  C   UNL     1       3.108   1.999  18.001  0.00  0.00    +0.000 C 
ATOM     25  C   UNL     1       2.751   2.918  16.851  0.00  0.00    +0.000 C 
ATOM     26  C   UNL     1       3.358   4.273  17.220  0.00  0.00    +0.000 C 
ATOM     27  N   UNL     1       3.949   4.156  18.577  0.00  0.00    +0.000 NA
BRANCH  23  29
ATOM     28  O   UNL     1       3.369   2.586  21.557  0.00  0.00    +0.000 OA
ATOM     29  C   UNL     1       3.811   2.377  20.428  0.00  0.00    +0.000 C 
ATOM     30  N   UNL     1       4.962   1.648  20.230  0.00  0.00    +0.000 N 
ATOM     31  H   UNL     1       5.490   1.693  19.364  0.00  0.00    +0.000 HD
BRANCH  30  32
ATOM     32  O   UNL     1       5.672   1.292  21.402  0.00  0.00    +0.000 OA
ATOM     33  H   UNL     1       6.266   0.577  21.081  0.00  0.00    +0.000 HD
ENDBRANCH  30  32
ENDBRANCH  23  29
ENDBRANCH  22  27
ENDBRANCH   1  22
TORSDOF 8
ENDMDL
MODEL 4
REMARK VINA RESULT:      -8.4      5.300     12.141
REMARK  Name = 
REMARK  8 active torsions:
REMARK  status: ('A' for Active; 'I' for Inactive)
REMARK    1  A    between atoms: C_2  and  C_5
REMARK    2  A    between atoms: N_3  and  O_4
REMARK    3  A    between atoms: N_9  and  C_10
REMARK    4  A    between atoms: C_10  and  C_11
REMARK    5  A    between atoms: C_14  and  C_15
REMARK    6  A    between atoms: C_16  and  C_17
REMARK    7  A    between atoms: C_20  and  C_21
REMARK    8  A    between atoms: C_21  and  N_22
REMARK                            x       y       z     vdW  Elec       q    Type
REMARK                         _______ _______ _______ _____ _____    ______ ____
ROOT
ATOM      1  C   UNL     1      10.375  13.020  19.500  0.00  0.00    +0.000 A 
ATOM      2  C   UNL     1      10.238  12.011  20.468  0.00  0.00    +0.000 A 
ATOM      3  C   UNL     1       9.681  10.769  20.128  0.00  0.00    +0.000 A 
ATOM      4  C   UNL     1       9.258  10.527  18.818  0.00  0.00    +0.000 A 
ATOM      5  C   UNL     1       9.422  11.515  17.845  0.00  0.00    +0.000 A 
ATOM      6  C   UNL     1       9.976  12.749  18.185  0.00  0.00    +0.000 A 
ENDROOT
BRANCH   4   7
ATOM      7  C   UNL     1       8.649   9.288  18.446  0.00  0.00    +0.000 C 
ATOM      8  C   UNL     1       8.059   8.275  18.180  0.00  0.00    +0.000 C 
BRANCH   8   9
ATOM      9  C   UNL     1       7.291   7.120  17.859  0.00  0.00    +0.000 A 
ATOM     10  C   UNL     1       7.737   5.862  18.252  0.00  0.00    +0.000 A 
ATOM     11  C   UNL     1       7.036   4.723  17.858  0.00  0.00    +0.000 A 
ATOM     12  C   UNL     1       5.868   4.832  17.088  0.00  0.00    +0.000 A 
ATOM     13  C   UNL     1       5.408   6.105  16.727  0.00  0.00    +0.000 A 
ATOM     14  C   UNL     1       6.120   7.245  17.105  0.00  0.00    +0.000 A 
BRANCH  12  15
ATOM     15  C   UNL     1       5.125   3.591  16.648  0.00  0.00    +0.000 C 
BRANCH  15  16
ATOM     16  N   UNL     1       3.997   3.204  17.526  0.00  0.00    +0.000 NA
ATOM     17  C   UNL     1       2.807   4.041  17.246  0.00  0.00    +0.000 C 
ATOM     18  C   UNL     1       1.594   3.818  18.158  0.00  0.00    +0.000 C 
ATOM     19  S   UNL     1       1.981   4.135  19.899  0.00  0.00    +0.000 S 
ATOM     20  C   UNL     1       3.398   3.008  19.996  0.00  0.00    +0.000 C 
ATOM     21  C   UNL     1       4.448   3.335  18.930  0.00  0.00    +0.000 C 
ENDBRANCH  15  16
ENDBRANCH  12  15
ENDBRANCH   8   9
ENDBRANCH   4   7
BRANCH   1  22
ATOM     22  C   UNL     1      10.902  14.402  19.857  0.00  0.00    +0.000 C 
BRANCH  22  27
ATOM     23  C   UNL     1       9.979  16.688  20.153  0.00  0.00    +0.000 C 
ATOM     24  C   UNL     1      11.173  17.270  20.888  0.00  0.00    +0.000 C 
ATOM     25  C   UNL     1      11.023  16.650  22.261  0.00  0.00    +0.000 C 
ATOM     26  C   UNL     1      10.283  15.332  22.025  0.00  0.00    +0.000 C 
ATOM     27  N   UNL     1       9.934  15.255  20.584  0.00  0.00    +0.000 NA
BRANCH  23  29
ATOM     28  O   UNL     1       9.303  16.320  17.840  0.00  0.00    +0.000 OA
ATOM     29  C   UNL     1       9.982  16.949  18.651  0.00  0.00    +0.000 C 
ATOM     30  N   UNL     1      10.898  17.892  18.244  0.00  0.00    +0.000 N 
ATOM     31  H   UNL     1      11.647  18.216  18.848  0.00  0.00    +0.000 HD
BRANCH  30  32
ATOM     32  O   UNL     1      11.112  17.977  16.847  0.00  0.00    +0.000 OA
ATOM     33  H   UNL     1      11.855  17.347  16.708  0.00  0.00    +0.000 HD
ENDBRANCH  30  32
ENDBRANCH  23  29
ENDBRANCH  22  27
ENDBRANCH   1  22
TORSDOF 8
ENDMDL
MODEL 5
REMARK VINA RESULT:      -8.3      7.919     10.691
REMARK  Name = 
REMARK  8 active torsions:
REMARK  status: ('A' for Active; 'I' for Inactive)
REMARK    1  A    between atoms: C_2  and  C_5
REMARK    2  A    between atoms: N_3  and  O_4
REMARK    3  A    between atoms: N_9  and  C_10
REMARK    4  A    between atoms: C_10  and  C_11
REMARK    5  A    between atoms: C_14  and  C_15
REMARK    6  A    between atoms: C_16  and  C_17
REMARK    7  A    between atoms: C_20  and  C_21
REMARK    8  A    between atoms: C_21  and  N_22
REMARK                            x       y       z     vdW  Elec       q    Type
REMARK                         _______ _______ _______ _____ _____    ______ ____
ROOT
ATOM      1  C   UNL     1       3.664   6.618  17.812  0.00  0.00    +0.000 A 
ATOM      2  C   UNL     1       3.255   7.850  17.276  0.00  0.00    +0.000 A 
ATOM      3  C   UNL     1       2.360   8.671  17.979  0.00  0.00    +0.000 A 
ATOM      4  C   UNL     1       1.867   8.265  19.222  0.00  0.00    +0.000 A 
ATOM      5  C   UNL     1       2.295   7.056  19.774  0.00  0.00    +0.000 A 
ATOM      6  C   UNL     1       3.186   6.241  19.074  0.00  0.00    +0.000 A 
ENDROOT
BRANCH   4   7
ATOM      7  C   UNL     1       0.923   9.057  19.946  0.00  0.00    +0.000 C 
ATOM      8  C   UNL     1       0.182   9.799  20.536  0.00  0.00    +0.000 C 
BRANCH   8   9
ATOM      9  C   UNL     1      -0.676  10.736  21.178  0.00  0.00    +0.000 A 
ATOM     10  C   UNL     1      -1.388  11.657  20.414  0.00  0.00    +0.000 A 
ATOM     11  C   UNL     1      -2.154  12.636  21.045  0.00  0.00    +0.000 A 
ATOM     12  C   UNL     1      -2.236  12.689  22.445  0.00  0.00    +0.000 A 
ATOM     13  C   UNL     1      -1.544  11.736  23.203  0.00  0.00    +0.000 A 
ATOM     14  C   UNL     1      -0.761  10.767  22.573  0.00  0.00    +0.000 A 
BRANCH  12  15
ATOM     15  C   UNL     1      -3.053  13.767  23.121  0.00  0.00    +0.000 C 
BRANCH  15  16
ATOM     16  N   UNL     1      -4.510  13.688  22.863  0.00  0.00    +0.000 NA
ATOM     17  C   UNL     1      -5.091  15.045  22.733  0.00  0.00    +0.000 C 
ATOM     18  C   UNL     1      -6.614  15.116  22.569  0.00  0.00    +0.000 C 
ATOM     19  S   UNL     1      -7.488  14.374  23.972  0.00  0.00    +0.000 S 
ATOM     20  C   UNL     1      -6.649  12.768  23.901  0.00  0.00    +0.000 C 
ATOM     21  C   UNL     1      -5.127  12.927  23.973  0.00  0.00    +0.000 C 
ENDBRANCH  15  16
ENDBRANCH  12  15
ENDBRANCH   8   9
ENDBRANCH   4   7
BRANCH   1  22
ATOM     22  C   UNL     1       4.571   5.672  17.039  0.00  0.00    +0.000 C 
BRANCH  22  27
ATOM     23  C   UNL     1       6.865   5.252  16.186  0.00  0.00    +0.000 C 
ATOM     24  C   UNL     1       7.444   4.721  17.485  0.00  0.00    +0.000 C 
ATOM     25  C   UNL     1       7.598   5.990  18.296  0.00  0.00    +0.000 C 
ATOM     26  C   UNL     1       6.526   6.940  17.759  0.00  0.00    +0.000 C 
ATOM     27  N   UNL     1       5.856   6.273  16.613  0.00  0.00    +0.000 NA
BRANCH  23  29
ATOM     28  O   UNL     1       5.884   3.100  15.593  0.00  0.00    +0.000 OA
ATOM     29  C   UNL     1       6.375   4.168  15.231  0.00  0.00    +0.000 C 
ATOM     30  N   UNL     1       6.625   4.431  13.903  0.00  0.00    +0.000 N 
ATOM     31  H   UNL     1       7.265   5.161  13.606  0.00  0.00    +0.000 HD
BRANCH  30  32
ATOM     32  O   UNL     1       6.422   3.348  13.014  0.00  0.00    +0.000 OA
ATOM     33  H   UNL     1       7.045   3.556  12.282  0.00  0.00    +0.000 HD
ENDBRANCH  30  32
ENDBRANCH  23  29
ENDBRANCH  22  27
ENDBRANCH   1  22
TORSDOF 8
ENDMDL
MODEL 6
REMARK VINA RESULT:      -8.3      1.695      2.081
REMARK  Name = 
REMARK  8 active torsions:
REMARK  status: ('A' for Active; 'I' for Inactive)
REMARK    1  A    between atoms: C_2  and  C_5
REMARK    2  A    between atoms: N_3  and  O_4
REMARK    3  A    between atoms: N_9  and  C_10
REMARK    4  A    between atoms: C_10  and  C_11
REMARK    5  A    between atoms: C_14  and  C_15
REMARK    6  A    between atoms: C_16  and  C_17
REMARK    7  A    between atoms: C_20  and  C_21
REMARK    8  A    between atoms: C_21  and  N_22
REMARK                            x       y       z     vdW  Elec       q    Type
REMARK                         _______ _______ _______ _____ _____    ______ ____
ROOT
ATOM      1  C   UNL     1       5.967   5.437  18.193  0.00  0.00    +0.000 A 
ATOM      2  C   UNL     1       5.611   6.527  17.382  0.00  0.00    +0.000 A 
ATOM      3  C   UNL     1       6.412   7.678  17.343  0.00  0.00    +0.000 A 
ATOM      4  C   UNL     1       7.574   7.747  18.117  0.00  0.00    +0.000 A 
ATOM      5  C   UNL     1       7.949   6.655  18.901  0.00  0.00    +0.000 A 
ATOM      6  C   UNL     1       7.152   5.511  18.937  0.00  0.00    +0.000 A 
ENDROOT
BRANCH   4   7
ATOM      7  C   UNL     1       8.391   8.921  18.133  0.00  0.00    +0.000 C 
ATOM      8  C   UNL     1       9.060   9.914  18.240  0.00  0.00    +0.000 C 
BRANCH   8   9
ATOM      9  C   UNL     1       9.873  11.065  18.443  0.00  0.00    +0.000 A 
ATOM     10  C   UNL     1      10.540  11.235  19.653  0.00  0.00    +0.000 A 
ATOM     11  C   UNL     1      11.260  12.405  19.890  0.00  0.00    +0.000 A 
ATOM     12  C   UNL     1      11.341  13.406  18.910  0.00  0.00    +0.000 A 
ATOM     13  C   UNL     1      10.696  13.210  17.682  0.00  0.00    +0.000 A 
ATOM     14  C   UNL     1       9.959  12.047  17.452  0.00  0.00    +0.000 A 
BRANCH  12  15
ATOM     15  C   UNL     1      12.107  14.681  19.183  0.00  0.00    +0.000 C 
BRANCH  15  16
ATOM     16  N   UNL     1      11.260  15.878  19.386  0.00  0.00    +0.000 NA
ATOM     17  C   UNL     1       9.937  15.495  19.931  0.00  0.00    +0.000 C 
ATOM     18  C   UNL     1       8.917  16.629  20.093  0.00  0.00    +0.000 C 
ATOM     19  S   UNL     1       8.547  17.445  18.518  0.00  0.00    +0.000 S 
ATOM     20  C   UNL     1      10.265  17.834  18.088  0.00  0.00    +0.000 C 
ATOM     21  C   UNL     1      11.141  16.578  18.086  0.00  0.00    +0.000 C 
ENDBRANCH  15  16
ENDBRANCH  12  15
ENDBRANCH   8   9
ENDBRANCH   4   7
BRANCH   1  22
ATOM     22  C   UNL     1       5.078   4.208  18.315  0.00  0.00    +0.000 C 
BRANCH  22  27
ATOM     23  C   UNL     1       2.602   4.285  18.493  0.00  0.00    +0.000 C 
ATOM     24  C   UNL     1       2.400   2.815  18.816  0.00  0.00    +0.000 C 
ATOM     25  C   UNL     1       2.636   2.167  17.468  0.00  0.00    +0.000 C 
ATOM     26  C   UNL     1       3.581   3.115  16.729  0.00  0.00    +0.000 C 
ATOM     27  N   UNL     1       3.793   4.310  17.585  0.00  0.00    +0.000 NA
BRANCH  23  29
ATOM     28  O   UNL     1       2.696   4.783  20.877  0.00  0.00    +0.000 OA
ATOM     29  C   UNL     1       2.659   5.192  19.718  0.00  0.00    +0.000 C 
ATOM     30  N   UNL     1       2.557   6.534  19.431  0.00  0.00    +0.000 N 
ATOM     31  H   UNL     1       2.251   6.873  18.524  0.00  0.00    +0.000 HD
BRANCH  30  32
ATOM     32  O   UNL     1       2.348   7.385  20.542  0.00  0.00    +0.000 OA
ATOM     33  H   UNL     1       2.252   6.746  21.284  0.00  0.00    +0.000 HD
ENDBRANCH  30  32
ENDBRANCH  23  29
ENDBRANCH  22  27
ENDBRANCH   1  22
TORSDOF 8
ENDMDL
MODEL 7
REMARK VINA RESULT:      -8.3      5.547     12.230
REMARK  Name = 
REMARK  8 active torsions:
REMARK  status: ('A' for Active; 'I' for Inactive)
REMARK    1  A    between atoms: C_2  and  C_5
REMARK    2  A    between atoms: N_3  and  O_4
REMARK    3  A    between atoms: N_9  and  C_10
REMARK    4  A    between atoms: C_10  and  C_11
REMARK    5  A    between atoms: C_14  and  C_15
REMARK    6  A    between atoms: C_16  and  C_17
REMARK    7  A    between atoms: C_20  and  C_21
REMARK    8  A    between atoms: C_21  and  N_22
REMARK                            x       y       z     vdW  Elec       q    Type
REMARK                         _______ _______ _______ _____ _____    ______ ____
ROOT
ATOM      1  C   UNL     1      10.252  13.188  18.969  0.00  0.00    +0.000 A 
ATOM      2  C   UNL     1      10.780  12.024  19.549  0.00  0.00    +0.000 A 
ATOM      3  C   UNL     1      10.231  10.767  19.251  0.00  0.00    +0.000 A 
ATOM      4  C   UNL     1       9.149  10.667  18.372  0.00  0.00    +0.000 A 
ATOM      5  C   UNL     1       8.641  11.818  17.767  0.00  0.00    +0.000 A 
ATOM      6  C   UNL     1       9.188  13.067  18.064  0.00  0.00    +0.000 A 
ENDROOT
BRANCH   4   7
ATOM      7  C   UNL     1       8.539   9.408  18.078  0.00  0.00    +0.000 C 
ATOM      8  C   UNL     1       7.958   8.372  17.893  0.00  0.00    +0.000 C 
BRANCH   8   9
ATOM      9  C   UNL     1       7.197   7.187  17.684  0.00  0.00    +0.000 A 
ATOM     10  C   UNL     1       6.191   7.172  16.722  0.00  0.00    +0.000 A 
ATOM     11  C   UNL     1       5.383   6.044  16.582  0.00  0.00    +0.000 A 
ATOM     12  C   UNL     1       5.588   4.912  17.384  0.00  0.00    +0.000 A 
ATOM     13  C   UNL     1       6.626   4.924  18.326  0.00  0.00    +0.000 A 
ATOM     14  C   UNL     1       7.423   6.060  18.480  0.00  0.00    +0.000 A 
BRANCH  12  15
ATOM     15  C   UNL     1       4.693   3.702  17.239  0.00  0.00    +0.000 C 
BRANCH  15  16
ATOM     16  N   UNL     1       3.475   3.730  18.081  0.00  0.00    +0.000 NA
ATOM     17  C   UNL     1       3.273   5.078  18.661  0.00  0.00    +0.000 C 
ATOM     18  C   UNL     1       2.103   5.225  19.642  0.00  0.00    +0.000 C 
ATOM     19  S   UNL     1       2.271   4.127  21.074  0.00  0.00    +0.000 S 
ATOM     20  C   UNL     1       2.465   2.593  20.127  0.00  0.00    +0.000 C 
ATOM     21  C   UNL     1       3.622   2.694  19.128  0.00  0.00    +0.000 C 
ENDBRANCH  15  16
ENDBRANCH  12  15
ENDBRANCH   8   9
ENDBRANCH   4   7
BRANCH   1  22
ATOM     22  C   UNL     1      10.775  14.570  19.332  0.00  0.00    +0.000 C 
BRANCH  22  27
ATOM     23  C   UNL     1      10.232  16.868  20.100  0.00  0.00    +0.000 C 
ATOM     24  C   UNL     1      11.162  16.881  21.299  0.00  0.00    +0.000 C 
ATOM     25  C   UNL     1      10.418  15.998  22.279  0.00  0.00    +0.000 C 
ATOM     26  C   UNL     1       9.590  15.048  21.410  0.00  0.00    +0.000 C 
ATOM     27  N   UNL     1       9.778  15.445  19.991  0.00  0.00    +0.000 NA
BRANCH  23  29
ATOM     28  O   UNL     1      12.014  17.779  18.709  0.00  0.00    +0.000 OA
ATOM     29  C   UNL     1      10.825  17.493  18.842  0.00  0.00    +0.000 C 
ATOM     30  N   UNL     1       9.894  17.820  17.882  0.00  0.00    +0.000 N 
ATOM     31  H   UNL     1       8.899  17.849  18.079  0.00  0.00    +0.000 HD
BRANCH  30  32
ATOM     32  O   UNL     1      10.367  18.628  16.820  0.00  0.00    +0.000 OA
ATOM     33  H   UNL     1      10.068  18.130  16.026  0.00  0.00    +0.000 HD
ENDBRANCH  30  32
ENDBRANCH  23  29
ENDBRANCH  22  27
ENDBRANCH   1  22
TORSDOF 8
ENDMDL
MODEL 8
REMARK VINA RESULT:      -8.2      5.531     12.431
REMARK  Name = 
REMARK  8 active torsions:
REMARK  status: ('A' for Active; 'I' for Inactive)
REMARK    1  A    between atoms: C_2  and  C_5
REMARK    2  A    between atoms: N_3  and  O_4
REMARK    3  A    between atoms: N_9  and  C_10
REMARK    4  A    between atoms: C_10  and  C_11
REMARK    5  A    between atoms: C_14  and  C_15
REMARK    6  A    between atoms: C_16  and  C_17
REMARK    7  A    between atoms: C_20  and  C_21
REMARK    8  A    between atoms: C_21  and  N_22
REMARK                            x       y       z     vdW  Elec       q    Type
REMARK                         _______ _______ _______ _____ _____    ______ ____
ROOT
ATOM      1  C   UNL     1      10.766  13.295  19.520  0.00  0.00    +0.000 A 
ATOM      2  C   UNL     1       9.976  13.159  18.367  0.00  0.00    +0.000 A 
ATOM      3  C   UNL     1       9.315  11.952  18.095  0.00  0.00    +0.000 A 
ATOM      4  C   UNL     1       9.441  10.872  18.973  0.00  0.00    +0.000 A 
ATOM      5  C   UNL     1      10.200  11.011  20.137  0.00  0.00    +0.000 A 
ATOM      6  C   UNL     1      10.855  12.213  20.406  0.00  0.00    +0.000 A 
ENDROOT
BRANCH   4   7
ATOM      7  C   UNL     1       8.815   9.614  18.706  0.00  0.00    +0.000 C 
ATOM      8  C   UNL     1       8.221   8.605  18.433  0.00  0.00    +0.000 C 
BRANCH   8   9
ATOM      9  C   UNL     1       7.498   7.444  18.037  0.00  0.00    +0.000 A 
ATOM     10  C   UNL     1       6.306   7.580  17.331  0.00  0.00    +0.000 A 
ATOM     11  C   UNL     1       5.549   6.451  17.025  0.00  0.00    +0.000 A 
ATOM     12  C   UNL     1       5.986   5.172  17.401  0.00  0.00    +0.000 A 
ATOM     13  C   UNL     1       7.204   5.042  18.081  0.00  0.00    +0.000 A 
ATOM     14  C   UNL     1       7.954   6.175  18.405  0.00  0.00    +0.000 A 
BRANCH  12  15
ATOM     15  C   UNL     1       5.147   3.955  17.083  0.00  0.00    +0.000 C 
BRANCH  15  16
ATOM     16  N   UNL     1       3.946   3.794  17.935  0.00  0.00    +0.000 NA
ATOM     17  C   UNL     1       4.191   2.793  18.999  0.00  0.00    +0.000 C 
ATOM     18  C   UNL     1       2.993   2.448  19.893  0.00  0.00    +0.000 C 
ATOM     19  S   UNL     1       1.602   1.779  18.944  0.00  0.00    +0.000 S 
ATOM     20  C   UNL     1       1.483   3.156  17.770  0.00  0.00    +0.000 C 
ATOM     21  C   UNL     1       2.817   3.405  17.059  0.00  0.00    +0.000 C 
ENDBRANCH  15  16
ENDBRANCH  12  15
ENDBRANCH   8   9
ENDBRANCH   4   7
BRANCH   1  22
ATOM     22  C   UNL     1      11.557  14.564  19.801  0.00  0.00    +0.000 C 
BRANCH  22  27
ATOM     23  C   UNL     1      11.099  16.979  19.446  0.00  0.00    +0.000 C 
ATOM     24  C   UNL     1      12.320  17.502  20.182  0.00  0.00    +0.000 C 
ATOM     25  C   UNL     1      11.929  17.279  21.628  0.00  0.00    +0.000 C 
ATOM     26  C   UNL     1      10.958  16.097  21.601  0.00  0.00    +0.000 C 
ATOM     27  N   UNL     1      10.725  15.729  20.181  0.00  0.00    +0.000 NA
BRANCH  23  29
ATOM     28  O   UNL     1      12.310  17.179  17.340  0.00  0.00    +0.000 OA
ATOM     29  C   UNL     1      11.285  16.854  17.938  0.00  0.00    +0.000 C 
ATOM     30  N   UNL     1      10.159  16.438  17.263  0.00  0.00    +0.000 N 
ATOM     31  H   UNL     1       9.240  16.432  17.695  0.00  0.00    +0.000 HD
BRANCH  30  32
ATOM     32  O   UNL     1      10.211  16.555  15.854  0.00  0.00    +0.000 OA
ATOM     33  H   UNL     1      10.840  15.842  15.604  0.00  0.00    +0.000 HD
ENDBRANCH  30  32
ENDBRANCH  23  29
ENDBRANCH  22  27
ENDBRANCH   1  22
TORSDOF 8
ENDMDL
MODEL 9
REMARK VINA RESULT:      -8.0      8.553     10.260
REMARK  Name = 
REMARK  8 active torsions:
REMARK  status: ('A' for Active; 'I' for Inactive)
REMARK    1  A    between atoms: C_2  and  C_5
REMARK    2  A    between atoms: N_3  and  O_4
REMARK    3  A    between atoms: N_9  and  C_10
REMARK    4  A    between atoms: C_10  and  C_11
REMARK    5  A    between atoms: C_14  and  C_15
REMARK    6  A    between atoms: C_16  and  C_17
REMARK    7  A    between atoms: C_20  and  C_21
REMARK    8  A    between atoms: C_21  and  N_22
REMARK                            x       y       z     vdW  Elec       q    Type
REMARK                         _______ _______ _______ _____ _____    ______ ____
ROOT
ATOM      1  C   UNL     1       2.540   7.029  18.825  0.00  0.00    +0.000 A 
ATOM      2  C   UNL     1       2.210   8.197  18.118  0.00  0.00    +0.000 A 
ATOM      3  C   UNL     1       1.500   9.232  18.744  0.00  0.00    +0.000 A 
ATOM      4  C   UNL     1       1.114   9.106  20.082  0.00  0.00    +0.000 A 
ATOM      5  C   UNL     1       1.467   7.961  20.799  0.00  0.00    +0.000 A 
ATOM      6  C   UNL     1       2.174   6.933  20.174  0.00  0.00    +0.000 A 
ENDROOT
BRANCH   4   7
ATOM      7  C   UNL     1       0.353  10.123  20.739  0.00  0.00    +0.000 C 
ATOM      8  C   UNL     1      -0.218  10.981  21.358  0.00  0.00    +0.000 C 
BRANCH   8   9
ATOM      9  C   UNL     1      -0.820  12.028  22.111  0.00  0.00    +0.000 A 
ATOM     10  C   UNL     1      -2.020  11.799  22.778  0.00  0.00    +0.000 A 
ATOM     11  C   UNL     1      -2.658  12.848  23.438  0.00  0.00    +0.000 A 
ATOM     12  C   UNL     1      -2.092  14.131  23.458  0.00  0.00    +0.000 A 
ATOM     13  C   UNL     1      -0.866  14.344  22.813  0.00  0.00    +0.000 A 
ATOM     14  C   UNL     1      -0.236  13.299  22.137  0.00  0.00    +0.000 A 
BRANCH  12  15
ATOM     15  C   UNL     1      -2.802  15.268  24.159  0.00  0.00    +0.000 C 
BRANCH  15  16
ATOM     16  N   UNL     1      -4.118  15.622  23.580  0.00  0.00    +0.000 NA
ATOM     17  C   UNL     1      -3.958  16.165  22.211  0.00  0.00    +0.000 C 
ATOM     18  C   UNL     1      -5.236  16.673  21.530  0.00  0.00    +0.000 C 
ATOM     19  S   UNL     1      -6.023  18.010  22.466  0.00  0.00    +0.000 S 
ATOM     20  C   UNL     1      -6.137  17.112  24.038  0.00  0.00    +0.000 C 
ATOM     21  C   UNL     1      -4.767  16.596  24.489  0.00  0.00    +0.000 C 
ENDBRANCH  15  16
ENDBRANCH  12  15
ENDBRANCH   8   9
ENDBRANCH   4   7
BRANCH   1  22
ATOM     22  C   UNL     1       3.240   5.859  18.151  0.00  0.00    +0.000 C 
BRANCH  22  27
ATOM     23  C   UNL     1       4.358   3.706  18.683  0.00  0.00    +0.000 C 
ATOM     24  C   UNL     1       4.084   3.028  17.353  0.00  0.00    +0.000 C 
ATOM     25  C   UNL     1       2.611   2.698  17.471  0.00  0.00    +0.000 C 
ATOM     26  C   UNL     1       2.041   3.752  18.422  0.00  0.00    +0.000 C 
ATOM     27  N   UNL     1       3.169   4.588  18.908  0.00  0.00    +0.000 NA
BRANCH  23  29
ATOM     28  O   UNL     1       6.056   5.152  19.667  0.00  0.00    +0.000 OA
ATOM     29  C   UNL     1       5.727   4.371  18.776  0.00  0.00    +0.000 C 
ATOM     30  N   UNL     1       6.554   4.109  17.707  0.00  0.00    +0.000 N 
ATOM     31  H   UNL     1       6.211   3.701  16.843  0.00  0.00    +0.000 HD
BRANCH  30  32
ATOM     32  O   UNL     1       7.723   4.903  17.627  0.00  0.00    +0.000 OA
ATOM     33  H   UNL     1       7.590   5.393  16.785  0.00  0.00    +0.000 HD
ENDBRANCH  30  32
ENDBRANCH  23  29
ENDBRANCH  22  27
ENDBRANCH   1  22
TORSDOF 8
ENDMDL
