MODEL 1
REMARK VINA RESULT:      -7.1      0.000      0.000
REMARK  Name = 
REMARK  9 active torsions:
REMARK  status: ('A' for Active; 'I' for Inactive)
REMARK    1  A    between atoms: C_1  and  O_2
REMARK    2  A    between atoms: O_2  and  N_3
REMARK    3  A    between atoms: C_4  and  C_5
REMARK    4  A    between atoms: C_4  and  C_25
REMARK    5  A    between atoms: N_7  and  CA_8
REMARK    6  A    between atoms: CA_12  and  C_13
REMARK    7  A    between atoms: C_16  and  C_17
REMARK    8  A    between atoms: C_17  and  O_18
REMARK    9  A    between atoms: O_18  and  C_19
REMARK                            x       y       z     vdW  Elec       q    Type
REMARK                         _______ _______ _______ _____ _____    ______ ____
ROOT
ATOM      1  CA  UNL     1       1.937   6.974  19.017  0.00  0.00    +0.000 C 
ATOM      2  C   UNL     1       2.680   5.833  19.732  0.00  0.00    +0.000 C 
ATOM      3  O   UNL     1       2.697   5.499  20.893  0.00  0.00    +0.000 OA
ATOM      4  N   UNL     1       3.251   5.471  18.560  0.00  0.00    +0.000 N 
ATOM      5  CA  UNL     1       4.060   4.499  18.059  0.00  0.00    +0.000 C 
ATOM      6  C   UNL     1       4.825   4.773  16.972  0.00  0.00    +0.000 C 
ATOM      7  C   UNL     1       4.888   6.139  16.291  0.00  0.00    +0.000 C 
ATOM      8  S   UNL     1       4.255   7.540  17.316  0.00  0.00    +0.000 S 
ATOM      9  C   UNL     1       2.795   6.607  17.788  0.00  0.00    +0.000 C 
ENDROOT
BRANCH   1  12
ATOM     10  C   UNL     1       1.209   9.369  19.149  0.00  0.00    +0.000 C 
ATOM     11  O   UNL     1       0.754   9.328  18.000  0.00  0.00    +0.000 OA
ATOM     12  N   UNL     1       1.956   8.316  19.678  0.00  0.00    +0.000 N 
ATOM     13  H   UNL     1       2.284   8.388  20.638  0.00  0.00    +0.000 HD
BRANCH  10  15
ATOM     14  N   UNL     1       1.358  11.821  19.777  0.00  0.00    +0.000 NA
ATOM     15  C   UNL     1       0.984  10.605  20.057  0.00  0.00    +0.000 C 
BRANCH  15  16
ATOM     16  C   UNL     1       0.350  10.425  21.336  0.00  0.00    +0.000 A 
ATOM     17  C   UNL     1      -0.692  11.136  21.916  0.00  0.00    +0.000 A 
ATOM     18  C   UNL     1      -0.984  10.503  23.149  0.00  0.00    +0.000 A 
ATOM     19  C   UNL     1      -0.107   9.453  23.250  0.00  0.00    +0.000 A 
ATOM     20  O   UNL     1       0.708   9.397  22.161  0.00  0.00    +0.000 OA
ENDBRANCH  15  16
BRANCH  14  22
ATOM     21  C   UNL     1       2.583  13.305  18.586  0.00  0.00    +0.000 C 
ATOM     22  O   UNL     1       1.991  12.000  18.551  0.00  0.00    +0.000 OA
ENDBRANCH  14  22
ENDBRANCH  10  15
ENDBRANCH   1  12
BRANCH   5  23
ATOM     23  C   UNL     1       4.016   3.050  18.698  0.00  0.00    +0.000 C 
ATOM     24  O   UNL     1       4.810   2.853  19.654  0.00  0.00    +0.000 OA
ATOM     25  OXT UNL     1       3.085   2.311  18.264  0.00  0.00    +0.000 OA
ENDBRANCH   5  23
BRANCH   6  26
ATOM     26  C   UNL     1       5.739   3.747  16.317  0.00  0.00    +0.000 C 
BRANCH  26  27
ATOM     27  O   UNL     1       6.967   4.349  15.885  0.00  0.00    +0.000 OA
BRANCH  27  28
ATOM     28  C   UNL     1       7.096   4.567  14.565  0.00  0.00    +0.000 C 
ATOM     29  N   UNL     1       6.371   3.652  13.882  0.00  0.00    +0.000 N 
ATOM     30  O   UNL     1       7.755   5.443  14.027  0.00  0.00    +0.000 OA
ATOM     31  H   UNL     1       5.975   2.883  14.405  0.00  0.00    +0.000 HD
ATOM     32  H   UNL     1       6.488   3.588  12.884  0.00  0.00    +0.000 HD
ENDBRANCH  27  28
ENDBRANCH  26  27
ENDBRANCH   6  26
TORSDOF 8
ENDMDL
MODEL 2
REMARK VINA RESULT:      -6.8      0.756      2.540
REMARK  Name = 
REMARK  9 active torsions:
REMARK  status: ('A' for Active; 'I' for Inactive)
REMARK    1  A    between atoms: C_1  and  O_2
REMARK    2  A    between atoms: O_2  and  N_3
REMARK    3  A    between atoms: C_4  and  C_5
REMARK    4  A    between atoms: C_4  and  C_25
REMARK    5  A    between atoms: N_7  and  CA_8
REMARK    6  A    between atoms: CA_12  and  C_13
REMARK    7  A    between atoms: C_16  and  C_17
REMARK    8  A    between atoms: C_17  and  O_18
REMARK    9  A    between atoms: O_18  and  C_19
REMARK                            x       y       z     vdW  Elec       q    Type
REMARK                         _______ _______ _______ _____ _____    ______ ____
ROOT
ATOM      1  CA  UNL     1       1.889   6.914  18.979  0.00  0.00    +0.000 C 
ATOM      2  C   UNL     1       2.651   5.793  19.707  0.00  0.00    +0.000 C 
ATOM      3  O   UNL     1       2.653   5.456  20.866  0.00  0.00    +0.000 OA
ATOM      4  N   UNL     1       3.259   5.454  18.547  0.00  0.00    +0.000 N 
ATOM      5  CA  UNL     1       4.108   4.509  18.061  0.00  0.00    +0.000 C 
ATOM      6  C   UNL     1       4.888   4.810  16.992  0.00  0.00    +0.000 C 
ATOM      7  C   UNL     1       4.924   6.180  16.316  0.00  0.00    +0.000 C 
ATOM      8  S   UNL     1       4.226   7.557  17.332  0.00  0.00    +0.000 S 
ATOM      9  C   UNL     1       2.785   6.579  17.769  0.00  0.00    +0.000 C 
ENDROOT
BRANCH   1  12
ATOM     10  C   UNL     1       1.200   9.324  19.033  0.00  0.00    +0.000 C 
ATOM     11  O   UNL     1       0.892   9.296  17.835  0.00  0.00    +0.000 OA
ATOM     12  N   UNL     1       1.853   8.254  19.645  0.00  0.00    +0.000 N 
ATOM     13  H   UNL     1       2.059   8.316  20.639  0.00  0.00    +0.000 HD
BRANCH  10  15
ATOM     14  N   UNL     1       0.390  10.523  21.115  0.00  0.00    +0.000 NA
ATOM     15  C   UNL     1       0.888  10.561  19.912  0.00  0.00    +0.000 C 
BRANCH  15  16
ATOM     16  C   UNL     1       1.119  11.875  19.373  0.00  0.00    +0.000 A 
ATOM     17  C   UNL     1       0.334  13.018  19.459  0.00  0.00    +0.000 A 
ATOM     18  C   UNL     1       1.054  14.059  18.822  0.00  0.00    +0.000 A 
ATOM     19  C   UNL     1       2.225  13.493  18.384  0.00  0.00    +0.000 A 
ATOM     20  O   UNL     1       2.274  12.172  18.708  0.00  0.00    +0.000 OA
ENDBRANCH  15  16
BRANCH  14  22
ATOM     21  C   UNL     1      -0.035   9.425  23.047  0.00  0.00    +0.000 C 
ATOM     22  O   UNL     1       0.144   9.256  21.636  0.00  0.00    +0.000 OA
ENDBRANCH  14  22
ENDBRANCH  10  15
ENDBRANCH   1  12
BRANCH   5  23
ATOM     23  C   UNL     1       4.094   3.057  18.694  0.00  0.00    +0.000 C 
ATOM     24  O   UNL     1       4.863   2.883  19.674  0.00  0.00    +0.000 OA
ATOM     25  OXT UNL     1       3.203   2.287  18.228  0.00  0.00    +0.000 OA
ENDBRANCH   5  23
BRANCH   6  26
ATOM     26  C   UNL     1       5.847   3.815  16.354  0.00  0.00    +0.000 C 
BRANCH  26  27
ATOM     27  O   UNL     1       7.022   4.473  15.861  0.00  0.00    +0.000 OA
BRANCH  27  28
ATOM     28  C   UNL     1       7.125   4.597  14.527  0.00  0.00    +0.000 C 
ATOM     29  N   UNL     1       6.391   3.634  13.925  0.00  0.00    +0.000 N 
ATOM     30  O   UNL     1       7.770   5.435  13.915  0.00  0.00    +0.000 OA
ATOM     31  H   UNL     1       6.008   2.903  14.508  0.00  0.00    +0.000 HD
ATOM     32  H   UNL     1       6.489   3.500  12.931  0.00  0.00    +0.000 HD
ENDBRANCH  27  28
ENDBRANCH  26  27
ENDBRANCH   6  26
TORSDOF 8
ENDMDL
MODEL 3
REMARK VINA RESULT:      -6.7      3.237      9.168
REMARK  Name = 
REMARK  9 active torsions:
REMARK  status: ('A' for Active; 'I' for Inactive)
REMARK    1  A    between atoms: C_1  and  O_2
REMARK    2  A    between atoms: O_2  and  N_3
REMARK    3  A    between atoms: C_4  and  C_5
REMARK    4  A    between atoms: C_4  and  C_25
REMARK    5  A    between atoms: N_7  and  CA_8
REMARK    6  A    between atoms: CA_12  and  C_13
REMARK    7  A    between atoms: C_16  and  C_17
REMARK    8  A    between atoms: C_17  and  O_18
REMARK    9  A    between atoms: O_18  and  C_19
REMARK                            x       y       z     vdW  Elec       q    Type
REMARK                         _______ _______ _______ _____ _____    ______ ____
ROOT
ATOM      1  CA  UNL     1       1.391   9.491  20.300  0.00  0.00    +0.000 C 
ATOM      2  C   UNL     1       0.547   9.672  21.574  0.00  0.00    +0.000 C 
ATOM      3  O   UNL     1       0.559   9.080  22.626  0.00  0.00    +0.000 OA
ATOM      4  N   UNL     1      -0.140  10.672  20.976  0.00  0.00    +0.000 N 
ATOM      5  CA  UNL     1      -1.102  11.588  21.270  0.00  0.00    +0.000 C 
ATOM      6  C   UNL     1      -1.890  12.060  20.272  0.00  0.00    +0.000 C 
ATOM      7  C   UNL     1      -1.811  11.587  18.821  0.00  0.00    +0.000 C 
ATOM      8  S   UNL     1      -0.933   9.979  18.583  0.00  0.00    +0.000 S 
ATOM      9  C   UNL     1       0.415  10.495  19.651  0.00  0.00    +0.000 C 
ENDROOT
BRANCH   1  12
ATOM     10  C   UNL     1       2.347   7.850  18.664  0.00  0.00    +0.000 C 
ATOM     11  O   UNL     1       2.618   8.755  17.865  0.00  0.00    +0.000 OA
ATOM     12  N   UNL     1       1.594   8.091  19.814  0.00  0.00    +0.000 N 
ATOM     13  H   UNL     1       1.423   7.317  20.452  0.00  0.00    +0.000 HD
BRANCH  10  15
ATOM     14  N   UNL     1       3.817   6.047  17.656  0.00  0.00    +0.000 NA
ATOM     15  C   UNL     1       2.818   6.395  18.416  0.00  0.00    +0.000 C 
BRANCH  15  16
ATOM     16  C   UNL     1       2.092   5.313  19.028  0.00  0.00    +0.000 A 
ATOM     17  C   UNL     1       1.570   4.161  18.456  0.00  0.00    +0.000 A 
ATOM     18  C   UNL     1       1.018   3.392  19.510  0.00  0.00    +0.000 A 
ATOM     19  C   UNL     1       1.230   4.118  20.655  0.00  0.00    +0.000 A 
ATOM     20  O   UNL     1       1.875   5.284  20.377  0.00  0.00    +0.000 OA
ENDBRANCH  15  16
BRANCH  14  22
ATOM     21  C   UNL     1       5.190   6.512  15.919  0.00  0.00    +0.000 C 
ATOM     22  O   UNL     1       4.510   7.085  17.043  0.00  0.00    +0.000 OA
ENDBRANCH  14  22
ENDBRANCH  10  15
ENDBRANCH   1  12
BRANCH   5  23
ATOM     23  C   UNL     1      -1.213  12.145  22.749  0.00  0.00    +0.000 C 
ATOM     24  O   UNL     1      -2.083  11.596  23.474  0.00  0.00    +0.000 OA
ATOM     25  OXT UNL     1      -0.314  12.978  23.067  0.00  0.00    +0.000 OA
ENDBRANCH   5  23
BRANCH   6  26
ATOM     26  C   UNL     1      -2.974  13.107  20.490  0.00  0.00    +0.000 C 
BRANCH  26  27
ATOM     27  O   UNL     1      -4.254  12.623  20.062  0.00  0.00    +0.000 OA
BRANCH  27  28
ATOM     28  C   UNL     1      -5.125  12.293  21.031  0.00  0.00    +0.000 C 
ATOM     29  N   UNL     1      -4.655  12.719  22.226  0.00  0.00    +0.000 N 
ATOM     30  O   UNL     1      -6.186  11.704  20.895  0.00  0.00    +0.000 OA
ATOM     31  H   UNL     1      -3.708  13.069  22.259  0.00  0.00    +0.000 HD
ATOM     32  H   UNL     1      -5.119  12.412  23.065  0.00  0.00    +0.000 HD
ENDBRANCH  27  28
ENDBRANCH  26  27
ENDBRANCH   6  26
TORSDOF 8
ENDMDL
MODEL 4
REMARK VINA RESULT:      -6.6      2.920      4.602
REMARK  Name = 
REMARK  9 active torsions:
REMARK  status: ('A' for Active; 'I' for Inactive)
REMARK    1  A    between atoms: C_1  and  O_2
REMARK    2  A    between atoms: O_2  and  N_3
REMARK    3  A    between atoms: C_4  and  C_5
REMARK    4  A    between atoms: C_4  and  C_25
REMARK    5  A    between atoms: N_7  and  CA_8
REMARK    6  A    between atoms: CA_12  and  C_13
REMARK    7  A    between atoms: C_16  and  C_17
REMARK    8  A    between atoms: C_17  and  O_18
REMARK    9  A    between atoms: O_18  and  C_19
REMARK                            x       y       z     vdW  Elec       q    Type
REMARK                         _______ _______ _______ _____ _____    ______ ____
ROOT
ATOM      1  CA  UNL     1       1.657   8.997  19.649  0.00  0.00    +0.000 C 
ATOM      2  C   UNL     1       2.122   8.391  18.313  0.00  0.00    +0.000 C 
ATOM      3  O   UNL     1       1.997   8.779  17.177  0.00  0.00    +0.000 OA
ATOM      4  N   UNL     1       2.640   7.331  18.975  0.00  0.00    +0.000 N 
ATOM      5  CA  UNL     1       3.362   6.206  18.725  0.00  0.00    +0.000 C 
ATOM      6  C   UNL     1       3.231   5.139  19.554  0.00  0.00    +0.000 C 
ATOM      7  C   UNL     1       2.268   5.089  20.739  0.00  0.00    +0.000 C 
ATOM      8  S   UNL     1       0.927   6.359  20.696  0.00  0.00    +0.000 S 
ATOM      9  C   UNL     1       2.095   7.657  20.276  0.00  0.00    +0.000 C 
ENDROOT
BRANCH   1  12
ATOM     10  C   UNL     1      -0.002  10.852  19.352  0.00  0.00    +0.000 C 
ATOM     11  O   UNL     1       0.902  11.692  19.270  0.00  0.00    +0.000 OA
ATOM     12  N   UNL     1       0.259   9.527  19.703  0.00  0.00    +0.000 N 
ATOM     13  H   UNL     1      -0.517   8.870  19.730  0.00  0.00    +0.000 HD
BRANCH  10  15
ATOM     14  N   UNL     1      -2.266  11.836  19.933  0.00  0.00    +0.000 NA
ATOM     15  C   UNL     1      -1.479  11.236  19.085  0.00  0.00    +0.000 C 
BRANCH  15  16
ATOM     16  C   UNL     1      -2.074  10.883  17.823  0.00  0.00    +0.000 A 
ATOM     17  C   UNL     1      -1.799   9.813  16.982  0.00  0.00    +0.000 A 
ATOM     18  C   UNL     1      -2.720   9.885  15.909  0.00  0.00    +0.000 A 
ATOM     19  C   UNL     1      -3.496  10.990  16.154  0.00  0.00    +0.000 A 
ATOM     20  O   UNL     1      -3.113  11.604  17.307  0.00  0.00    +0.000 OA
ENDBRANCH  15  16
BRANCH  14  22
ATOM     21  C   UNL     1      -1.716  13.593  21.248  0.00  0.00    +0.000 C 
ATOM     22  O   UNL     1      -1.704  12.162  21.163  0.00  0.00    +0.000 OA
ENDBRANCH  14  22
ENDBRANCH  10  15
ENDBRANCH   1  12
BRANCH   5  23
ATOM     23  C   UNL     1       4.405   6.205  17.532  0.00  0.00    +0.000 C 
ATOM     24  O   UNL     1       5.363   7.012  17.646  0.00  0.00    +0.000 OA
ATOM     25  OXT UNL     1       4.225   5.289  16.676  0.00  0.00    +0.000 OA
ENDBRANCH   5  23
BRANCH   6  26
ATOM     26  C   UNL     1       4.016   3.846  19.379  0.00  0.00    +0.000 C 
BRANCH  26  27
ATOM     27  O   UNL     1       3.147   2.706  19.406  0.00  0.00    +0.000 OA
BRANCH  27  28
ATOM     28  C   UNL     1       3.031   2.014  18.260  0.00  0.00    +0.000 C 
ATOM     29  N   UNL     1       3.868   0.951  18.286  0.00  0.00    +0.000 N 
ATOM     30  O   UNL     1       2.296   2.269  17.319  0.00  0.00    +0.000 OA
ATOM     31  H   UNL     1       4.537   0.901  19.042  0.00  0.00    +0.000 HD
ATOM     32  H   UNL     1       4.008   0.424  17.440  0.00  0.00    +0.000 HD
ENDBRANCH  27  28
ENDBRANCH  26  27
ENDBRANCH   6  26
TORSDOF 8
ENDMDL
MODEL 5
REMARK VINA RESULT:      -6.5      1.215      2.606
REMARK  Name = 
REMARK  9 active torsions:
REMARK  status: ('A' for Active; 'I' for Inactive)
REMARK    1  A    between atoms: C_1  and  O_2
REMARK    2  A    between atoms: O_2  and  N_3
REMARK    3  A    between atoms: C_4  and  C_5
REMARK    4  A    between atoms: C_4  and  C_25
REMARK    5  A    between atoms: N_7  and  CA_8
REMARK    6  A    between atoms: CA_12  and  C_13
REMARK    7  A    between atoms: C_16  and  C_17
REMARK    8  A    between atoms: C_17  and  O_18
REMARK    9  A    between atoms: O_18  and  C_19
REMARK                            x       y       z     vdW  Elec       q    Type
REMARK                         _______ _______ _______ _____ _____    ______ ____
ROOT
ATOM      1  CA  UNL     1       1.684   7.134  19.325  0.00  0.00    +0.000 C 
ATOM      2  C   UNL     1       2.284   5.861  19.950  0.00  0.00    +0.000 C 
ATOM      3  O   UNL     1       2.237   5.430  21.076  0.00  0.00    +0.000 OA
ATOM      4  N   UNL     1       2.840   5.541  18.759  0.00  0.00    +0.000 N 
ATOM      5  CA  UNL     1       3.552   4.533  18.186  0.00  0.00    +0.000 C 
ATOM      6  C   UNL     1       4.368   4.813  17.139  0.00  0.00    +0.000 C 
ATOM      7  C   UNL     1       4.592   6.218  16.580  0.00  0.00    +0.000 C 
ATOM      8  S   UNL     1       4.089   7.587  17.714  0.00  0.00    +0.000 S 
ATOM      9  C   UNL     1       2.527   6.781  18.082  0.00  0.00    +0.000 C 
ENDROOT
BRANCH   1  12
ATOM     10  C   UNL     1       1.123   9.544  19.720  0.00  0.00    +0.000 C 
ATOM     11  O   UNL     1       0.598   9.639  18.604  0.00  0.00    +0.000 OA
ATOM     12  N   UNL     1       1.831   8.404  20.101  0.00  0.00    +0.000 N 
ATOM     13  H   UNL     1       2.220   8.367  21.041  0.00  0.00    +0.000 HD
BRANCH  10  15
ATOM     14  N   UNL     1       0.775  10.562  22.016  0.00  0.00    +0.000 NA
ATOM     15  C   UNL     1       1.035  10.701  20.747  0.00  0.00    +0.000 C 
BRANCH  15  16
ATOM     16  C   UNL     1       1.210  12.055  20.291  0.00  0.00    +0.000 A 
ATOM     17  C   UNL     1       0.513  12.759  19.318  0.00  0.00    +0.000 A 
ATOM     18  C   UNL     1       1.033  14.076  19.312  0.00  0.00    +0.000 A 
ATOM     19  C   UNL     1       2.013  14.097  20.272  0.00  0.00    +0.000 A 
ATOM     20  O   UNL     1       2.133  12.880  20.869  0.00  0.00    +0.000 OA
ENDBRANCH  15  16
BRANCH  14  22
ATOM     21  C   UNL     1      -0.671   9.246  23.154  0.00  0.00    +0.000 C 
ATOM     22  O   UNL     1       0.583   9.258  22.462  0.00  0.00    +0.000 OA
ENDBRANCH  14  22
ENDBRANCH  10  15
ENDBRANCH   1  12
BRANCH   5  23
ATOM     23  C   UNL     1       3.339   3.048  18.696  0.00  0.00    +0.000 C 
ATOM     24  O   UNL     1       4.076   2.689  19.650  0.00  0.00    +0.000 OA
ATOM     25  OXT UNL     1       2.351   2.450  18.177  0.00  0.00    +0.000 OA
ENDBRANCH   5  23
BRANCH   6  26
ATOM     26  C   UNL     1       5.182   3.754  16.410  0.00  0.00    +0.000 C 
BRANCH  26  27
ATOM     27  O   UNL     1       5.884   4.318  15.294  0.00  0.00    +0.000 OA
BRANCH  27  28
ATOM     28  C   UNL     1       7.167   4.661  15.503  0.00  0.00    +0.000 C 
ATOM     29  N   UNL     1       7.629   5.353  14.437  0.00  0.00    +0.000 N 
ATOM     30  O   UNL     1       7.843   4.408  16.487  0.00  0.00    +0.000 OA
ATOM     31  H   UNL     1       7.045   5.392  13.613  0.00  0.00    +0.000 HD
ATOM     32  H   UNL     1       8.615   5.547  14.375  0.00  0.00    +0.000 HD
ENDBRANCH  27  28
ENDBRANCH  26  27
ENDBRANCH   6  26
TORSDOF 8
ENDMDL
MODEL 6
REMARK VINA RESULT:      -6.5      1.030      1.368
REMARK  Name = 
REMARK  9 active torsions:
REMARK  status: ('A' for Active; 'I' for Inactive)
REMARK    1  A    between atoms: C_1  and  O_2
REMARK    2  A    between atoms: O_2  and  N_3
REMARK    3  A    between atoms: C_4  and  C_5
REMARK    4  A    between atoms: C_4  and  C_25
REMARK    5  A    between atoms: N_7  and  CA_8
REMARK    6  A    between atoms: CA_12  and  C_13
REMARK    7  A    between atoms: C_16  and  C_17
REMARK    8  A    between atoms: C_17  and  O_18
REMARK    9  A    between atoms: O_18  and  C_19
REMARK                            x       y       z     vdW  Elec       q    Type
REMARK                         _______ _______ _______ _____ _____    ______ ____
ROOT
ATOM      1  CA  UNL     1       1.840   6.952  19.126  0.00  0.00    +0.000 C 
ATOM      2  C   UNL     1       2.629   5.828  19.820  0.00  0.00    +0.000 C 
ATOM      3  O   UNL     1       2.693   5.502  20.981  0.00  0.00    +0.000 OA
ATOM      4  N   UNL     1       3.165   5.470  18.630  0.00  0.00    +0.000 N 
ATOM      5  CA  UNL     1       3.973   4.510  18.106  0.00  0.00    +0.000 C 
ATOM      6  C   UNL     1       4.694   4.792  16.991  0.00  0.00    +0.000 C 
ATOM      7  C   UNL     1       4.708   6.155  16.301  0.00  0.00    +0.000 C 
ATOM      8  S   UNL     1       4.086   7.550  17.341  0.00  0.00    +0.000 S 
ATOM      9  C   UNL     1       2.661   6.594  17.869  0.00  0.00    +0.000 C 
ENDROOT
BRANCH   1  12
ATOM     10  C   UNL     1       1.183   9.370  19.194  0.00  0.00    +0.000 C 
ATOM     11  O   UNL     1       0.807   9.335  18.016  0.00  0.00    +0.000 OA
ATOM     12  N   UNL     1       1.858   8.298  19.779  0.00  0.00    +0.000 N 
ATOM     13  H   UNL     1       2.121   8.367  20.759  0.00  0.00    +0.000 HD
BRANCH  10  15
ATOM     14  N   UNL     1       1.304  11.834  19.780  0.00  0.00    +0.000 NA
ATOM     15  C   UNL     1       0.938  10.620  20.077  0.00  0.00    +0.000 C 
BRANCH  15  16
ATOM     16  C   UNL     1       0.290  10.457  21.352  0.00  0.00    +0.000 A 
ATOM     17  C   UNL     1      -0.743  11.189  21.921  0.00  0.00    +0.000 A 
ATOM     18  C   UNL     1      -1.057  10.567  23.154  0.00  0.00    +0.000 A 
ATOM     19  C   UNL     1      -0.200   9.502  23.267  0.00  0.00    +0.000 A 
ATOM     20  O   UNL     1       0.623   9.426  22.185  0.00  0.00    +0.000 OA
ENDBRANCH  15  16
BRANCH  14  22
ATOM     21  C   UNL     1       2.007  13.408  18.315  0.00  0.00    +0.000 C 
ATOM     22  O   UNL     1       1.951  11.997  18.559  0.00  0.00    +0.000 OA
ENDBRANCH  14  22
ENDBRANCH  10  15
ENDBRANCH   1  12
BRANCH   5  23
ATOM     23  C   UNL     1       3.978   3.065  18.753  0.00  0.00    +0.000 C 
ATOM     24  O   UNL     1       3.200   2.229  18.226  0.00  0.00    +0.000 OA
ATOM     25  OXT UNL     1       4.873   2.884  19.632  0.00  0.00    +0.000 OA
ENDBRANCH   5  23
BRANCH   6  26
ATOM     26  C   UNL     1       5.603   3.780  16.309  0.00  0.00    +0.000 C 
BRANCH  26  27
ATOM     27  O   UNL     1       6.900   4.336  16.058  0.00  0.00    +0.000 OA
BRANCH  27  28
ATOM     28  C   UNL     1       7.596   4.745  17.134  0.00  0.00    +0.000 C 
ATOM     29  N   UNL     1       7.796   6.080  17.061  0.00  0.00    +0.000 N 
ATOM     30  O   UNL     1       8.000   4.052  18.054  0.00  0.00    +0.000 OA
ATOM     31  H   UNL     1       7.551   6.545  16.198  0.00  0.00    +0.000 HD
ATOM     32  H   UNL     1       8.432   6.511  17.713  0.00  0.00    +0.000 HD
ENDBRANCH  27  28
ENDBRANCH  26  27
ENDBRANCH   6  26
TORSDOF 8
ENDMDL
MODEL 7
REMARK VINA RESULT:      -6.5      2.141      8.796
REMARK  Name = 
REMARK  9 active torsions:
REMARK  status: ('A' for Active; 'I' for Inactive)
REMARK    1  A    between atoms: C_1  and  O_2
REMARK    2  A    between atoms: O_2  and  N_3
REMARK    3  A    between atoms: C_4  and  C_5
REMARK    4  A    between atoms: C_4  and  C_25
REMARK    5  A    between atoms: N_7  and  CA_8
REMARK    6  A    between atoms: CA_12  and  C_13
REMARK    7  A    between atoms: C_16  and  C_17
REMARK    8  A    between atoms: C_17  and  O_18
REMARK    9  A    between atoms: O_18  and  C_19
REMARK                            x       y       z     vdW  Elec       q    Type
REMARK                         _______ _______ _______ _____ _____    ______ ____
ROOT
ATOM      1  CA  UNL     1       3.032   7.043  19.319  0.00  0.00    +0.000 C 
ATOM      2  C   UNL     1       1.854   6.884  20.296  0.00  0.00    +0.000 C 
ATOM      3  O   UNL     1       1.438   5.919  20.890  0.00  0.00    +0.000 OA
ATOM      4  N   UNL     1       1.548   8.193  20.138  0.00  0.00    +0.000 N 
ATOM      5  CA  UNL     1       0.682   9.120  20.628  0.00  0.00    +0.000 C 
ATOM      6  C   UNL     1       0.337  10.177  19.850  0.00  0.00    +0.000 C 
ATOM      7  C   UNL     1       0.816  10.376  18.413  0.00  0.00    +0.000 C 
ATOM      8  S   UNL     1       1.488   8.854  17.609  0.00  0.00    +0.000 S 
ATOM      9  C   UNL     1       2.473   8.457  19.057  0.00  0.00    +0.000 C 
ENDROOT
BRANCH   1  12
ATOM     10  C   UNL     1       4.425   5.770  17.670  0.00  0.00    +0.000 C 
ATOM     11  O   UNL     1       5.350   6.585  17.772  0.00  0.00    +0.000 OA
ATOM     12  N   UNL     1       3.182   5.995  18.261  0.00  0.00    +0.000 N 
ATOM     13  H   UNL     1       2.464   5.280  18.169  0.00  0.00    +0.000 HD
BRANCH  10  15
ATOM     14  N   UNL     1       4.061   3.312  17.164  0.00  0.00    +0.000 NA
ATOM     15  C   UNL     1       4.598   4.459  16.861  0.00  0.00    +0.000 C 
BRANCH  15  16
ATOM     16  C   UNL     1       5.446   4.464  15.698  0.00  0.00    +0.000 A 
ATOM     17  C   UNL     1       6.799   4.758  15.588  0.00  0.00    +0.000 A 
ATOM     18  C   UNL     1       7.158   4.538  14.236  0.00  0.00    +0.000 A 
ATOM     19  C   UNL     1       6.011   4.131  13.603  0.00  0.00    +0.000 A 
ATOM     20  O   UNL     1       4.967   4.085  14.476  0.00  0.00    +0.000 OA
ENDBRANCH  15  16
BRANCH  14  22
ATOM     21  C   UNL     1       3.458   2.017  18.919  0.00  0.00    +0.000 C 
ATOM     22  O   UNL     1       3.257   3.294  18.300  0.00  0.00    +0.000 OA
ENDBRANCH  14  22
ENDBRANCH  10  15
ENDBRANCH   1  12
BRANCH   5  23
ATOM     23  C   UNL     1       0.175   8.991  22.124  0.00  0.00    +0.000 C 
ATOM     24  O   UNL     1      -0.850   8.281  22.292  0.00  0.00    +0.000 OA
ATOM     25  OXT UNL     1       0.948   9.501  22.987  0.00  0.00    +0.000 OA
ENDBRANCH   5  23
BRANCH   6  26
ATOM     26  C   UNL     1      -0.599  11.284  20.315  0.00  0.00    +0.000 C 
BRANCH  26  27
ATOM     27  O   UNL     1      -0.998  12.118  19.220  0.00  0.00    +0.000 OA
BRANCH  27  28
ATOM     28  C   UNL     1      -2.311  12.141  18.931  0.00  0.00    +0.000 C 
ATOM     29  N   UNL     1      -2.485  11.976  17.600  0.00  0.00    +0.000 N 
ATOM     30  O   UNL     1      -3.234  12.284  19.718  0.00  0.00    +0.000 OA
ATOM     31  H   UNL     1      -1.663  12.008  17.013  0.00  0.00    +0.000 HD
ATOM     32  H   UNL     1      -3.401  12.124  17.209  0.00  0.00    +0.000 HD
ENDBRANCH  27  28
ENDBRANCH  26  27
ENDBRANCH   6  26
TORSDOF 8
ENDMDL
MODEL 8
REMARK VINA RESULT:      -6.4      2.149      8.882
REMARK  Name = 
REMARK  9 active torsions:
REMARK  status: ('A' for Active; 'I' for Inactive)
REMARK    1  A    between atoms: C_1  and  O_2
REMARK    2  A    between atoms: O_2  and  N_3
REMARK    3  A    between atoms: C_4  and  C_5
REMARK    4  A    between atoms: C_4  and  C_25
REMARK    5  A    between atoms: N_7  and  CA_8
REMARK    6  A    between atoms: CA_12  and  C_13
REMARK    7  A    between atoms: C_16  and  C_17
REMARK    8  A    between atoms: C_17  and  O_18
REMARK    9  A    between atoms: O_18  and  C_19
REMARK                            x       y       z     vdW  Elec       q    Type
REMARK                         _______ _______ _______ _____ _____    ______ ____
ROOT
ATOM      1  CA  UNL     1       3.101   6.994  19.281  0.00  0.00    +0.000 C 
ATOM      2  C   UNL     1       1.922   6.818  20.255  0.00  0.00    +0.000 C 
ATOM      3  O   UNL     1       1.510   5.843  20.836  0.00  0.00    +0.000 OA
ATOM      4  N   UNL     1       1.612   8.128  20.116  0.00  0.00    +0.000 N 
ATOM      5  CA  UNL     1       0.743   9.045  20.619  0.00  0.00    +0.000 C 
ATOM      6  C   UNL     1       0.395  10.112  19.855  0.00  0.00    +0.000 C 
ATOM      7  C   UNL     1       0.875  10.333  18.421  0.00  0.00    +0.000 C 
ATOM      8  S   UNL     1       1.552   8.825  17.596  0.00  0.00    +0.000 S 
ATOM      9  C   UNL     1       2.538   8.410  19.039  0.00  0.00    +0.000 C 
ENDROOT
BRANCH   1  12
ATOM     10  C   UNL     1       4.524   5.623  17.740  0.00  0.00    +0.000 C 
ATOM     11  O   UNL     1       5.510   6.335  17.965  0.00  0.00    +0.000 OA
ATOM     12  N   UNL     1       3.255   5.962  18.209  0.00  0.00    +0.000 N 
ATOM     13  H   UNL     1       2.482   5.328  18.020  0.00  0.00    +0.000 HD
BRANCH  10  15
ATOM     14  N   UNL     1       4.086   3.184  17.204  0.00  0.00    +0.000 NA
ATOM     15  C   UNL     1       4.649   4.321  16.909  0.00  0.00    +0.000 C 
BRANCH  15  16
ATOM     16  C   UNL     1       5.475   4.322  15.731  0.00  0.00    +0.000 A 
ATOM     17  C   UNL     1       5.141   4.040  14.413  0.00  0.00    +0.000 A 
ATOM     18  C   UNL     1       6.305   4.261  13.638  0.00  0.00    +0.000 A 
ATOM     19  C   UNL     1       7.276   4.657  14.522  0.00  0.00    +0.000 A 
ATOM     20  O   UNL     1       6.788   4.695  15.792  0.00  0.00    +0.000 OA
ENDBRANCH  15  16
BRANCH  14  22
ATOM     21  C   UNL     1       2.209   2.282  18.087  0.00  0.00    +0.000 C 
ATOM     22  O   UNL     1       3.302   3.169  18.353  0.00  0.00    +0.000 OA
ENDBRANCH  14  22
ENDBRANCH  10  15
ENDBRANCH   1  12
BRANCH   5  23
ATOM     23  C   UNL     1       0.236   8.893  22.112  0.00  0.00    +0.000 C 
ATOM     24  O   UNL     1       0.904   9.512  22.979  0.00  0.00    +0.000 OA
ATOM     25  OXT UNL     1      -0.868   8.284  22.233  0.00  0.00    +0.000 OA
ENDBRANCH   5  23
BRANCH   6  26
ATOM     26  C   UNL     1      -0.544  11.209  20.336  0.00  0.00    +0.000 C 
BRANCH  26  27
ATOM     27  O   UNL     1      -1.723  11.274  19.522  0.00  0.00    +0.000 OA
BRANCH  27  28
ATOM     28  C   UNL     1      -2.563  12.295  19.762  0.00  0.00    +0.000 C 
ATOM     29  N   UNL     1      -3.489  12.361  18.779  0.00  0.00    +0.000 N 
ATOM     30  O   UNL     1      -2.530  13.065  20.709  0.00  0.00    +0.000 OA
ATOM     31  H   UNL     1      -3.353  11.774  17.967  0.00  0.00    +0.000 HD
ATOM     32  H   UNL     1      -4.094  13.165  18.736  0.00  0.00    +0.000 HD
ENDBRANCH  27  28
ENDBRANCH  26  27
ENDBRANCH   6  26
TORSDOF 8
ENDMDL
MODEL 9
REMARK VINA RESULT:      -6.4      2.604      9.164
REMARK  Name = 
REMARK  9 active torsions:
REMARK  status: ('A' for Active; 'I' for Inactive)
REMARK    1  A    between atoms: C_1  and  O_2
REMARK    2  A    between atoms: O_2  and  N_3
REMARK    3  A    between atoms: C_4  and  C_5
REMARK    4  A    between atoms: C_4  and  C_25
REMARK    5  A    between atoms: N_7  and  CA_8
REMARK    6  A    between atoms: CA_12  and  C_13
REMARK    7  A    between atoms: C_16  and  C_17
REMARK    8  A    between atoms: C_17  and  O_18
REMARK    9  A    between atoms: O_18  and  C_19
REMARK                            x       y       z     vdW  Elec       q    Type
REMARK                         _______ _______ _______ _____ _____    ______ ____
ROOT
ATOM      1  CA  UNL     1       1.701   7.486  19.410  0.00  0.00    +0.000 C 
ATOM      2  C   UNL     1       1.923   8.870  18.774  0.00  0.00    +0.000 C 
ATOM      3  O   UNL     1       2.627   9.219  17.857  0.00  0.00    +0.000 OA
ATOM      4  N   UNL     1       1.070   9.418  19.669  0.00  0.00    +0.000 N 
ATOM      5  CA  UNL     1       0.491  10.617  19.948  0.00  0.00    +0.000 C 
ATOM      6  C   UNL     1       0.115  10.886  21.224  0.00  0.00    +0.000 C 
ATOM      7  C   UNL     1       0.350   9.945  22.404  0.00  0.00    +0.000 C 
ATOM      8  S   UNL     1       1.620   8.636  22.104  0.00  0.00    +0.000 S 
ATOM      9  C   UNL     1       0.914   8.243  20.500  0.00  0.00    +0.000 C 
ENDROOT
BRANCH   1  12
ATOM     10  C   UNL     1       3.233   5.584  18.849  0.00  0.00    +0.000 C 
ATOM     11  O   UNL     1       2.404   5.103  18.067  0.00  0.00    +0.000 OA
ATOM     12  N   UNL     1       2.918   6.660  19.680  0.00  0.00    +0.000 N 
ATOM     13  H   UNL     1       3.645   7.035  20.285  0.00  0.00    +0.000 HD
BRANCH  10  15
ATOM     14  N   UNL     1       4.972   3.857  19.501  0.00  0.00    +0.000 NA
ATOM     15  C   UNL     1       4.665   5.000  18.957  0.00  0.00    +0.000 C 
BRANCH  15  16
ATOM     16  C   UNL     1       5.773   5.775  18.464  0.00  0.00    +0.000 A 
ATOM     17  C   UNL     1       5.833   6.648  17.386  0.00  0.00    +0.000 A 
ATOM     18  C   UNL     1       7.135   7.206  17.382  0.00  0.00    +0.000 A 
ATOM     19  C   UNL     1       7.790   6.641  18.447  0.00  0.00    +0.000 A 
ATOM     20  O   UNL     1       6.978   5.771  19.108  0.00  0.00    +0.000 OA
ENDBRANCH  15  16
BRANCH  14  22
ATOM     21  C   UNL     1       3.778   1.967  19.147  0.00  0.00    +0.000 C 
ATOM     22  O   UNL     1       3.909   3.111  20.000  0.00  0.00    +0.000 OA
ENDBRANCH  14  22
ENDBRANCH  10  15
ENDBRANCH   1  12
BRANCH   5  23
ATOM     23  C   UNL     1       0.188  11.624  18.764  0.00  0.00    +0.000 C 
ATOM     24  O   UNL     1       1.134  12.388  18.443  0.00  0.00    +0.000 OA
ATOM     25  OXT UNL     1      -0.924  11.437  18.186  0.00  0.00    +0.000 OA
ENDBRANCH   5  23
BRANCH   6  26
ATOM     26  C   UNL     1      -0.568  12.184  21.635  0.00  0.00    +0.000 C 
BRANCH  26  27
ATOM     27  O   UNL     1      -1.966  11.979  21.876  0.00  0.00    +0.000 OA
BRANCH  27  28
ATOM     28  C   UNL     1      -2.433  12.382  23.070  0.00  0.00    +0.000 C 
ATOM     29  N   UNL     1      -1.662  13.388  23.542  0.00  0.00    +0.000 N 
ATOM     30  O   UNL     1      -3.401  11.938  23.668  0.00  0.00    +0.000 OA
ATOM     31  H   UNL     1      -0.804  13.592  23.048  0.00  0.00    +0.000 HD
ATOM     32  H   UNL     1      -1.791  13.692  24.494  0.00  0.00    +0.000 HD
ENDBRANCH  27  28
ENDBRANCH  26  27
ENDBRANCH   6  26
TORSDOF 8
ENDMDL
