MODEL 1
REMARK VINA RESULT:      -7.3      0.000      0.000
REMARK  Name = 
REMARK  5 active torsions:
REMARK  status: ('A' for Active; 'I' for Inactive)
REMARK    1  A    between atoms: C_1  and  C_2
REMARK    2  A    between atoms: C_2  and  C_3
REMARK    3  A    between atoms: C_2  and  N_4
REMARK    4  A    between atoms: N_17  and  C_18
REMARK    5  A    between atoms: C_18  and  C_19
REMARK                            x       y       z     vdW  Elec       q    Type
REMARK                         _______ _______ _______ _____ _____    ______ ____
ROOT
ATOM      1  N   UNL     1       4.813   4.568  17.754  0.00  0.00    +0.000 N 
ATOM      2  C   UNL     1       3.939   5.526  18.185  0.00  0.00    +0.000 A 
ATOM      3  N   UNL     1       3.750   6.655  17.573  0.00  0.00    +0.000 NA
ATOM      4  C   UNL     1       2.906   7.496  18.191  0.00  0.00    +0.000 A 
ATOM      5  S   UNL     1       2.503   9.020  17.539  0.00  0.00    +0.000 S 
ATOM      6  C   UNL     1       1.491   9.371  18.859  0.00  0.00    +0.000 A 
ATOM      7  C   UNL     1       1.488   8.370  19.812  0.00  0.00    +0.000 A 
ATOM      8  C   UNL     1       2.282   7.264  19.389  0.00  0.00    +0.000 A 
ATOM      9  C   UNL     1       2.512   5.983  20.007  0.00  0.00    +0.000 A 
ATOM     10  O   UNL     1       1.989   5.658  21.068  0.00  0.00    +0.000 OA
ATOM     11  O   UNL     1       3.352   5.126  19.345  0.00  0.00    +0.000 OA
ATOM     12  C   UNL     1       0.650   8.494  21.053  0.00  0.00    +0.000 C 
ATOM     13  C   UNL     1      -0.003   9.901  21.155  0.00  0.00    +0.000 C 
ATOM     14  N   UNL     1      -0.473  10.477  19.863  0.00  0.00    +0.000 NA
ATOM     15  C   UNL     1       0.692  10.637  18.956  0.00  0.00    +0.000 C 
ATOM     16  H   UNL     1       4.967   3.833  18.435  0.00  0.00    +0.000 HD
ENDROOT
BRANCH   1  18
ATOM     17  C   UNL     1       7.254   4.723  17.799  0.00  0.00    +0.000 C 
ATOM     18  C   UNL     1       5.988   4.917  16.964  0.00  0.00    +0.000 C 
ATOM     19  C   UNL     1       6.039   4.032  15.720  0.00  0.00    +0.000 C 
ENDBRANCH   1  18
BRANCH  14  20
ATOM     20  C   UNL     1      -1.540   9.630  19.293  0.00  0.00    +0.000 C 
BRANCH  20  21
ATOM     21  C   UNL     1      -2.272  10.210  18.103  0.00  0.00    +0.000 A 
ATOM     22  C   UNL     1      -1.928   9.801  16.804  0.00  0.00    +0.000 A 
ATOM     23  C   UNL     1      -2.633  10.278  15.699  0.00  0.00    +0.000 A 
ATOM     24  C   UNL     1      -3.685  11.171  15.881  0.00  0.00    +0.000 A 
ATOM     25  C   UNL     1      -4.028  11.595  17.164  0.00  0.00    +0.000 A 
ATOM     26  C   UNL     1      -3.324  11.117  18.271  0.00  0.00    +0.000 A 
ENDBRANCH  20  21
ENDBRANCH  14  20
TORSDOF 3
ENDMDL
MODEL 2
REMARK VINA RESULT:      -7.0      3.464      5.104
REMARK  Name = 
REMARK  5 active torsions:
REMARK  status: ('A' for Active; 'I' for Inactive)
REMARK    1  A    between atoms: C_1  and  C_2
REMARK    2  A    between atoms: C_2  and  C_3
REMARK    3  A    between atoms: C_2  and  N_4
REMARK    4  A    between atoms: N_17  and  C_18
REMARK    5  A    between atoms: C_18  and  C_19
REMARK                            x       y       z     vdW  Elec       q    Type
REMARK                         _______ _______ _______ _____ _____    ______ ____
ROOT
ATOM      1  N   UNL     1       2.721   5.117  19.808  0.00  0.00    +0.000 N 
ATOM      2  C   UNL     1       2.327   6.425  19.824  0.00  0.00    +0.000 A 
ATOM      3  N   UNL     1       1.833   7.015  20.869  0.00  0.00    +0.000 NA
ATOM      4  C   UNL     1       1.437   8.282  20.667  0.00  0.00    +0.000 A 
ATOM      5  S   UNL     1       0.783   9.240  21.919  0.00  0.00    +0.000 S 
ATOM      6  C   UNL     1       0.570  10.557  20.865  0.00  0.00    +0.000 A 
ATOM      7  C   UNL     1       0.944  10.268  19.565  0.00  0.00    +0.000 A 
ATOM      8  C   UNL     1       1.489   8.953  19.474  0.00  0.00    +0.000 A 
ATOM      9  C   UNL     1       2.070   8.255  18.356  0.00  0.00    +0.000 A 
ATOM     10  O   UNL     1       2.189   8.765  17.247  0.00  0.00    +0.000 OA
ATOM     11  O   UNL     1       2.497   6.974  18.591  0.00  0.00    +0.000 OA
ATOM     12  C   UNL     1       0.834  11.308  18.486  0.00  0.00    +0.000 C 
ATOM     13  C   UNL     1       0.114  12.584  19.004  0.00  0.00    +0.000 C 
ATOM     14  N   UNL     1       0.446  12.977  20.403  0.00  0.00    +0.000 NA
ATOM     15  C   UNL     1       0.037  11.883  21.319  0.00  0.00    +0.000 C 
ATOM     16  H   UNL     1       2.917   4.771  18.875  0.00  0.00    +0.000 HD
ENDROOT
BRANCH   1  18
ATOM     17  C   UNL     1       0.778   3.669  20.142  0.00  0.00    +0.000 C 
ATOM     18  C   UNL     1       2.121   4.136  20.704  0.00  0.00    +0.000 C 
ATOM     19  C   UNL     1       3.068   2.947  20.855  0.00  0.00    +0.000 C 
ENDBRANCH   1  18
BRANCH  14  20
ATOM     20  C   UNL     1       1.881  13.312  20.504  0.00  0.00    +0.000 C 
BRANCH  20  21
ATOM     21  C   UNL     1       2.356  14.434  19.608  0.00  0.00    +0.000 A 
ATOM     22  C   UNL     1       3.359  14.191  18.655  0.00  0.00    +0.000 A 
ATOM     23  C   UNL     1       3.767  15.196  17.778  0.00  0.00    +0.000 A 
ATOM     24  C   UNL     1       3.177  16.456  17.847  0.00  0.00    +0.000 A 
ATOM     25  C   UNL     1       2.189  16.714  18.797  0.00  0.00    +0.000 A 
ATOM     26  C   UNL     1       1.780  15.708  19.674  0.00  0.00    +0.000 A 
ENDBRANCH  20  21
ENDBRANCH  14  20
TORSDOF 3
ENDMDL
MODEL 3
REMARK VINA RESULT:      -6.9      0.538      1.104
REMARK  Name = 
REMARK  5 active torsions:
REMARK  status: ('A' for Active; 'I' for Inactive)
REMARK    1  A    between atoms: C_1  and  C_2
REMARK    2  A    between atoms: C_2  and  C_3
REMARK    3  A    between atoms: C_2  and  N_4
REMARK    4  A    between atoms: N_17  and  C_18
REMARK    5  A    between atoms: C_18  and  C_19
REMARK                            x       y       z     vdW  Elec       q    Type
REMARK                         _______ _______ _______ _____ _____    ______ ____
ROOT
ATOM      1  N   UNL     1       4.966   5.248  17.493  0.00  0.00    +0.000 N 
ATOM      2  C   UNL     1       4.019   6.105  17.981  0.00  0.00    +0.000 A 
ATOM      3  N   UNL     1       3.724   7.242  17.430  0.00  0.00    +0.000 NA
ATOM      4  C   UNL     1       2.820   7.975  18.099  0.00  0.00    +0.000 A 
ATOM      5  S   UNL     1       2.278   9.489  17.529  0.00  0.00    +0.000 S 
ATOM      6  C   UNL     1       1.259   9.685  18.875  0.00  0.00    +0.000 A 
ATOM      7  C   UNL     1       1.355   8.640  19.776  0.00  0.00    +0.000 A 
ATOM      8  C   UNL     1       2.235   7.629  19.289  0.00  0.00    +0.000 A 
ATOM      9  C   UNL     1       2.583   6.344  19.838  0.00  0.00    +0.000 A 
ATOM     10  O   UNL     1       2.105   5.922  20.886  0.00  0.00    +0.000 OA
ATOM     11  O   UNL     1       3.484   5.598  19.125  0.00  0.00    +0.000 OA
ATOM     12  C   UNL     1       0.527   8.628  21.030  0.00  0.00    +0.000 C 
ATOM     13  C   UNL     1      -0.244   9.966  21.210  0.00  0.00    +0.000 C 
ATOM     14  N   UNL     1      -0.779  10.564  19.954  0.00  0.00    +0.000 NA
ATOM     15  C   UNL     1       0.355  10.869  19.045  0.00  0.00    +0.000 C 
ATOM     16  H   UNL     1       5.192   4.497  18.135  0.00  0.00    +0.000 HD
ENDROOT
BRANCH   1  18
ATOM     17  C   UNL     1       7.185   6.268  17.644  0.00  0.00    +0.000 C 
ATOM     18  C   UNL     1       6.096   5.738  16.711  0.00  0.00    +0.000 C 
ATOM     19  C   UNL     1       6.646   4.598  15.856  0.00  0.00    +0.000 C 
ENDBRANCH   1  18
BRANCH  14  20
ATOM     20  C   UNL     1      -1.777   9.657  19.351  0.00  0.00    +0.000 C 
BRANCH  20  21
ATOM     21  C   UNL     1      -2.441  10.160  18.089  0.00  0.00    +0.000 A 
ATOM     22  C   UNL     1      -3.523  11.052  18.176  0.00  0.00    +0.000 A 
ATOM     23  C   UNL     1      -4.108  11.575  17.022  0.00  0.00    +0.000 A 
ATOM     24  C   UNL     1      -3.620  11.208  15.771  0.00  0.00    +0.000 A 
ATOM     25  C   UNL     1      -2.555  10.314  15.671  0.00  0.00    +0.000 A 
ATOM     26  C   UNL     1      -1.967   9.791  16.824  0.00  0.00    +0.000 A 
ENDBRANCH  20  21
ENDBRANCH  14  20
TORSDOF 3
ENDMDL
MODEL 4
REMARK VINA RESULT:      -6.8      3.352      8.140
REMARK  Name = 
REMARK  5 active torsions:
REMARK  status: ('A' for Active; 'I' for Inactive)
REMARK    1  A    between atoms: C_1  and  C_2
REMARK    2  A    between atoms: C_2  and  C_3
REMARK    3  A    between atoms: C_2  and  N_4
REMARK    4  A    between atoms: N_17  and  C_18
REMARK    5  A    between atoms: C_18  and  C_19
REMARK                            x       y       z     vdW  Elec       q    Type
REMARK                         _______ _______ _______ _____ _____    ______ ____
ROOT
ATOM      1  N   UNL     1      -2.312  12.130  21.862  0.00  0.00    +0.000 N 
ATOM      2  C   UNL     1      -1.439  11.285  21.235  0.00  0.00    +0.000 A 
ATOM      3  N   UNL     1      -0.732  10.391  21.855  0.00  0.00    +0.000 NA
ATOM      4  C   UNL     1       0.122   9.708  21.076  0.00  0.00    +0.000 A 
ATOM      5  S   UNL     1       1.124   8.472  21.692  0.00  0.00    +0.000 S 
ATOM      6  C   UNL     1       1.810   8.199  20.161  0.00  0.00    +0.000 A 
ATOM      7  C   UNL     1       1.325   9.062  19.196  0.00  0.00    +0.000 A 
ATOM      8  C   UNL     1       0.310   9.906  19.733  0.00  0.00    +0.000 A 
ATOM      9  C   UNL     1      -0.522  10.895  19.096  0.00  0.00    +0.000 A 
ATOM     10  O   UNL     1      -0.456  11.140  17.896  0.00  0.00    +0.000 OA
ATOM     11  O   UNL     1      -1.409  11.559  19.903  0.00  0.00    +0.000 OA
ATOM     12  C   UNL     1       1.808   8.973  17.775  0.00  0.00    +0.000 C 
ATOM     13  C   UNL     1       2.979   7.961  17.639  0.00  0.00    +0.000 C 
ATOM     14  N   UNL     1       2.857   6.733  18.475  0.00  0.00    +0.000 NA
ATOM     15  C   UNL     1       2.827   7.126  19.906  0.00  0.00    +0.000 C 
ATOM     16  H   UNL     1      -2.646  12.875  21.261  0.00  0.00    +0.000 HD
ENDROOT
BRANCH   1  18
ATOM     17  C   UNL     1      -1.296  13.799  23.335  0.00  0.00    +0.000 C 
ATOM     18  C   UNL     1      -2.121  12.514  23.256  0.00  0.00    +0.000 C 
ATOM     19  C   UNL     1      -3.486  12.726  23.910  0.00  0.00    +0.000 C 
ENDBRANCH   1  18
BRANCH  14  20
ATOM     20  C   UNL     1       1.669   5.960  18.061  0.00  0.00    +0.000 C 
BRANCH  20  21
ATOM     21  C   UNL     1       1.696   4.486  18.399  0.00  0.00    +0.000 A 
ATOM     22  C   UNL     1       2.306   3.578  17.518  0.00  0.00    +0.000 A 
ATOM     23  C   UNL     1       2.395   2.224  17.841  0.00  0.00    +0.000 A 
ATOM     24  C   UNL     1       1.874   1.764  19.047  0.00  0.00    +0.000 A 
ATOM     25  C   UNL     1       1.255   2.653  19.925  0.00  0.00    +0.000 A 
ATOM     26  C   UNL     1       1.166   4.008  19.604  0.00  0.00    +0.000 A 
ENDBRANCH  20  21
ENDBRANCH  14  20
TORSDOF 3
ENDMDL
MODEL 5
REMARK VINA RESULT:      -6.6      2.969      8.156
REMARK  Name = 
REMARK  5 active torsions:
REMARK  status: ('A' for Active; 'I' for Inactive)
REMARK    1  A    between atoms: C_1  and  C_2
REMARK    2  A    between atoms: C_2  and  C_3
REMARK    3  A    between atoms: C_2  and  N_4
REMARK    4  A    between atoms: N_17  and  C_18
REMARK    5  A    between atoms: C_18  and  C_19
REMARK                            x       y       z     vdW  Elec       q    Type
REMARK                         _______ _______ _______ _____ _____    ______ ____
ROOT
ATOM      1  N   UNL     1       0.374  13.033  20.956  0.00  0.00    +0.000 N 
ATOM      2  C   UNL     1       0.746  11.748  20.678  0.00  0.00    +0.000 A 
ATOM      3  N   UNL     1       1.065  11.331  19.491  0.00  0.00    +0.000 NA
ATOM      4  C   UNL     1       1.330  10.018  19.407  0.00  0.00    +0.000 A 
ATOM      5  S   UNL     1       1.792   9.277  17.941  0.00  0.00    +0.000 S 
ATOM      6  C   UNL     1       1.901   7.755  18.689  0.00  0.00    +0.000 A 
ATOM      7  C   UNL     1       1.547   7.788  20.026  0.00  0.00    +0.000 A 
ATOM      8  C   UNL     1       1.260   9.122  20.441  0.00  0.00    +0.000 A 
ATOM      9  C   UNL     1       0.926   9.648  21.740  0.00  0.00    +0.000 A 
ATOM     10  O   UNL     1       0.856   8.942  22.741  0.00  0.00    +0.000 OA
ATOM     11  O   UNL     1       0.689  10.996  21.811  0.00  0.00    +0.000 OA
ATOM     12  C   UNL     1       1.584   6.540  20.862  0.00  0.00    +0.000 C 
ATOM     13  C   UNL     1       1.880   5.287  19.991  0.00  0.00    +0.000 C 
ATOM     14  N   UNL     1       2.868   5.493  18.895  0.00  0.00    +0.000 NA
ATOM     15  C   UNL     1       2.342   6.520  17.960  0.00  0.00    +0.000 C 
ATOM     16  H   UNL     1      -0.007  13.145  21.889  0.00  0.00    +0.000 HD
ENDROOT
BRANCH   1  18
ATOM     17  C   UNL     1      -1.609  14.368  20.437  0.00  0.00    +0.000 C 
ATOM     18  C   UNL     1      -0.250  13.875  19.942  0.00  0.00    +0.000 C 
ATOM     19  C   UNL     1       0.663  15.063  19.644  0.00  0.00    +0.000 C 
ENDBRANCH   1  18
BRANCH  14  20
ATOM     20  C   UNL     1       4.183   5.848  19.465  0.00  0.00    +0.000 C 
BRANCH  20  21
ATOM     21  C   UNL     1       5.386   5.353  18.694  0.00  0.00    +0.000 A 
ATOM     22  C   UNL     1       5.211   4.745  17.439  0.00  0.00    +0.000 A 
ATOM     23  C   UNL     1       6.312   4.338  16.686  0.00  0.00    +0.000 A 
ATOM     24  C   UNL     1       7.599   4.532  17.180  0.00  0.00    +0.000 A 
ATOM     25  C   UNL     1       7.787   5.122  18.430  0.00  0.00    +0.000 A 
ATOM     26  C   UNL     1       6.686   5.531  19.184  0.00  0.00    +0.000 A 
ENDBRANCH  20  21
ENDBRANCH  14  20
TORSDOF 3
ENDMDL
MODEL 6
REMARK VINA RESULT:      -6.5      3.046      4.485
REMARK  Name = 
REMARK  5 active torsions:
REMARK  status: ('A' for Active; 'I' for Inactive)
REMARK    1  A    between atoms: C_1  and  C_2
REMARK    2  A    between atoms: C_2  and  C_3
REMARK    3  A    between atoms: C_2  and  N_4
REMARK    4  A    between atoms: N_17  and  C_18
REMARK    5  A    between atoms: C_18  and  C_19
REMARK                            x       y       z     vdW  Elec       q    Type
REMARK                         _______ _______ _______ _____ _____    ______ ____
ROOT
ATOM      1  N   UNL     1       3.763   4.596  19.234  0.00  0.00    +0.000 N 
ATOM      2  C   UNL     1       3.160   5.820  19.310  0.00  0.00    +0.000 A 
ATOM      3  N   UNL     1       2.452   6.211  20.325  0.00  0.00    +0.000 NA
ATOM      4  C   UNL     1       1.880   7.417  20.181  0.00  0.00    +0.000 A 
ATOM      5  S   UNL     1       0.929   8.124  21.410  0.00  0.00    +0.000 S 
ATOM      6  C   UNL     1       0.633   9.499  20.456  0.00  0.00    +0.000 A 
ATOM      7  C   UNL     1       1.205   9.413  19.200  0.00  0.00    +0.000 A 
ATOM      8  C   UNL     1       1.966   8.214  19.070  0.00  0.00    +0.000 A 
ATOM      9  C   UNL     1       2.787   7.737  17.987  0.00  0.00    +0.000 A 
ATOM     10  O   UNL     1       2.954   8.377  16.953  0.00  0.00    +0.000 OA
ATOM     11  O   UNL     1       3.387   6.519  18.165  0.00  0.00    +0.000 OA
ATOM     12  C   UNL     1       1.058  10.535  18.211  0.00  0.00    +0.000 C 
ATOM     13  C   UNL     1       0.080  11.624  18.735  0.00  0.00    +0.000 C 
ATOM     14  N   UNL     1       0.168  11.908  20.195  0.00  0.00    +0.000 NA
ATOM     15  C   UNL     1      -0.163  10.672  20.947  0.00  0.00    +0.000 C 
ATOM     16  H   UNL     1       4.125   4.387  18.310  0.00  0.00    +0.000 HD
ENDROOT
BRANCH   1  18
ATOM     17  C   UNL     1       2.073   2.829  19.158  0.00  0.00    +0.000 C 
ATOM     18  C   UNL     1       3.228   3.444  19.949  0.00  0.00    +0.000 C 
ATOM     19  C   UNL     1       4.338   2.413  20.145  0.00  0.00    +0.000 C 
ENDBRANCH   1  18
BRANCH  14  20
ATOM     20  C   UNL     1       1.505  12.445  20.522  0.00  0.00    +0.000 C 
BRANCH  20  21
ATOM     21  C   UNL     1       1.893  13.718  19.805  0.00  0.00    +0.000 A 
ATOM     22  C   UNL     1       2.962  13.709  18.893  0.00  0.00    +0.000 A 
ATOM     23  C   UNL     1       3.295  14.859  18.176  0.00  0.00    +0.000 A 
ATOM     24  C   UNL     1       2.565  16.030  18.366  0.00  0.00    +0.000 A 
ATOM     25  C   UNL     1       1.510  16.055  19.278  0.00  0.00    +0.000 A 
ATOM     26  C   UNL     1       1.175  14.905  19.995  0.00  0.00    +0.000 A 
ENDBRANCH  20  21
ENDBRANCH  14  20
TORSDOF 3
ENDMDL
MODEL 7
REMARK VINA RESULT:      -6.3      3.295      7.500
REMARK  Name = 
REMARK  5 active torsions:
REMARK  status: ('A' for Active; 'I' for Inactive)
REMARK    1  A    between atoms: C_1  and  C_2
REMARK    2  A    between atoms: C_2  and  C_3
REMARK    3  A    between atoms: C_2  and  N_4
REMARK    4  A    between atoms: N_17  and  C_18
REMARK    5  A    between atoms: C_18  and  C_19
REMARK                            x       y       z     vdW  Elec       q    Type
REMARK                         _______ _______ _______ _____ _____    ______ ____
ROOT
ATOM      1  N   UNL     1      -0.346   9.547  20.920  0.00  0.00    +0.000 N 
ATOM      2  C   UNL     1       0.605   8.792  20.294  0.00  0.00    +0.000 A 
ATOM      3  N   UNL     1       1.139   7.730  20.815  0.00  0.00    +0.000 NA
ATOM      4  C   UNL     1       2.109   7.167  20.076  0.00  0.00    +0.000 A 
ATOM      5  S   UNL     1       2.921   5.750  20.571  0.00  0.00    +0.000 S 
ATOM      6  C   UNL     1       3.893   5.762  19.177  0.00  0.00    +0.000 A 
ATOM      7  C   UNL     1       3.646   6.851  18.361  0.00  0.00    +0.000 A 
ATOM      8  C   UNL     1       2.572   7.637  18.875  0.00  0.00    +0.000 A 
ATOM      9  C   UNL     1       1.923   8.804  18.336  0.00  0.00    +0.000 A 
ATOM     10  O   UNL     1       2.240   9.298  17.259  0.00  0.00    +0.000 OA
ATOM     11  O   UNL     1       0.915   9.346  19.090  0.00  0.00    +0.000 OA
ATOM     12  C   UNL     1       4.403   7.035  17.077  0.00  0.00    +0.000 C 
ATOM     13  C   UNL     1       5.541   5.985  16.937  0.00  0.00    +0.000 C 
ATOM     14  N   UNL     1       5.209   4.619  17.430  0.00  0.00    +0.000 NA
ATOM     15  C   UNL     1       4.902   4.693  18.881  0.00  0.00    +0.000 C 
ATOM     16  H   UNL     1      -0.525  10.429  20.454  0.00  0.00    +0.000 HD
ENDROOT
BRANCH   1  18
ATOM     17  C   UNL     1       0.968   9.482  22.982  0.00  0.00    +0.000 C 
ATOM     18  C   UNL     1      -0.429   9.602  22.375  0.00  0.00    +0.000 C 
ATOM     19  C   UNL     1      -1.071  10.925  22.791  0.00  0.00    +0.000 C 
ENDBRANCH   1  18
BRANCH  14  20
ATOM     20  C   UNL     1       4.102   4.052  16.632  0.00  0.00    +0.000 C 
BRANCH  20  21
ATOM     21  C   UNL     1       2.998   3.388  17.424  0.00  0.00    +0.000 A 
ATOM     22  C   UNL     1       1.747   4.016  17.541  0.00  0.00    +0.000 A 
ATOM     23  C   UNL     1       0.697   3.390  18.215  0.00  0.00    +0.000 A 
ATOM     24  C   UNL     1       0.889   2.132  18.780  0.00  0.00    +0.000 A 
ATOM     25  C   UNL     1       2.130   1.504  18.681  0.00  0.00    +0.000 A 
ATOM     26  C   UNL     1       3.180   2.128  18.006  0.00  0.00    +0.000 A 
ENDBRANCH  20  21
ENDBRANCH  14  20
TORSDOF 3
ENDMDL
MODEL 8
REMARK VINA RESULT:      -6.3      3.436      4.646
REMARK  Name = 
REMARK  5 active torsions:
REMARK  status: ('A' for Active; 'I' for Inactive)
REMARK    1  A    between atoms: C_1  and  C_2
REMARK    2  A    between atoms: C_2  and  C_3
REMARK    3  A    between atoms: C_2  and  N_4
REMARK    4  A    between atoms: N_17  and  C_18
REMARK    5  A    between atoms: C_18  and  C_19
REMARK                            x       y       z     vdW  Elec       q    Type
REMARK                         _______ _______ _______ _____ _____    ______ ____
ROOT
ATOM      1  N   UNL     1       2.472   6.494  20.131  0.00  0.00    +0.000 N 
ATOM      2  C   UNL     1       1.821   7.691  20.237  0.00  0.00    +0.000 A 
ATOM      3  N   UNL     1       1.469   8.413  19.217  0.00  0.00    +0.000 NA
ATOM      4  C   UNL     1       0.906   9.591  19.528  0.00  0.00    +0.000 A 
ATOM      5  S   UNL     1       0.351  10.675  18.333  0.00  0.00    +0.000 S 
ATOM      6  C   UNL     1      -0.149  11.793  19.512  0.00  0.00    +0.000 A 
ATOM      7  C   UNL     1       0.139  11.379  20.799  0.00  0.00    +0.000 A 
ATOM      8  C   UNL     1       0.713  10.074  20.796  0.00  0.00    +0.000 A 
ATOM      9  C   UNL     1       1.100   9.217  21.887  0.00  0.00    +0.000 A 
ATOM     10  O   UNL     1       0.954   9.536  23.062  0.00  0.00    +0.000 OA
ATOM     11  O   UNL     1       1.645   8.006  21.549  0.00  0.00    +0.000 OA
ATOM     12  C   UNL     1      -0.232  12.231  21.981  0.00  0.00    +0.000 C 
ATOM     13  C   UNL     1      -0.773  13.616  21.530  0.00  0.00    +0.000 C 
ATOM     14  N   UNL     1      -1.631  13.597  20.312  0.00  0.00    +0.000 NA
ATOM     15  C   UNL     1      -0.834  13.083  19.169  0.00  0.00    +0.000 C 
ATOM     16  H   UNL     1       2.824   6.152  21.018  0.00  0.00    +0.000 HD
ENDROOT
BRANCH   1  18
ATOM     17  C   UNL     1       4.580   5.458  19.447  0.00  0.00    +0.000 C 
ATOM     18  C   UNL     1       3.324   6.198  18.985  0.00  0.00    +0.000 C 
ATOM     19  C   UNL     1       2.546   5.340  17.989  0.00  0.00    +0.000 C 
ENDBRANCH   1  18
BRANCH  14  20
ATOM     20  C   UNL     1      -2.851  12.805  20.569  0.00  0.00    +0.000 C 
BRANCH  20  21
ATOM     21  C   UNL     1      -3.785  13.364  21.620  0.00  0.00    +0.000 A 
ATOM     22  C   UNL     1      -3.979  12.668  22.824  0.00  0.00    +0.000 A 
ATOM     23  C   UNL     1      -4.788  13.198  23.830  0.00  0.00    +0.000 A 
ATOM     24  C   UNL     1      -5.412  14.428  23.640  0.00  0.00    +0.000 A 
ATOM     25  C   UNL     1      -5.238  15.123  22.444  0.00  0.00    +0.000 A 
ATOM     26  C   UNL     1      -4.428  14.594  21.437  0.00  0.00    +0.000 A 
ENDBRANCH  20  21
ENDBRANCH  14  20
TORSDOF 3
ENDMDL
MODEL 9
REMARK VINA RESULT:      -6.2      2.376      3.575
REMARK  Name = 
REMARK  5 active torsions:
REMARK  status: ('A' for Active; 'I' for Inactive)
REMARK    1  A    between atoms: C_1  and  C_2
REMARK    2  A    between atoms: C_2  and  C_3
REMARK    3  A    between atoms: C_2  and  N_4
REMARK    4  A    between atoms: N_17  and  C_18
REMARK    5  A    between atoms: C_18  and  C_19
REMARK                            x       y       z     vdW  Elec       q    Type
REMARK                         _______ _______ _______ _____ _____    ______ ____
ROOT
ATOM      1  N   UNL     1       2.551   6.454  20.077  0.00  0.00    +0.000 N 
ATOM      2  C   UNL     1       1.848   7.621  20.187  0.00  0.00    +0.000 A 
ATOM      3  N   UNL     1       1.420   8.302  19.168  0.00  0.00    +0.000 NA
ATOM      4  C   UNL     1       0.814   9.459  19.479  0.00  0.00    +0.000 A 
ATOM      5  S   UNL     1       0.159  10.489  18.287  0.00  0.00    +0.000 S 
ATOM      6  C   UNL     1      -0.345  11.609  19.463  0.00  0.00    +0.000 A 
ATOM      7  C   UNL     1       0.017  11.238  20.744  0.00  0.00    +0.000 A 
ATOM      8  C   UNL     1       0.652   9.961  20.743  0.00  0.00    +0.000 A 
ATOM      9  C   UNL     1       1.125   9.148  21.834  0.00  0.00    +0.000 A 
ATOM     10  O   UNL     1       1.013   9.487  23.008  0.00  0.00    +0.000 OA
ATOM     11  O   UNL     1       1.713   7.956  21.499  0.00  0.00    +0.000 OA
ATOM     12  C   UNL     1      -0.344  12.097  21.923  0.00  0.00    +0.000 C 
ATOM     13  C   UNL     1      -0.969  13.445  21.468  0.00  0.00    +0.000 C 
ATOM     14  N   UNL     1      -1.876  13.359  20.288  0.00  0.00    +0.000 NA
ATOM     15  C   UNL     1      -1.104  12.857  19.124  0.00  0.00    +0.000 C 
ATOM     16  H   UNL     1       2.956   6.149  20.955  0.00  0.00    +0.000 HD
ENDROOT
BRANCH   1  18
ATOM     17  C   UNL     1       4.673   5.496  19.324  0.00  0.00    +0.000 C 
ATOM     18  C   UNL     1       3.368   6.172  18.902  0.00  0.00    +0.000 C 
ATOM     19  C   UNL     1       2.588   5.262  17.955  0.00  0.00    +0.000 C 
ENDBRANCH   1  18
BRANCH  14  20
ATOM     20  C   UNL     1      -3.045  12.516  20.614  0.00  0.00    +0.000 C 
BRANCH  20  21
ATOM     21  C   UNL     1      -4.109  12.429  19.543  0.00  0.00    +0.000 A 
ATOM     22  C   UNL     1      -5.296  13.168  19.674  0.00  0.00    +0.000 A 
ATOM     23  C   UNL     1      -6.261  13.148  18.667  0.00  0.00    +0.000 A 
ATOM     24  C   UNL     1      -6.050  12.387  17.520  0.00  0.00    +0.000 A 
ATOM     25  C   UNL     1      -4.881  11.639  17.383  0.00  0.00    +0.000 A 
ATOM     26  C   UNL     1      -3.914  11.659  18.390  0.00  0.00    +0.000 A 
ENDBRANCH  20  21
ENDBRANCH  14  20
TORSDOF 3
ENDMDL
