MODEL 1
REMARK VINA RESULT:      -7.0      0.000      0.000
REMARK  Name = 
REMARK  11 active torsions:
REMARK  status: ('A' for Active; 'I' for Inactive)
REMARK    1  A    between atoms: C_1  and  C_2
REMARK    2  A    between atoms: C_2  and  C_3
REMARK    3  A    between atoms: C_7  and  C_8
REMARK    4  A    between atoms: C_10  and  C_11
REMARK    5  A    between atoms: C_11  and  O_12
REMARK    6  A    between atoms: C_11  and  C_13
REMARK    7  A    between atoms: C_13  and  O_14
REMARK    8  A    between atoms: C_13  and  C_15
REMARK    9  A    between atoms: C_15  and  O_16
REMARK   10  A    between atoms: C_15  and  C_17
REMARK   11  A    between atoms: C_17  and  O_18
REMARK                            x       y       z     vdW  Elec       q    Type
REMARK                         _______ _______ _______ _____ _____    ______ ____
ROOT
ATOM      1  C   UNL     1       5.497   4.939  16.368  0.00  0.00    +0.000 A 
ATOM      2  N   UNL     1       5.383   3.862  17.174  0.00  0.00    +0.000 NA
ATOM      3  C   UNL     1       4.390   4.185  18.027  0.00  0.00    +0.000 A 
ATOM      4  C   UNL     1       3.911   5.440  17.721  0.00  0.00    +0.000 A 
ATOM      5  N   UNL     1       4.616   5.911  16.680  0.00  0.00    +0.000 N 
ATOM      6  H   UNL     1       4.494   6.833  16.208  0.00  0.00    +0.000 HD
ENDROOT
BRANCH   1  11
ATOM      7  C   UNL     1       6.334   4.488  13.990  0.00  0.00    +0.000 A 
ATOM      8  C   UNL     1       7.471   4.905  13.323  0.00  0.00    +0.000 A 
ATOM      9  O   UNL     1       8.183   5.637  14.151  0.00  0.00    +0.000 OA
ATOM     10  N   UNL     1       7.600   5.742  15.311  0.00  0.00    +0.000 NA
ATOM     11  C   UNL     1       6.454   5.038  15.252  0.00  0.00    +0.000 A 
BRANCH   7  13
ATOM     12  C   UNL     1       5.353   3.252  12.007  0.00  0.00    +0.000 C 
ATOM     13  C   UNL     1       5.192   3.652  13.471  0.00  0.00    +0.000 C 
ENDBRANCH   7  13
ENDBRANCH   1  11
BRANCH   3  14
ATOM     14  C   UNL     1       3.891   3.294  19.140  0.00  0.00    +0.000 C 
BRANCH  14  15
ATOM     15  O   UNL     1       4.962   2.646  19.786  0.00  0.00    +0.000 OA
ATOM     16  H   UNL     1       5.086   3.054  20.682  0.00  0.00    +0.000 HD
ENDBRANCH  14  15
BRANCH  14  17
ATOM     17  C   UNL     1       2.817   2.289  18.641  0.00  0.00    +0.000 C 
BRANCH  17  18
ATOM     18  O   UNL     1       3.358   1.015  18.374  0.00  0.00    +0.000 OA
ATOM     19  H   UNL     1       2.637   0.430  18.030  0.00  0.00    +0.000 HD
ENDBRANCH  17  18
BRANCH  17  20
ATOM     20  C   UNL     1       1.591   2.209  19.593  0.00  0.00    +0.000 C 
BRANCH  20  21
ATOM     21  O   UNL     1       0.376   2.255  18.885  0.00  0.00    +0.000 OA
ATOM     22  H   UNL     1      -0.154   3.019  19.232  0.00  0.00    +0.000 HD
ENDBRANCH  20  21
BRANCH  20  23
ATOM     23  C   UNL     1       1.618   3.291  20.692  0.00  0.00    +0.000 C 
BRANCH  23  24
ATOM     24  O   UNL     1       1.776   2.717  21.962  0.00  0.00    +0.000 OA
ATOM     25  H   UNL     1       1.211   1.901  21.978  0.00  0.00    +0.000 HD
ENDBRANCH  23  24
ENDBRANCH  20  23
ENDBRANCH  17  20
ENDBRANCH  14  17
ENDBRANCH   3  14
TORSDOF 10
ENDMDL
MODEL 2
REMARK VINA RESULT:      -7.0      2.305      6.477
REMARK  Name = 
REMARK  11 active torsions:
REMARK  status: ('A' for Active; 'I' for Inactive)
REMARK    1  A    between atoms: C_1  and  C_2
REMARK    2  A    between atoms: C_2  and  C_3
REMARK    3  A    between atoms: C_7  and  C_8
REMARK    4  A    between atoms: C_10  and  C_11
REMARK    5  A    between atoms: C_11  and  O_12
REMARK    6  A    between atoms: C_11  and  C_13
REMARK    7  A    between atoms: C_13  and  O_14
REMARK    8  A    between atoms: C_13  and  C_15
REMARK    9  A    between atoms: C_15  and  O_16
REMARK   10  A    between atoms: C_15  and  C_17
REMARK   11  A    between atoms: C_17  and  O_18
REMARK                            x       y       z     vdW  Elec       q    Type
REMARK                         _______ _______ _______ _____ _____    ______ ____
ROOT
ATOM      1  C   UNL     1       3.413   4.988  19.306  0.00  0.00    +0.000 A 
ATOM      2  N   UNL     1       4.751   4.968  19.128  0.00  0.00    +0.000 NA
ATOM      3  C   UNL     1       4.983   5.937  18.219  0.00  0.00    +0.000 A 
ATOM      4  C   UNL     1       3.791   6.535  17.871  0.00  0.00    +0.000 A 
ATOM      5  N   UNL     1       2.807   5.929  18.554  0.00  0.00    +0.000 N 
ATOM      6  H   UNL     1       1.789   6.153  18.515  0.00  0.00    +0.000 HD
ENDROOT
BRANCH   1  11
ATOM      7  C   UNL     1       2.121   2.876  19.962  0.00  0.00    +0.000 A 
ATOM      8  C   UNL     1       1.608   2.453  21.174  0.00  0.00    +0.000 A 
ATOM      9  O   UNL     1       1.869   3.379  22.071  0.00  0.00    +0.000 OA
ATOM     10  N   UNL     1       2.520   4.377  21.546  0.00  0.00    +0.000 NA
ATOM     11  C   UNL     1       2.691   4.105  20.238  0.00  0.00    +0.000 A 
BRANCH   7  13
ATOM     12  C   UNL     1       3.459   1.565  18.255  0.00  0.00    +0.000 C 
ATOM     13  C   UNL     1       2.106   2.163  18.634  0.00  0.00    +0.000 C 
ENDBRANCH   7  13
ENDBRANCH   1  11
BRANCH   3  14
ATOM     14  C   UNL     1       6.346   6.299  17.680  0.00  0.00    +0.000 C 
BRANCH  14  15
ATOM     15  O   UNL     1       6.275   7.439  16.855  0.00  0.00    +0.000 OA
ATOM     16  H   UNL     1       5.475   7.966  17.110  0.00  0.00    +0.000 HD
ENDBRANCH  14  15
BRANCH  14  17
ATOM     17  C   UNL     1       7.022   5.101  16.962  0.00  0.00    +0.000 C 
BRANCH  17  18
ATOM     18  O   UNL     1       7.455   4.108  17.865  0.00  0.00    +0.000 OA
ATOM     19  H   UNL     1       6.686   3.526  18.088  0.00  0.00    +0.000 HD
ENDBRANCH  17  18
BRANCH  17  20
ATOM     20  C   UNL     1       6.134   4.507  15.832  0.00  0.00    +0.000 C 
BRANCH  20  21
ATOM     21  O   UNL     1       5.874   3.140  16.037  0.00  0.00    +0.000 OA
ATOM     22  H   UNL     1       4.993   2.929  15.633  0.00  0.00    +0.000 HD
ENDBRANCH  20  21
BRANCH  20  23
ATOM     23  C   UNL     1       6.723   4.740  14.426  0.00  0.00    +0.000 C 
BRANCH  23  24
ATOM     24  O   UNL     1       7.907   5.488  14.492  0.00  0.00    +0.000 OA
ATOM     25  H   UNL     1       7.659   6.431  14.308  0.00  0.00    +0.000 HD
ENDBRANCH  23  24
ENDBRANCH  20  23
ENDBRANCH  17  20
ENDBRANCH  14  17
ENDBRANCH   3  14
TORSDOF 10
ENDMDL
MODEL 3
REMARK VINA RESULT:      -7.0      1.508      2.259
REMARK  Name = 
REMARK  11 active torsions:
REMARK  status: ('A' for Active; 'I' for Inactive)
REMARK    1  A    between atoms: C_1  and  C_2
REMARK    2  A    between atoms: C_2  and  C_3
REMARK    3  A    between atoms: C_7  and  C_8
REMARK    4  A    between atoms: C_10  and  C_11
REMARK    5  A    between atoms: C_11  and  O_12
REMARK    6  A    between atoms: C_11  and  C_13
REMARK    7  A    between atoms: C_13  and  O_14
REMARK    8  A    between atoms: C_13  and  C_15
REMARK    9  A    between atoms: C_15  and  O_16
REMARK   10  A    between atoms: C_15  and  C_17
REMARK   11  A    between atoms: C_17  and  O_18
REMARK                            x       y       z     vdW  Elec       q    Type
REMARK                         _______ _______ _______ _____ _____    ______ ____
ROOT
ATOM      1  C   UNL     1       5.271   4.415  16.306  0.00  0.00    +0.000 A 
ATOM      2  N   UNL     1       4.290   5.248  16.713  0.00  0.00    +0.000 NA
ATOM      3  C   UNL     1       3.623   4.547  17.653  0.00  0.00    +0.000 A 
ATOM      4  C   UNL     1       4.214   3.311  17.808  0.00  0.00    +0.000 A 
ATOM      5  N   UNL     1       5.247   3.234  16.954  0.00  0.00    +0.000 N 
ATOM      6  H   UNL     1       5.897   2.428  16.830  0.00  0.00    +0.000 HD
ENDROOT
BRANCH   1  11
ATOM      7  C   UNL     1       6.269   4.429  13.947  0.00  0.00    +0.000 A 
ATOM      8  C   UNL     1       7.408   5.023  13.436  0.00  0.00    +0.000 A 
ATOM      9  O   UNL     1       8.018   5.647  14.420  0.00  0.00    +0.000 OA
ATOM     10  N   UNL     1       7.366   5.517  15.540  0.00  0.00    +0.000 NA
ATOM     11  C   UNL     1       6.279   4.763  15.288  0.00  0.00    +0.000 A 
BRANCH   7  13
ATOM     12  C   UNL     1       5.747   2.952  11.955  0.00  0.00    +0.000 C 
ATOM     13  C   UNL     1       5.222   3.624  13.221  0.00  0.00    +0.000 C 
ENDBRANCH   7  13
ENDBRANCH   1  11
BRANCH   3  14
ATOM     14  C   UNL     1       2.419   5.053  18.409  0.00  0.00    +0.000 C 
BRANCH  14  15
ATOM     15  O   UNL     1       2.422   6.461  18.479  0.00  0.00    +0.000 OA
ATOM     16  H   UNL     1       3.273   6.756  18.896  0.00  0.00    +0.000 HD
ENDBRANCH  14  15
BRANCH  14  17
ATOM     17  C   UNL     1       2.299   4.401  19.813  0.00  0.00    +0.000 C 
BRANCH  17  18
ATOM     18  O   UNL     1       2.510   5.327  20.855  0.00  0.00    +0.000 OA
ATOM     19  H   UNL     1       1.701   5.354  21.424  0.00  0.00    +0.000 HD
ENDBRANCH  17  18
BRANCH  17  20
ATOM     20  C   UNL     1       0.965   3.622  19.994  0.00  0.00    +0.000 C 
BRANCH  20  21
ATOM     21  O   UNL     1       0.925   2.933  21.220  0.00  0.00    +0.000 OA
ATOM     22  H   UNL     1       0.216   2.242  21.162  0.00  0.00    +0.000 HD
ENDBRANCH  20  21
BRANCH  20  23
ATOM     23  C   UNL     1       0.674   2.660  18.824  0.00  0.00    +0.000 C 
BRANCH  23  24
ATOM     24  O   UNL     1       1.506   1.532  18.880  0.00  0.00    +0.000 OA
ATOM     25  H   UNL     1       2.375   1.799  18.484  0.00  0.00    +0.000 HD
ENDBRANCH  23  24
ENDBRANCH  20  23
ENDBRANCH  17  20
ENDBRANCH  14  17
ENDBRANCH   3  14
TORSDOF 10
ENDMDL
MODEL 4
REMARK VINA RESULT:      -6.9      1.445      2.064
REMARK  Name = 
REMARK  11 active torsions:
REMARK  status: ('A' for Active; 'I' for Inactive)
REMARK    1  A    between atoms: C_1  and  C_2
REMARK    2  A    between atoms: C_2  and  C_3
REMARK    3  A    between atoms: C_7  and  C_8
REMARK    4  A    between atoms: C_10  and  C_11
REMARK    5  A    between atoms: C_11  and  O_12
REMARK    6  A    between atoms: C_11  and  C_13
REMARK    7  A    between atoms: C_13  and  O_14
REMARK    8  A    between atoms: C_13  and  C_15
REMARK    9  A    between atoms: C_15  and  O_16
REMARK   10  A    between atoms: C_15  and  C_17
REMARK   11  A    between atoms: C_17  and  O_18
REMARK                            x       y       z     vdW  Elec       q    Type
REMARK                         _______ _______ _______ _____ _____    ______ ____
ROOT
ATOM      1  C   UNL     1       6.683   4.766  15.664  0.00  0.00    +0.000 A 
ATOM      2  N   UNL     1       5.388   4.820  16.040  0.00  0.00    +0.000 NA
ATOM      3  C   UNL     1       5.421   4.669  17.380  0.00  0.00    +0.000 A 
ATOM      4  C   UNL     1       6.728   4.539  17.795  0.00  0.00    +0.000 A 
ATOM      5  N   UNL     1       7.516   4.596  16.710  0.00  0.00    +0.000 N 
ATOM      6  H   UNL     1       8.558   4.531  16.689  0.00  0.00    +0.000 HD
ENDROOT
BRANCH   1  11
ATOM      7  C   UNL     1       6.619   4.303  13.146  0.00  0.00    +0.000 A 
ATOM      8  C   UNL     1       7.384   4.792  12.103  0.00  0.00    +0.000 A 
ATOM      9  O   UNL     1       8.279   5.613  12.606  0.00  0.00    +0.000 OA
ATOM     10  N   UNL     1       8.160   5.709  13.900  0.00  0.00    +0.000 NA
ATOM     11  C   UNL     1       7.145   4.907  14.272  0.00  0.00    +0.000 A 
BRANCH   7  13
ATOM     12  C   UNL     1       4.759   3.325  11.729  0.00  0.00    +0.000 C 
ATOM     13  C   UNL     1       5.450   3.353  13.090  0.00  0.00    +0.000 C 
ENDBRANCH   7  13
ENDBRANCH   1  11
BRANCH   3  14
ATOM     14  C   UNL     1       4.203   4.651  18.272  0.00  0.00    +0.000 C 
BRANCH  14  15
ATOM     15  O   UNL     1       4.408   5.437  19.423  0.00  0.00    +0.000 OA
ATOM     16  H   UNL     1       3.622   5.338  20.020  0.00  0.00    +0.000 HD
ENDBRANCH  14  15
BRANCH  14  17
ATOM     17  C   UNL     1       3.765   3.204  18.626  0.00  0.00    +0.000 C 
BRANCH  17  18
ATOM     18  O   UNL     1       4.123   2.276  17.627  0.00  0.00    +0.000 OA
ATOM     19  H   UNL     1       5.106   2.163  17.636  0.00  0.00    +0.000 HD
ENDBRANCH  17  18
BRANCH  17  20
ATOM     20  C   UNL     1       4.260   2.760  20.031  0.00  0.00    +0.000 C 
BRANCH  20  21
ATOM     21  O   UNL     1       5.030   1.584  19.966  0.00  0.00    +0.000 OA
ATOM     22  H   UNL     1       5.744   1.643  20.652  0.00  0.00    +0.000 HD
ENDBRANCH  20  21
BRANCH  20  23
ATOM     23  C   UNL     1       3.109   2.596  21.045  0.00  0.00    +0.000 C 
BRANCH  23  24
ATOM     24  O   UNL     1       2.408   3.800  21.210  0.00  0.00    +0.000 OA
ATOM     25  H   UNL     1       3.036   4.439  21.638  0.00  0.00    +0.000 HD
ENDBRANCH  23  24
ENDBRANCH  20  23
ENDBRANCH  17  20
ENDBRANCH  14  17
ENDBRANCH   3  14
TORSDOF 10
ENDMDL
MODEL 5
REMARK VINA RESULT:      -6.8      1.058      1.684
REMARK  Name = 
REMARK  11 active torsions:
REMARK  status: ('A' for Active; 'I' for Inactive)
REMARK    1  A    between atoms: C_1  and  C_2
REMARK    2  A    between atoms: C_2  and  C_3
REMARK    3  A    between atoms: C_7  and  C_8
REMARK    4  A    between atoms: C_10  and  C_11
REMARK    5  A    between atoms: C_11  and  O_12
REMARK    6  A    between atoms: C_11  and  C_13
REMARK    7  A    between atoms: C_13  and  O_14
REMARK    8  A    between atoms: C_13  and  C_15
REMARK    9  A    between atoms: C_15  and  O_16
REMARK   10  A    between atoms: C_15  and  C_17
REMARK   11  A    between atoms: C_17  and  O_18
REMARK                            x       y       z     vdW  Elec       q    Type
REMARK                         _______ _______ _______ _____ _____    ______ ____
ROOT
ATOM      1  C   UNL     1       5.132   5.001  16.058  0.00  0.00    +0.000 A 
ATOM      2  N   UNL     1       4.461   3.868  16.358  0.00  0.00    +0.000 NA
ATOM      3  C   UNL     1       3.527   4.257  17.249  0.00  0.00    +0.000 A 
ATOM      4  C   UNL     1       3.636   5.614  17.466  0.00  0.00    +0.000 A 
ATOM      5  N   UNL     1       4.651   6.074  16.717  0.00  0.00    +0.000 N 
ATOM      6  H   UNL     1       4.986   7.060  16.655  0.00  0.00    +0.000 HD
ENDROOT
BRANCH   1  11
ATOM      7  C   UNL     1       6.295   4.528  13.826  0.00  0.00    +0.000 A 
ATOM      8  C   UNL     1       7.531   4.908  13.336  0.00  0.00    +0.000 A 
ATOM      9  O   UNL     1       8.136   5.614  14.266  0.00  0.00    +0.000 OA
ATOM     10  N   UNL     1       7.393   5.736  15.328  0.00  0.00    +0.000 NA
ATOM     11  C   UNL     1       6.245   5.071  15.096  0.00  0.00    +0.000 A 
BRANCH   7  13
ATOM     12  C   UNL     1       5.728   2.919  11.952  0.00  0.00    +0.000 C 
ATOM     13  C   UNL     1       5.216   3.732  13.138  0.00  0.00    +0.000 C 
ENDBRANCH   7  13
ENDBRANCH   1  11
BRANCH   3  14
ATOM     14  C   UNL     1       2.522   3.335  17.898  0.00  0.00    +0.000 C 
BRANCH  14  15
ATOM     15  O   UNL     1       1.216   3.850  17.780  0.00  0.00    +0.000 OA
ATOM     16  H   UNL     1       0.890   3.681  16.858  0.00  0.00    +0.000 HD
ENDBRANCH  14  15
BRANCH  14  17
ATOM     17  C   UNL     1       2.893   3.018  19.371  0.00  0.00    +0.000 C 
BRANCH  17  18
ATOM     18  O   UNL     1       4.271   3.179  19.624  0.00  0.00    +0.000 OA
ATOM     19  H   UNL     1       4.780   2.677  18.940  0.00  0.00    +0.000 HD
ENDBRANCH  17  18
BRANCH  17  20
ATOM     20  C   UNL     1       2.023   3.811  20.386  0.00  0.00    +0.000 C 
BRANCH  20  21
ATOM     21  O   UNL     1       2.658   4.993  20.808  0.00  0.00    +0.000 OA
ATOM     22  H   UNL     1       3.494   4.743  21.280  0.00  0.00    +0.000 HD
ENDBRANCH  20  21
BRANCH  20  23
ATOM     23  C   UNL     1       1.603   2.961  21.603  0.00  0.00    +0.000 C 
BRANCH  23  24
ATOM     24  O   UNL     1       2.718   2.367  22.212  0.00  0.00    +0.000 OA
ATOM     25  H   UNL     1       2.687   1.401  21.983  0.00  0.00    +0.000 HD
ENDBRANCH  23  24
ENDBRANCH  20  23
ENDBRANCH  17  20
ENDBRANCH  14  17
ENDBRANCH   3  14
TORSDOF 10
ENDMDL
MODEL 6
REMARK VINA RESULT:      -6.8      2.489      6.330
REMARK  Name = 
REMARK  11 active torsions:
REMARK  status: ('A' for Active; 'I' for Inactive)
REMARK    1  A    between atoms: C_1  and  C_2
REMARK    2  A    between atoms: C_2  and  C_3
REMARK    3  A    between atoms: C_7  and  C_8
REMARK    4  A    between atoms: C_10  and  C_11
REMARK    5  A    between atoms: C_11  and  O_12
REMARK    6  A    between atoms: C_11  and  C_13
REMARK    7  A    between atoms: C_13  and  O_14
REMARK    8  A    between atoms: C_13  and  C_15
REMARK    9  A    between atoms: C_15  and  O_16
REMARK   10  A    between atoms: C_15  and  C_17
REMARK   11  A    between atoms: C_17  and  O_18
REMARK                            x       y       z     vdW  Elec       q    Type
REMARK                         _______ _______ _______ _____ _____    ______ ____
ROOT
ATOM      1  C   UNL     1       2.784   4.884  18.031  0.00  0.00    +0.000 A 
ATOM      2  N   UNL     1       3.917   4.759  17.307  0.00  0.00    +0.000 NA
ATOM      3  C   UNL     1       4.378   6.020  17.184  0.00  0.00    +0.000 A 
ATOM      4  C   UNL     1       3.529   6.885  17.842  0.00  0.00    +0.000 A 
ATOM      5  N   UNL     1       2.527   6.164  18.367  0.00  0.00    +0.000 N 
ATOM      6  H   UNL     1       1.724   6.525  18.928  0.00  0.00    +0.000 HD
ENDROOT
BRANCH   1  11
ATOM      7  C   UNL     1       2.114   2.913  19.523  0.00  0.00    +0.000 A 
ATOM      8  C   UNL     1       1.032   2.053  19.476  0.00  0.00    +0.000 A 
ATOM      9  O   UNL     1       0.296   2.382  18.438  0.00  0.00    +0.000 OA
ATOM     10  N   UNL     1       0.803   3.398  17.799  0.00  0.00    +0.000 NA
ATOM     11  C   UNL     1       1.935   3.751  18.439  0.00  0.00    +0.000 A 
BRANCH   7  13
ATOM     12  C   UNL     1       4.455   2.153  20.125  0.00  0.00    +0.000 C 
ATOM     13  C   UNL     1       3.230   2.967  20.534  0.00  0.00    +0.000 C 
ENDBRANCH   7  13
ENDBRANCH   1  11
BRANCH   3  14
ATOM     14  C   UNL     1       5.633   6.407  16.439  0.00  0.00    +0.000 C 
BRANCH  14  15
ATOM     15  O   UNL     1       5.322   6.967  15.184  0.00  0.00    +0.000 OA
ATOM     16  H   UNL     1       5.159   6.230  14.540  0.00  0.00    +0.000 HD
ENDBRANCH  14  15
BRANCH  14  17
ATOM     17  C   UNL     1       6.624   5.218  16.318  0.00  0.00    +0.000 C 
BRANCH  17  18
ATOM     18  O   UNL     1       7.468   5.336  15.194  0.00  0.00    +0.000 OA
ATOM     19  H   UNL     1       7.409   6.261  14.849  0.00  0.00    +0.000 HD
ENDBRANCH  17  18
BRANCH  17  20
ATOM     20  C   UNL     1       7.432   4.983  17.625  0.00  0.00    +0.000 C 
BRANCH  20  21
ATOM     21  O   UNL     1       6.809   4.038  18.461  0.00  0.00    +0.000 OA
ATOM     22  H   UNL     1       7.252   3.162  18.322  0.00  0.00    +0.000 HD
ENDBRANCH  20  21
BRANCH  20  23
ATOM     23  C   UNL     1       7.709   6.289  18.398  0.00  0.00    +0.000 C 
BRANCH  23  24
ATOM     24  O   UNL     1       8.175   6.019  19.693  0.00  0.00    +0.000 OA
ATOM     25  H   UNL     1       8.801   5.252  19.617  0.00  0.00    +0.000 HD
ENDBRANCH  23  24
ENDBRANCH  20  23
ENDBRANCH  17  20
ENDBRANCH  14  17
ENDBRANCH   3  14
TORSDOF 10
ENDMDL
MODEL 7
REMARK VINA RESULT:      -6.8      2.402      6.316
REMARK  Name = 
REMARK  11 active torsions:
REMARK  status: ('A' for Active; 'I' for Inactive)
REMARK    1  A    between atoms: C_1  and  C_2
REMARK    2  A    between atoms: C_2  and  C_3
REMARK    3  A    between atoms: C_7  and  C_8
REMARK    4  A    between atoms: C_10  and  C_11
REMARK    5  A    between atoms: C_11  and  O_12
REMARK    6  A    between atoms: C_11  and  C_13
REMARK    7  A    between atoms: C_13  and  O_14
REMARK    8  A    between atoms: C_13  and  C_15
REMARK    9  A    between atoms: C_15  and  O_16
REMARK   10  A    between atoms: C_15  and  C_17
REMARK   11  A    between atoms: C_17  and  O_18
REMARK                            x       y       z     vdW  Elec       q    Type
REMARK                         _______ _______ _______ _____ _____    ______ ____
ROOT
ATOM      1  C   UNL     1       3.354   5.029  19.233  0.00  0.00    +0.000 A 
ATOM      2  N   UNL     1       4.703   5.085  19.193  0.00  0.00    +0.000 NA
ATOM      3  C   UNL     1       4.972   5.961  18.203  0.00  0.00    +0.000 A 
ATOM      4  C   UNL     1       3.791   6.429  17.670  0.00  0.00    +0.000 A 
ATOM      5  N   UNL     1       2.778   5.835  18.319  0.00  0.00    +0.000 N 
ATOM      6  H   UNL     1       1.758   5.979  18.152  0.00  0.00    +0.000 HD
ENDROOT
BRANCH   1  11
ATOM      7  C   UNL     1       1.677   3.210  19.894  0.00  0.00    +0.000 A 
ATOM      8  C   UNL     1       1.281   2.732  21.130  0.00  0.00    +0.000 A 
ATOM      9  O   UNL     1       1.925   3.411  22.053  0.00  0.00    +0.000 OA
ATOM     10  N   UNL     1       2.721   4.296  21.523  0.00  0.00    +0.000 NA
ATOM     11  C   UNL     1       2.590   4.206  20.186  0.00  0.00    +0.000 A 
BRANCH   7  13
ATOM     12  C   UNL     1       2.361   2.036  17.756  0.00  0.00    +0.000 C 
ATOM     13  C   UNL     1       1.251   2.745  18.525  0.00  0.00    +0.000 C 
ENDBRANCH   7  13
ENDBRANCH   1  11
BRANCH   3  14
ATOM     14  C   UNL     1       6.361   6.358  17.763  0.00  0.00    +0.000 C 
BRANCH  14  15
ATOM     15  O   UNL     1       6.311   7.220  16.650  0.00  0.00    +0.000 OA
ATOM     16  H   UNL     1       5.621   6.885  16.020  0.00  0.00    +0.000 HD
ENDBRANCH  14  15
BRANCH  14  17
ATOM     17  C   UNL     1       7.262   5.120  17.501  0.00  0.00    +0.000 C 
BRANCH  17  18
ATOM     18  O   UNL     1       7.067   4.103  18.458  0.00  0.00    +0.000 OA
ATOM     19  H   UNL     1       6.242   3.607  18.230  0.00  0.00    +0.000 HD
ENDBRANCH  17  18
BRANCH  17  20
ATOM     20  C   UNL     1       7.124   4.582  16.049  0.00  0.00    +0.000 C 
BRANCH  20  21
ATOM     21  O   UNL     1       7.514   5.542  15.097  0.00  0.00    +0.000 OA
ATOM     22  H   UNL     1       8.134   6.180  15.537  0.00  0.00    +0.000 HD
ENDBRANCH  20  21
BRANCH  20  23
ATOM     23  C   UNL     1       5.706   4.059  15.739  0.00  0.00    +0.000 C 
BRANCH  23  24
ATOM     24  O   UNL     1       5.321   3.071  16.657  0.00  0.00    +0.000 OA
ATOM     25  H   UNL     1       4.361   2.883  16.487  0.00  0.00    +0.000 HD
ENDBRANCH  23  24
ENDBRANCH  20  23
ENDBRANCH  17  20
ENDBRANCH  14  17
ENDBRANCH   3  14
TORSDOF 10
ENDMDL
MODEL 8
REMARK VINA RESULT:      -6.8      1.428      1.990
REMARK  Name = 
REMARK  11 active torsions:
REMARK  status: ('A' for Active; 'I' for Inactive)
REMARK    1  A    between atoms: C_1  and  C_2
REMARK    2  A    between atoms: C_2  and  C_3
REMARK    3  A    between atoms: C_7  and  C_8
REMARK    4  A    between atoms: C_10  and  C_11
REMARK    5  A    between atoms: C_11  and  O_12
REMARK    6  A    between atoms: C_11  and  C_13
REMARK    7  A    between atoms: C_13  and  O_14
REMARK    8  A    between atoms: C_13  and  C_15
REMARK    9  A    between atoms: C_15  and  O_16
REMARK   10  A    between atoms: C_15  and  C_17
REMARK   11  A    between atoms: C_17  and  O_18
REMARK                            x       y       z     vdW  Elec       q    Type
REMARK                         _______ _______ _______ _____ _____    ______ ____
ROOT
ATOM      1  C   UNL     1       6.129   5.367  15.332  0.00  0.00    +0.000 A 
ATOM      2  N   UNL     1       6.090   4.537  16.396  0.00  0.00    +0.000 NA
ATOM      3  C   UNL     1       5.359   5.203  17.314  0.00  0.00    +0.000 A 
ATOM      4  C   UNL     1       4.959   6.414  16.791  0.00  0.00    +0.000 A 
ATOM      5  N   UNL     1       5.452   6.513  15.547  0.00  0.00    +0.000 N 
ATOM      6  H   UNL     1       5.324   7.309  14.885  0.00  0.00    +0.000 HD
ENDROOT
BRANCH   1  11
ATOM      7  C   UNL     1       6.347   4.248  13.038  0.00  0.00    +0.000 A 
ATOM      8  C   UNL     1       7.336   4.314  12.075  0.00  0.00    +0.000 A 
ATOM      9  O   UNL     1       8.291   5.098  12.526  0.00  0.00    +0.000 OA
ATOM     10  N   UNL     1       8.004   5.561  13.709  0.00  0.00    +0.000 NA
ATOM     11  C   UNL     1       6.809   5.052  14.063  0.00  0.00    +0.000 A 
BRANCH   7  13
ATOM     12  C   UNL     1       4.561   3.208  11.572  0.00  0.00    +0.000 C 
ATOM     13  C   UNL     1       5.037   3.504  12.992  0.00  0.00    +0.000 C 
ENDBRANCH   7  13
ENDBRANCH   1  11
BRANCH   3  14
ATOM     14  C   UNL     1       5.037   4.684  18.695  0.00  0.00    +0.000 C 
BRANCH  14  15
ATOM     15  O   UNL     1       6.214   4.363  19.400  0.00  0.00    +0.000 OA
ATOM     16  H   UNL     1       6.027   3.590  19.994  0.00  0.00    +0.000 HD
ENDBRANCH  14  15
BRANCH  14  17
ATOM     17  C   UNL     1       4.041   3.494  18.650  0.00  0.00    +0.000 C 
BRANCH  17  18
ATOM     18  O   UNL     1       4.299   2.619  17.575  0.00  0.00    +0.000 OA
ATOM     19  H   UNL     1       4.346   3.147  16.740  0.00  0.00    +0.000 HD
ENDBRANCH  17  18
BRANCH  17  20
ATOM     20  C   UNL     1       3.959   2.737  20.005  0.00  0.00    +0.000 C 
BRANCH  20  21
ATOM     21  O   UNL     1       4.990   1.788  20.136  0.00  0.00    +0.000 OA
ATOM     22  H   UNL     1       5.752   2.080  19.572  0.00  0.00    +0.000 HD
ENDBRANCH  20  21
BRANCH  20  23
ATOM     23  C   UNL     1       2.585   2.077  20.237  0.00  0.00    +0.000 C 
BRANCH  23  24
ATOM     24  O   UNL     1       2.151   1.398  19.089  0.00  0.00    +0.000 OA
ATOM     25  H   UNL     1       2.120   0.434  19.323  0.00  0.00    +0.000 HD
ENDBRANCH  23  24
ENDBRANCH  20  23
ENDBRANCH  17  20
ENDBRANCH  14  17
ENDBRANCH   3  14
TORSDOF 10
ENDMDL
MODEL 9
REMARK VINA RESULT:      -6.7      1.545      2.043
REMARK  Name = 
REMARK  11 active torsions:
REMARK  status: ('A' for Active; 'I' for Inactive)
REMARK    1  A    between atoms: C_1  and  C_2
REMARK    2  A    between atoms: C_2  and  C_3
REMARK    3  A    between atoms: C_7  and  C_8
REMARK    4  A    between atoms: C_10  and  C_11
REMARK    5  A    between atoms: C_11  and  O_12
REMARK    6  A    between atoms: C_11  and  C_13
REMARK    7  A    between atoms: C_13  and  O_14
REMARK    8  A    between atoms: C_13  and  C_15
REMARK    9  A    between atoms: C_15  and  O_16
REMARK   10  A    between atoms: C_15  and  C_17
REMARK   11  A    between atoms: C_17  and  O_18
REMARK                            x       y       z     vdW  Elec       q    Type
REMARK                         _______ _______ _______ _____ _____    ______ ____
ROOT
ATOM      1  C   UNL     1       6.957   4.669  15.751  0.00  0.00    +0.000 A 
ATOM      2  N   UNL     1       5.706   4.546  16.244  0.00  0.00    +0.000 NA
ATOM      3  C   UNL     1       5.883   4.404  17.574  0.00  0.00    +0.000 A 
ATOM      4  C   UNL     1       7.228   4.455  17.866  0.00  0.00    +0.000 A 
ATOM      5  N   UNL     1       7.898   4.617  16.715  0.00  0.00    +0.000 N 
ATOM      6  H   UNL     1       8.932   4.696  16.598  0.00  0.00    +0.000 HD
ENDROOT
BRANCH   1  11
ATOM      7  C   UNL     1       6.600   4.337  13.237  0.00  0.00    +0.000 A 
ATOM      8  C   UNL     1       7.259   4.860  12.139  0.00  0.00    +0.000 A 
ATOM      9  O   UNL     1       8.228   5.633  12.577  0.00  0.00    +0.000 OA
ATOM     10  N   UNL     1       8.257   5.666  13.879  0.00  0.00    +0.000 NA
ATOM     11  C   UNL     1       7.266   4.870  14.324  0.00  0.00    +0.000 A 
BRANCH   7  13
ATOM     12  C   UNL     1       4.739   3.250  11.904  0.00  0.00    +0.000 C 
ATOM     13  C   UNL     1       5.405   3.419  13.267  0.00  0.00    +0.000 C 
ENDBRANCH   7  13
ENDBRANCH   1  11
BRANCH   3  14
ATOM     14  C   UNL     1       4.766   4.220  18.573  0.00  0.00    +0.000 C 
BRANCH  14  15
ATOM     15  O   UNL     1       4.901   2.997  19.261  0.00  0.00    +0.000 OA
ATOM     16  H   UNL     1       5.509   2.408  18.744  0.00  0.00    +0.000 HD
ENDBRANCH  14  15
BRANCH  14  17
ATOM     17  C   UNL     1       3.368   4.366  17.913  0.00  0.00    +0.000 C 
BRANCH  17  18
ATOM     18  O   UNL     1       3.093   3.326  17.001  0.00  0.00    +0.000 OA
ATOM     19  H   UNL     1       2.262   3.546  16.511  0.00  0.00    +0.000 HD
ENDBRANCH  17  18
BRANCH  17  20
ATOM     20  C   UNL     1       2.231   4.531  18.961  0.00  0.00    +0.000 C 
BRANCH  20  21
ATOM     21  O   UNL     1       2.739   4.821  20.241  0.00  0.00    +0.000 OA
ATOM     22  H   UNL     1       1.972   5.012  20.841  0.00  0.00    +0.000 HD
ENDBRANCH  20  21
BRANCH  20  23
ATOM     23  C   UNL     1       1.291   3.309  19.017  0.00  0.00    +0.000 C 
BRANCH  23  24
ATOM     24  O   UNL     1       0.459   3.365  20.145  0.00  0.00    +0.000 OA
ATOM     25  H   UNL     1       0.841   2.738  20.813  0.00  0.00    +0.000 HD
ENDBRANCH  23  24
ENDBRANCH  20  23
ENDBRANCH  17  20
ENDBRANCH  14  17
ENDBRANCH   3  14
TORSDOF 10
ENDMDL
