MODEL 1
REMARK VINA RESULT:      -7.8      0.000      0.000
REMARK  Name = 
REMARK  15 active torsions:
REMARK  status: ('A' for Active; 'I' for Inactive)
REMARK    1  A    between atoms: C_1  and  C_2
REMARK    2  A    between atoms: C_2  and  O_3
REMARK    3  A    between atoms: O_3  and  C_4
REMARK    4  A    between atoms: C_4  and  C_6
REMARK    5  A    between atoms: C_7  and  C_8
REMARK    6  A    between atoms: C_10  and  C_11
REMARK    7  A    between atoms: C_11  and  O_13
REMARK    8  A    between atoms: O_13  and  C_14
REMARK    9  A    between atoms: C_14  and  C_15
REMARK   10  A    between atoms: N_17  and  C_18
REMARK   11  A    between atoms: N_17  and  C_22
REMARK   12  A    between atoms: C_18  and  C_19
REMARK   13  A    between atoms: C_19  and  C_20
REMARK   14  A    between atoms: C_25  and  C_26
REMARK   15  A    between atoms: C_29  and  C_30
REMARK                            x       y       z     vdW  Elec       q    Type
REMARK                         _______ _______ _______ _____ _____    ______ ____
ROOT
ATOM      1  O   UNL     1       5.616   5.608  17.624  0.00  0.00    +0.000 OA
ENDROOT
BRANCH   1   2
ATOM      2  C   UNL     1       6.800   5.005  17.319  0.00  0.00    +0.000 C 
ATOM      3  O   UNL     1       7.639   4.665  18.152  0.00  0.00    +0.000 OA
BRANCH   2   8
ATOM      4  C   UNL     1       6.503   4.061  13.748  0.00  0.00    +0.000 A 
ATOM      5  C   UNL     1       7.467   5.063  13.749  0.00  0.00    +0.000 A 
ATOM      6  C   UNL     1       8.237   5.734  12.667  0.00  0.00    +0.000 C 
ATOM      7  N   UNL     1       7.664   5.448  15.049  0.00  0.00    +0.000 N 
ATOM      8  C   UNL     1       6.848   4.746  15.904  0.00  0.00    +0.000 A 
ATOM      9  C   UNL     1       6.110   3.862  15.124  0.00  0.00    +0.000 A 
ATOM     10  C   UNL     1       5.084   2.883  15.593  0.00  0.00    +0.000 C 
ATOM     11  H   UNL     1       8.302   6.171  15.358  0.00  0.00    +0.000 HD
BRANCH   4  12
ATOM     12  C   UNL     1       5.954   3.390  12.561  0.00  0.00    +0.000 C 
ATOM     13  O   UNL     1       6.619   2.695  11.803  0.00  0.00    +0.000 OA
BRANCH  12  14
ATOM     14  O   UNL     1       4.653   3.719  12.329  0.00  0.00    +0.000 OA
BRANCH  14  16
ATOM     15  C   UNL     1       3.419   4.009  10.300  0.00  0.00    +0.000 C 
ATOM     16  C   UNL     1       4.018   2.999  11.263  0.00  0.00    +0.000 C 
ENDBRANCH  14  16
ENDBRANCH  12  14
ENDBRANCH   4  12
ENDBRANCH   2   8
ENDBRANCH   1   2
BRANCH   1  17
ATOM     17  C   UNL     1       5.098   5.184  18.877  0.00  0.00    +0.000 C 
BRANCH  17  18
ATOM     18  C   UNL     1       3.948   4.119  18.839  0.00  0.00    +0.000 C 
ATOM     19  O   UNL     1       4.208   2.923  18.800  0.00  0.00    +0.000 OA
ATOM     20  N   UNL     1       2.614   4.621  18.860  0.00  0.00    +0.000 N 
BRANCH  20  21
ATOM     21  C   UNL     1       2.343   6.017  18.877  0.00  0.00    +0.000 A 
ATOM     22  C   UNL     1       2.320   6.725  17.673  0.00  0.00    +0.000 A 
ATOM     23  C   UNL     1       2.062   8.096  17.669  0.00  0.00    +0.000 A 
ATOM     24  C   UNL     1       1.809   8.770  18.858  0.00  0.00    +0.000 A 
ATOM     25  C   UNL     1       1.574  10.256  18.863  0.00  0.00    +0.000 C 
ATOM     26  C   UNL     1       1.793   8.056  20.064  0.00  0.00    +0.000 A 
ATOM     27  C   UNL     1       2.047   6.681  20.073  0.00  0.00    +0.000 A 
ENDBRANCH  20  21
BRANCH  20  28
ATOM     28  C   UNL     1       1.428   3.734  18.830  0.00  0.00    +0.000 C 
BRANCH  28  29
ATOM     29  C   UNL     1       0.771   3.503  20.197  0.00  0.00    +0.000 C 
BRANCH  29  30
ATOM     30  C   UNL     1       1.700   3.053  21.312  0.00  0.00    +0.000 C 
ATOM     31  N   UNL     1       2.471   2.679  22.238  0.00  0.00    +0.000 NA
ENDBRANCH  29  30
ENDBRANCH  28  29
ENDBRANCH  20  28
ENDBRANCH  17  18
ENDBRANCH   1  17
TORSDOF 11
ENDMDL
MODEL 2
REMARK VINA RESULT:      -7.4      3.095      8.123
REMARK  Name = 
REMARK  15 active torsions:
REMARK  status: ('A' for Active; 'I' for Inactive)
REMARK    1  A    between atoms: C_1  and  C_2
REMARK    2  A    between atoms: C_2  and  O_3
REMARK    3  A    between atoms: O_3  and  C_4
REMARK    4  A    between atoms: C_4  and  C_6
REMARK    5  A    between atoms: C_7  and  C_8
REMARK    6  A    between atoms: C_10  and  C_11
REMARK    7  A    between atoms: C_11  and  O_13
REMARK    8  A    between atoms: O_13  and  C_14
REMARK    9  A    between atoms: C_14  and  C_15
REMARK   10  A    between atoms: N_17  and  C_18
REMARK   11  A    between atoms: N_17  and  C_22
REMARK   12  A    between atoms: C_18  and  C_19
REMARK   13  A    between atoms: C_19  and  C_20
REMARK   14  A    between atoms: C_25  and  C_26
REMARK   15  A    between atoms: C_29  and  C_30
REMARK                            x       y       z     vdW  Elec       q    Type
REMARK                         _______ _______ _______ _____ _____    ______ ____
ROOT
ATOM      1  O   UNL     1       3.800   6.255  19.233  0.00  0.00    +0.000 OA
ENDROOT
BRANCH   1   2
ATOM      2  C   UNL     1       2.474   6.120  19.518  0.00  0.00    +0.000 C 
ATOM      3  O   UNL     1       1.867   5.050  19.502  0.00  0.00    +0.000 OA
BRANCH   2   8
ATOM      4  C   UNL     1       1.058   9.498  20.084  0.00  0.00    +0.000 A 
ATOM      5  C   UNL     1       1.059   8.919  21.349  0.00  0.00    +0.000 A 
ATOM      6  C   UNL     1       0.592   9.388  22.682  0.00  0.00    +0.000 C 
ATOM      7  N   UNL     1       1.604   7.668  21.234  0.00  0.00    +0.000 N 
ATOM      8  C   UNL     1       1.947   7.394  19.931  0.00  0.00    +0.000 A 
ATOM      9  C   UNL     1       1.625   8.521  19.183  0.00  0.00    +0.000 A 
ATOM     10  C   UNL     1       1.809   8.713  17.713  0.00  0.00    +0.000 C 
ATOM     11  H   UNL     1       1.724   7.005  21.991  0.00  0.00    +0.000 HD
BRANCH   4  12
ATOM     12  C   UNL     1       0.521  10.821  19.739  0.00  0.00    +0.000 C 
ATOM     13  O   UNL     1      -0.502  10.991  19.087  0.00  0.00    +0.000 OA
BRANCH  12  14
ATOM     14  O   UNL     1       1.345  11.836  20.120  0.00  0.00    +0.000 OA
BRANCH  14  16
ATOM     15  C   UNL     1       2.511  12.523  18.147  0.00  0.00    +0.000 C 
ATOM     16  C   UNL     1       1.468  12.912  19.180  0.00  0.00    +0.000 C 
ENDBRANCH  14  16
ENDBRANCH  12  14
ENDBRANCH   4  12
ENDBRANCH   2   8
ENDBRANCH   1   2
BRANCH   1  17
ATOM     17  C   UNL     1       4.522   5.046  19.426  0.00  0.00    +0.000 C 
BRANCH  17  18
ATOM     18  C   UNL     1       4.818   4.191  18.145  0.00  0.00    +0.000 C 
ATOM     19  O   UNL     1       4.182   3.170  17.917  0.00  0.00    +0.000 OA
ATOM     20  N   UNL     1       5.845   4.673  17.281  0.00  0.00    +0.000 N 
BRANCH  20  21
ATOM     21  C   UNL     1       6.586   5.847  17.587  0.00  0.00    +0.000 A 
ATOM     22  C   UNL     1       7.629   5.777  18.515  0.00  0.00    +0.000 A 
ATOM     23  C   UNL     1       8.364   6.919  18.833  0.00  0.00    +0.000 A 
ATOM     24  C   UNL     1       8.080   8.135  18.220  0.00  0.00    +0.000 A 
ATOM     25  C   UNL     1       8.841   9.378  18.593  0.00  0.00    +0.000 C 
ATOM     26  C   UNL     1       7.061   8.201  17.261  0.00  0.00    +0.000 A 
ATOM     27  C   UNL     1       6.323   7.058  16.936  0.00  0.00    +0.000 A 
ENDBRANCH  20  21
BRANCH  20  28
ATOM     28  C   UNL     1       6.233   3.971  16.036  0.00  0.00    +0.000 C 
BRANCH  28  29
ATOM     29  C   UNL     1       5.502   4.458  14.778  0.00  0.00    +0.000 C 
BRANCH  29  30
ATOM     30  C   UNL     1       6.032   3.930  13.455  0.00  0.00    +0.000 C 
ATOM     31  N   UNL     1       6.472   3.491  12.357  0.00  0.00    +0.000 NA
ENDBRANCH  29  30
ENDBRANCH  28  29
ENDBRANCH  20  28
ENDBRANCH  17  18
ENDBRANCH   1  17
TORSDOF 11
ENDMDL
MODEL 3
REMARK VINA RESULT:      -7.2      3.054      7.960
REMARK  Name = 
REMARK  15 active torsions:
REMARK  status: ('A' for Active; 'I' for Inactive)
REMARK    1  A    between atoms: C_1  and  C_2
REMARK    2  A    between atoms: C_2  and  O_3
REMARK    3  A    between atoms: O_3  and  C_4
REMARK    4  A    between atoms: C_4  and  C_6
REMARK    5  A    between atoms: C_7  and  C_8
REMARK    6  A    between atoms: C_10  and  C_11
REMARK    7  A    between atoms: C_11  and  O_13
REMARK    8  A    between atoms: O_13  and  C_14
REMARK    9  A    between atoms: C_14  and  C_15
REMARK   10  A    between atoms: N_17  and  C_18
REMARK   11  A    between atoms: N_17  and  C_22
REMARK   12  A    between atoms: C_18  and  C_19
REMARK   13  A    between atoms: C_19  and  C_20
REMARK   14  A    between atoms: C_25  and  C_26
REMARK   15  A    between atoms: C_29  and  C_30
REMARK                            x       y       z     vdW  Elec       q    Type
REMARK                         _______ _______ _______ _____ _____    ______ ____
ROOT
ATOM      1  O   UNL     1       3.577   6.000  19.416  0.00  0.00    +0.000 OA
ENDROOT
BRANCH   1   2
ATOM      2  C   UNL     1       2.326   5.947  19.957  0.00  0.00    +0.000 C 
ATOM      3  O   UNL     1       1.753   4.906  20.276  0.00  0.00    +0.000 OA
BRANCH   2   8
ATOM      4  C   UNL     1       1.098   9.443  20.025  0.00  0.00    +0.000 A 
ATOM      5  C   UNL     1       0.933   9.005  21.335  0.00  0.00    +0.000 A 
ATOM      6  C   UNL     1       0.370   9.642  22.556  0.00  0.00    +0.000 C 
ATOM      7  N   UNL     1       1.400   7.719  21.405  0.00  0.00    +0.000 N 
ATOM      8  C   UNL     1       1.850   7.287  20.180  0.00  0.00    +0.000 A 
ATOM      9  C   UNL     1       1.683   8.343  19.292  0.00  0.00    +0.000 A 
ATOM     10  C   UNL     1       2.024   8.364  17.838  0.00  0.00    +0.000 C 
ATOM     11  H   UNL     1       1.398   7.136  22.234  0.00  0.00    +0.000 HD
BRANCH   4  12
ATOM     12  C   UNL     1       0.691  10.750  19.492  0.00  0.00    +0.000 C 
ATOM     13  O   UNL     1       1.480  11.628  19.166  0.00  0.00    +0.000 OA
BRANCH  12  14
ATOM     14  O   UNL     1      -0.660  10.925  19.510  0.00  0.00    +0.000 OA
BRANCH  14  16
ATOM     15  C   UNL     1      -1.553  10.029  17.479  0.00  0.00    +0.000 C 
ATOM     16  C   UNL     1      -1.247  11.298  18.256  0.00  0.00    +0.000 C 
ENDBRANCH  14  16
ENDBRANCH  12  14
ENDBRANCH   4  12
ENDBRANCH   2   8
ENDBRANCH   1   2
BRANCH   1  17
ATOM     17  C   UNL     1       4.277   4.771  19.545  0.00  0.00    +0.000 C 
BRANCH  17  18
ATOM     18  C   UNL     1       4.424   3.904  18.247  0.00  0.00    +0.000 C 
ATOM     19  O   UNL     1       3.757   2.887  18.097  0.00  0.00    +0.000 OA
ATOM     20  N   UNL     1       5.356   4.370  17.273  0.00  0.00    +0.000 N 
BRANCH  20  21
ATOM     21  C   UNL     1       6.136   5.538  17.487  0.00  0.00    +0.000 A 
ATOM     22  C   UNL     1       7.272   5.465  18.296  0.00  0.00    +0.000 A 
ATOM     23  C   UNL     1       8.048   6.601  18.524  0.00  0.00    +0.000 A 
ATOM     24  C   UNL     1       7.710   7.816  17.936  0.00  0.00    +0.000 A 
ATOM     25  C   UNL     1       8.518   9.054  18.214  0.00  0.00    +0.000 C 
ATOM     26  C   UNL     1       6.593   7.885  17.093  0.00  0.00    +0.000 A 
ATOM     27  C   UNL     1       5.814   6.747  16.859  0.00  0.00    +0.000 A 
ENDBRANCH  20  21
BRANCH  20  28
ATOM     28  C   UNL     1       5.599   3.655  15.999  0.00  0.00    +0.000 C 
BRANCH  28  29
ATOM     29  C   UNL     1       6.627   4.328  15.079  0.00  0.00    +0.000 C 
BRANCH  29  30
ATOM     30  C   UNL     1       6.521   3.987  13.602  0.00  0.00    +0.000 C 
ATOM     31  N   UNL     1       6.433   3.705  12.376  0.00  0.00    +0.000 NA
ENDBRANCH  29  30
ENDBRANCH  28  29
ENDBRANCH  20  28
ENDBRANCH  17  18
ENDBRANCH   1  17
TORSDOF 11
ENDMDL
MODEL 4
REMARK VINA RESULT:      -7.1      3.069      7.937
REMARK  Name = 
REMARK  15 active torsions:
REMARK  status: ('A' for Active; 'I' for Inactive)
REMARK    1  A    between atoms: C_1  and  C_2
REMARK    2  A    between atoms: C_2  and  O_3
REMARK    3  A    between atoms: O_3  and  C_4
REMARK    4  A    between atoms: C_4  and  C_6
REMARK    5  A    between atoms: C_7  and  C_8
REMARK    6  A    between atoms: C_10  and  C_11
REMARK    7  A    between atoms: C_11  and  O_13
REMARK    8  A    between atoms: O_13  and  C_14
REMARK    9  A    between atoms: C_14  and  C_15
REMARK   10  A    between atoms: N_17  and  C_18
REMARK   11  A    between atoms: N_17  and  C_22
REMARK   12  A    between atoms: C_18  and  C_19
REMARK   13  A    between atoms: C_19  and  C_20
REMARK   14  A    between atoms: C_25  and  C_26
REMARK   15  A    between atoms: C_29  and  C_30
REMARK                            x       y       z     vdW  Elec       q    Type
REMARK                         _______ _______ _______ _____ _____    ______ ____
ROOT
ATOM      1  O   UNL     1       3.310   5.859  18.921  0.00  0.00    +0.000 OA
ENDROOT
BRANCH   1   2
ATOM      2  C   UNL     1       2.386   5.871  19.923  0.00  0.00    +0.000 C 
ATOM      3  O   UNL     1       2.074   4.885  20.590  0.00  0.00    +0.000 OA
BRANCH   2   8
ATOM      4  C   UNL     1       1.233   9.393  19.950  0.00  0.00    +0.000 A 
ATOM      5  C   UNL     1       1.002   8.955  21.251  0.00  0.00    +0.000 A 
ATOM      6  C   UNL     1       0.400   9.601  22.448  0.00  0.00    +0.000 C 
ATOM      7  N   UNL     1       1.436   7.660  21.336  0.00  0.00    +0.000 N 
ATOM      8  C   UNL     1       1.930   7.221  20.131  0.00  0.00    +0.000 A 
ATOM      9  C   UNL     1       1.825   8.283  19.240  0.00  0.00    +0.000 A 
ATOM     10  C   UNL     1       2.229   8.299  17.802  0.00  0.00    +0.000 C 
ATOM     11  H   UNL     1       1.386   7.075  22.162  0.00  0.00    +0.000 HD
BRANCH   4  12
ATOM     12  C   UNL     1       0.878  10.710  19.405  0.00  0.00    +0.000 C 
ATOM     13  O   UNL     1       1.263  11.770  19.882  0.00  0.00    +0.000 OA
BRANCH  12  14
ATOM     14  O   UNL     1      -0.019  10.629  18.384  0.00  0.00    +0.000 OA
BRANCH  14  16
ATOM     15  C   UNL     1      -2.287  10.655  17.622  0.00  0.00    +0.000 C 
ATOM     16  C   UNL     1      -1.359  10.293  18.769  0.00  0.00    +0.000 C 
ENDBRANCH  14  16
ENDBRANCH  12  14
ENDBRANCH   4  12
ENDBRANCH   2   8
ENDBRANCH   1   2
BRANCH   1  17
ATOM     17  C   UNL     1       4.276   4.830  19.085  0.00  0.00    +0.000 C 
BRANCH  17  18
ATOM     18  C   UNL     1       4.646   4.003  17.805  0.00  0.00    +0.000 C 
ATOM     19  O   UNL     1       4.020   2.991  17.514  0.00  0.00    +0.000 OA
ATOM     20  N   UNL     1       5.728   4.497  17.019  0.00  0.00    +0.000 N 
BRANCH  20  21
ATOM     21  C   UNL     1       6.454   5.658  17.397  0.00  0.00    +0.000 A 
ATOM     22  C   UNL     1       6.101   6.896  16.853  0.00  0.00    +0.000 A 
ATOM     23  C   UNL     1       6.805   8.046  17.207  0.00  0.00    +0.000 A 
ATOM     24  C   UNL     1       7.854   7.980  18.118  0.00  0.00    +0.000 A 
ATOM     25  C   UNL     1       8.645   9.211  18.469  0.00  0.00    +0.000 C 
ATOM     26  C   UNL     1       8.187   6.747  18.696  0.00  0.00    +0.000 A 
ATOM     27  C   UNL     1       7.482   5.591  18.346  0.00  0.00    +0.000 A 
ENDBRANCH  20  21
BRANCH  20  28
ATOM     28  C   UNL     1       6.189   3.821  15.784  0.00  0.00    +0.000 C 
BRANCH  28  29
ATOM     29  C   UNL     1       5.514   4.315  14.498  0.00  0.00    +0.000 C 
BRANCH  29  30
ATOM     30  C   UNL     1       6.051   3.735  13.201  0.00  0.00    +0.000 C 
ATOM     31  N   UNL     1       6.496   3.254  12.123  0.00  0.00    +0.000 NA
ENDBRANCH  29  30
ENDBRANCH  28  29
ENDBRANCH  20  28
ENDBRANCH  17  18
ENDBRANCH   1  17
TORSDOF 11
ENDMDL
MODEL 5
REMARK VINA RESULT:      -7.0      2.906      7.888
REMARK  Name = 
REMARK  15 active torsions:
REMARK  status: ('A' for Active; 'I' for Inactive)
REMARK    1  A    between atoms: C_1  and  C_2
REMARK    2  A    between atoms: C_2  and  O_3
REMARK    3  A    between atoms: O_3  and  C_4
REMARK    4  A    between atoms: C_4  and  C_6
REMARK    5  A    between atoms: C_7  and  C_8
REMARK    6  A    between atoms: C_10  and  C_11
REMARK    7  A    between atoms: C_11  and  O_13
REMARK    8  A    between atoms: O_13  and  C_14
REMARK    9  A    between atoms: C_14  and  C_15
REMARK   10  A    between atoms: N_17  and  C_18
REMARK   11  A    between atoms: N_17  and  C_22
REMARK   12  A    between atoms: C_18  and  C_19
REMARK   13  A    between atoms: C_19  and  C_20
REMARK   14  A    between atoms: C_25  and  C_26
REMARK   15  A    between atoms: C_29  and  C_30
REMARK                            x       y       z     vdW  Elec       q    Type
REMARK                         _______ _______ _______ _____ _____    ______ ____
ROOT
ATOM      1  O   UNL     1       3.893   5.787  19.675  0.00  0.00    +0.000 OA
ENDROOT
BRANCH   1   2
ATOM      2  C   UNL     1       2.547   5.712  19.878  0.00  0.00    +0.000 C 
ATOM      3  O   UNL     1       1.917   4.658  19.966  0.00  0.00    +0.000 OA
BRANCH   2   8
ATOM      4  C   UNL     1       1.205   9.167  19.871  0.00  0.00    +0.000 A 
ATOM      5  C   UNL     1       1.024   8.740  21.183  0.00  0.00    +0.000 A 
ATOM      6  C   UNL     1       0.412   9.374  22.382  0.00  0.00    +0.000 C 
ATOM      7  N   UNL     1       1.530   7.471  21.281  0.00  0.00    +0.000 N 
ATOM      8  C   UNL     1       2.023   7.039  20.073  0.00  0.00    +0.000 A 
ATOM      9  C   UNL     1       1.842   8.078  19.167  0.00  0.00    +0.000 A 
ATOM     10  C   UNL     1       2.217   8.091  17.721  0.00  0.00    +0.000 C 
ATOM     11  H   UNL     1       1.527   6.899  22.117  0.00  0.00    +0.000 HD
BRANCH   4  12
ATOM     12  C   UNL     1       0.769  10.453  19.312  0.00  0.00    +0.000 C 
ATOM     13  O   UNL     1      -0.104  10.563  18.460  0.00  0.00    +0.000 OA
BRANCH  12  14
ATOM     14  O   UNL     1       1.520  11.499  19.755  0.00  0.00    +0.000 OA
BRANCH  14  16
ATOM     15  C   UNL     1       2.659  12.776  18.084  0.00  0.00    +0.000 C 
ATOM     16  C   UNL     1       1.429  12.696  18.972  0.00  0.00    +0.000 C 
ENDBRANCH  14  16
ENDBRANCH  12  14
ENDBRANCH   4  12
ENDBRANCH   2   8
ENDBRANCH   1   2
BRANCH   1  17
ATOM     17  C   UNL     1       4.489   4.509  19.507  0.00  0.00    +0.000 C 
BRANCH  17  18
ATOM     18  C   UNL     1       4.417   3.882  18.071  0.00  0.00    +0.000 C 
ATOM     19  O   UNL     1       3.717   2.900  17.854  0.00  0.00    +0.000 OA
ATOM     20  N   UNL     1       5.195   4.517  17.059  0.00  0.00    +0.000 N 
BRANCH  20  21
ATOM     21  C   UNL     1       6.021   5.637  17.348  0.00  0.00    +0.000 A 
ATOM     22  C   UNL     1       5.648   6.901  16.884  0.00  0.00    +0.000 A 
ATOM     23  C   UNL     1       6.447   8.013  17.152  0.00  0.00    +0.000 A 
ATOM     24  C   UNL     1       7.614   7.880  17.897  0.00  0.00    +0.000 A 
ATOM     25  C   UNL     1       8.502   9.067  18.151  0.00  0.00    +0.000 C 
ATOM     26  C   UNL     1       7.972   6.620  18.398  0.00  0.00    +0.000 A 
ATOM     27  C   UNL     1       7.172   5.504  18.134  0.00  0.00    +0.000 A 
ENDBRANCH  20  21
BRANCH  20  28
ATOM     28  C   UNL     1       5.226   4.037  15.659  0.00  0.00    +0.000 C 
BRANCH  28  29
ATOM     29  C   UNL     1       6.548   4.297  14.926  0.00  0.00    +0.000 C 
BRANCH  29  30
ATOM     30  C   UNL     1       6.567   3.953  13.446  0.00  0.00    +0.000 C 
ATOM     31  N   UNL     1       6.582   3.668  12.217  0.00  0.00    +0.000 NA
ENDBRANCH  29  30
ENDBRANCH  28  29
ENDBRANCH  20  28
ENDBRANCH  17  18
ENDBRANCH   1  17
TORSDOF 11
ENDMDL
MODEL 6
REMARK VINA RESULT:      -6.8      1.163      1.783
REMARK  Name = 
REMARK  15 active torsions:
REMARK  status: ('A' for Active; 'I' for Inactive)
REMARK    1  A    between atoms: C_1  and  C_2
REMARK    2  A    between atoms: C_2  and  O_3
REMARK    3  A    between atoms: O_3  and  C_4
REMARK    4  A    between atoms: C_4  and  C_6
REMARK    5  A    between atoms: C_7  and  C_8
REMARK    6  A    between atoms: C_10  and  C_11
REMARK    7  A    between atoms: C_11  and  O_13
REMARK    8  A    between atoms: O_13  and  C_14
REMARK    9  A    between atoms: C_14  and  C_15
REMARK   10  A    between atoms: N_17  and  C_18
REMARK   11  A    between atoms: N_17  and  C_22
REMARK   12  A    between atoms: C_18  and  C_19
REMARK   13  A    between atoms: C_19  and  C_20
REMARK   14  A    between atoms: C_25  and  C_26
REMARK   15  A    between atoms: C_29  and  C_30
REMARK                            x       y       z     vdW  Elec       q    Type
REMARK                         _______ _______ _______ _____ _____    ______ ____
ROOT
ATOM      1  O   UNL     1       5.487   5.605  17.290  0.00  0.00    +0.000 OA
ENDROOT
BRANCH   1   2
ATOM      2  C   UNL     1       6.760   5.308  16.903  0.00  0.00    +0.000 C 
ATOM      3  O   UNL     1       7.730   5.302  17.660  0.00  0.00    +0.000 OA
BRANCH   2   8
ATOM      4  C   UNL     1       6.322   4.020  13.456  0.00  0.00    +0.000 A 
ATOM      5  C   UNL     1       7.294   5.007  13.324  0.00  0.00    +0.000 A 
ATOM      6  C   UNL     1       8.029   5.559  12.153  0.00  0.00    +0.000 C 
ATOM      7  N   UNL     1       7.542   5.515  14.571  0.00  0.00    +0.000 N 
ATOM      8  C   UNL     1       6.753   4.910  15.520  0.00  0.00    +0.000 A 
ATOM      9  C   UNL     1       5.980   3.963  14.858  0.00  0.00    +0.000 A 
ATOM     10  C   UNL     1       4.964   3.047  15.459  0.00  0.00    +0.000 C 
ATOM     11  H   UNL     1       8.198   6.258  14.784  0.00  0.00    +0.000 HD
BRANCH   4  12
ATOM     12  C   UNL     1       5.724   3.243  12.362  0.00  0.00    +0.000 C 
ATOM     13  O   UNL     1       4.618   3.473  11.890  0.00  0.00    +0.000 OA
BRANCH  12  14
ATOM     14  O   UNL     1       6.481   2.168  12.009  0.00  0.00    +0.000 OA
BRANCH  14  16
ATOM     15  C   UNL     1       6.274  -0.134  11.391  0.00  0.00    +0.000 C 
ATOM     16  C   UNL     1       5.890   1.293  11.039  0.00  0.00    +0.000 C 
ENDBRANCH  14  16
ENDBRANCH  12  14
ENDBRANCH   4  12
ENDBRANCH   2   8
ENDBRANCH   1   2
BRANCH   1  17
ATOM     17  C   UNL     1       5.379   5.809  18.692  0.00  0.00    +0.000 C 
BRANCH  17  18
ATOM     18  C   UNL     1       4.561   4.742  19.498  0.00  0.00    +0.000 C 
ATOM     19  O   UNL     1       5.048   3.647  19.755  0.00  0.00    +0.000 OA
ATOM     20  N   UNL     1       3.250   5.121  19.909  0.00  0.00    +0.000 N 
BRANCH  20  21
ATOM     21  C   UNL     1       2.701   6.388  19.571  0.00  0.00    +0.000 A 
ATOM     22  C   UNL     1       2.721   6.811  18.240  0.00  0.00    +0.000 A 
ATOM     23  C   UNL     1       2.193   8.053  17.889  0.00  0.00    +0.000 A 
ATOM     24  C   UNL     1       1.626   8.878  18.855  0.00  0.00    +0.000 A 
ATOM     25  C   UNL     1       1.095  10.237  18.488  0.00  0.00    +0.000 C 
ATOM     26  C   UNL     1       1.569   8.441  20.185  0.00  0.00    +0.000 A 
ATOM     27  C   UNL     1       2.094   7.195  20.542  0.00  0.00    +0.000 A 
ENDBRANCH  20  21
BRANCH  20  28
ATOM     28  C   UNL     1       2.362   4.218  20.677  0.00  0.00    +0.000 C 
BRANCH  28  29
ATOM     29  C   UNL     1       1.398   3.391  19.816  0.00  0.00    +0.000 C 
BRANCH  29  30
ATOM     30  C   UNL     1       1.676   3.389  18.322  0.00  0.00    +0.000 C 
ATOM     31  N   UNL     1       1.906   3.388  17.082  0.00  0.00    +0.000 NA
ENDBRANCH  29  30
ENDBRANCH  28  29
ENDBRANCH  20  28
ENDBRANCH  17  18
ENDBRANCH   1  17
TORSDOF 11
ENDMDL
MODEL 7
REMARK VINA RESULT:      -6.7      3.316      8.194
REMARK  Name = 
REMARK  15 active torsions:
REMARK  status: ('A' for Active; 'I' for Inactive)
REMARK    1  A    between atoms: C_1  and  C_2
REMARK    2  A    between atoms: C_2  and  O_3
REMARK    3  A    between atoms: O_3  and  C_4
REMARK    4  A    between atoms: C_4  and  C_6
REMARK    5  A    between atoms: C_7  and  C_8
REMARK    6  A    between atoms: C_10  and  C_11
REMARK    7  A    between atoms: C_11  and  O_13
REMARK    8  A    between atoms: O_13  and  C_14
REMARK    9  A    between atoms: C_14  and  C_15
REMARK   10  A    between atoms: N_17  and  C_18
REMARK   11  A    between atoms: N_17  and  C_22
REMARK   12  A    between atoms: C_18  and  C_19
REMARK   13  A    between atoms: C_19  and  C_20
REMARK   14  A    between atoms: C_25  and  C_26
REMARK   15  A    between atoms: C_29  and  C_30
REMARK                            x       y       z     vdW  Elec       q    Type
REMARK                         _______ _______ _______ _____ _____    ______ ____
ROOT
ATOM      1  O   UNL     1       3.531   7.196  18.795  0.00  0.00    +0.000 OA
ENDROOT
BRANCH   1   2
ATOM      2  C   UNL     1       2.380   6.830  19.428  0.00  0.00    +0.000 C 
ATOM      3  O   UNL     1       1.991   5.668  19.540  0.00  0.00    +0.000 OA
BRANCH   2   8
ATOM      4  C   UNL     1       0.733   9.983  20.465  0.00  0.00    +0.000 A 
ATOM      5  C   UNL     1       0.817   9.247  21.642  0.00  0.00    +0.000 A 
ATOM      6  C   UNL     1       0.357   9.501  23.035  0.00  0.00    +0.000 C 
ATOM      7  N   UNL     1       1.450   8.069  21.351  0.00  0.00    +0.000 N 
ATOM      8  C   UNL     1       1.772   7.994  20.017  0.00  0.00    +0.000 A 
ATOM      9  C   UNL     1       1.343   9.180  19.431  0.00  0.00    +0.000 A 
ATOM     10  C   UNL     1       1.466   9.575  17.995  0.00  0.00    +0.000 C 
ATOM     11  H   UNL     1       1.643   7.324  22.011  0.00  0.00    +0.000 HD
BRANCH   4  12
ATOM     12  C   UNL     1       0.088  11.294  20.309  0.00  0.00    +0.000 C 
ATOM     13  O   UNL     1       0.674  12.361  20.443  0.00  0.00    +0.000 OA
BRANCH  12  14
ATOM     14  O   UNL     1      -1.256  11.196  20.114  0.00  0.00    +0.000 OA
BRANCH  14  16
ATOM     15  C   UNL     1      -2.115  10.347  18.049  0.00  0.00    +0.000 C 
ATOM     16  C   UNL     1      -1.720  11.596  18.817  0.00  0.00    +0.000 C 
ENDBRANCH  14  16
ENDBRANCH  12  14
ENDBRANCH   4  12
ENDBRANCH   2   8
ENDBRANCH   1   2
BRANCH   1  17
ATOM     17  C   UNL     1       3.566   6.768  17.441  0.00  0.00    +0.000 C 
BRANCH  17  18
ATOM     18  C   UNL     1       4.946   6.254  16.901  0.00  0.00    +0.000 C 
ATOM     19  O   UNL     1       5.715   7.018  16.332  0.00  0.00    +0.000 OA
ATOM     20  N   UNL     1       5.241   4.876  17.118  0.00  0.00    +0.000 N 
BRANCH  20  21
ATOM     21  C   UNL     1       4.315   4.008  17.757  0.00  0.00    +0.000 A 
ATOM     22  C   UNL     1       3.220   3.524  17.038  0.00  0.00    +0.000 A 
ATOM     23  C   UNL     1       2.297   2.675  17.649  0.00  0.00    +0.000 A 
ATOM     24  C   UNL     1       2.464   2.287  18.974  0.00  0.00    +0.000 A 
ATOM     25  C   UNL     1       1.448   1.408  19.650  0.00  0.00    +0.000 C 
ATOM     26  C   UNL     1       3.582   2.739  19.688  0.00  0.00    +0.000 A 
ATOM     27  C   UNL     1       4.512   3.588  19.079  0.00  0.00    +0.000 A 
ENDBRANCH  20  21
BRANCH  20  28
ATOM     28  C   UNL     1       6.505   4.252  16.664  0.00  0.00    +0.000 C 
BRANCH  28  29
ATOM     29  C   UNL     1       7.767   4.809  17.337  0.00  0.00    +0.000 C 
BRANCH  29  30
ATOM     30  C   UNL     1       7.637   5.152  18.811  0.00  0.00    +0.000 C 
ATOM     31  N   UNL     1       7.530   5.438  20.035  0.00  0.00    +0.000 NA
ENDBRANCH  29  30
ENDBRANCH  28  29
ENDBRANCH  20  28
ENDBRANCH  17  18
ENDBRANCH   1  17
TORSDOF 11
ENDMDL
MODEL 8
REMARK VINA RESULT:      -6.7      4.220      8.868
REMARK  Name = 
REMARK  15 active torsions:
REMARK  status: ('A' for Active; 'I' for Inactive)
REMARK    1  A    between atoms: C_1  and  C_2
REMARK    2  A    between atoms: C_2  and  O_3
REMARK    3  A    between atoms: O_3  and  C_4
REMARK    4  A    between atoms: C_4  and  C_6
REMARK    5  A    between atoms: C_7  and  C_8
REMARK    6  A    between atoms: C_10  and  C_11
REMARK    7  A    between atoms: C_11  and  O_13
REMARK    8  A    between atoms: O_13  and  C_14
REMARK    9  A    between atoms: C_14  and  C_15
REMARK   10  A    between atoms: N_17  and  C_18
REMARK   11  A    between atoms: N_17  and  C_22
REMARK   12  A    between atoms: C_18  and  C_19
REMARK   13  A    between atoms: C_19  and  C_20
REMARK   14  A    between atoms: C_25  and  C_26
REMARK   15  A    between atoms: C_29  and  C_30
REMARK                            x       y       z     vdW  Elec       q    Type
REMARK                         _______ _______ _______ _____ _____    ______ ____
ROOT
ATOM      1  O   UNL     1       1.674   8.211  19.479  0.00  0.00    +0.000 OA
ENDROOT
BRANCH   1   2
ATOM      2  C   UNL     1       1.626   9.043  18.400  0.00  0.00    +0.000 C 
ATOM      3  O   UNL     1       2.382   8.965  17.431  0.00  0.00    +0.000 OA
BRANCH   2   8
ATOM      4  C   UNL     1      -0.980  11.583  19.098  0.00  0.00    +0.000 A 
ATOM      5  C   UNL     1      -1.447  10.927  17.963  0.00  0.00    +0.000 A 
ATOM      6  C   UNL     1      -2.645  11.118  17.101  0.00  0.00    +0.000 C 
ATOM      7  N   UNL     1      -0.550   9.940  17.655  0.00  0.00    +0.000 N 
ATOM      8  C   UNL     1       0.504   9.933  18.538  0.00  0.00    +0.000 A 
ATOM      9  C   UNL     1       0.265  10.945  19.460  0.00  0.00    +0.000 A 
ATOM     10  C   UNL     1       1.126  11.334  20.618  0.00  0.00    +0.000 C 
ATOM     11  H   UNL     1      -0.621   9.304  16.869  0.00  0.00    +0.000 HD
BRANCH   4  12
ATOM     12  C   UNL     1      -1.610  12.739  19.751  0.00  0.00    +0.000 C 
ATOM     13  O   UNL     1      -1.232  13.894  19.600  0.00  0.00    +0.000 OA
BRANCH  12  14
ATOM     14  O   UNL     1      -2.583  12.377  20.631  0.00  0.00    +0.000 OA
BRANCH  14  16
ATOM     15  C   UNL     1      -4.735  12.724  21.617  0.00  0.00    +0.000 C 
ATOM     16  C   UNL     1      -3.877  12.942  20.383  0.00  0.00    +0.000 C 
ENDBRANCH  14  16
ENDBRANCH  12  14
ENDBRANCH   4  12
ENDBRANCH   2   8
ENDBRANCH   1   2
BRANCH   1  17
ATOM     17  C   UNL     1       2.523   7.092  19.265  0.00  0.00    +0.000 C 
BRANCH  17  18
ATOM     18  C   UNL     1       2.275   5.837  20.172  0.00  0.00    +0.000 C 
ATOM     19  O   UNL     1       1.435   5.868  21.062  0.00  0.00    +0.000 OA
ATOM     20  N   UNL     1       3.067   4.684  19.894  0.00  0.00    +0.000 N 
BRANCH  20  21
ATOM     21  C   UNL     1       4.055   4.688  18.872  0.00  0.00    +0.000 A 
ATOM     22  C   UNL     1       3.723   4.228  17.596  0.00  0.00    +0.000 A 
ATOM     23  C   UNL     1       4.679   4.218  16.581  0.00  0.00    +0.000 A 
ATOM     24  C   UNL     1       5.968   4.681  16.821  0.00  0.00    +0.000 A 
ATOM     25  C   UNL     1       7.015   4.631  15.742  0.00  0.00    +0.000 C 
ATOM     26  C   UNL     1       6.295   5.179  18.089  0.00  0.00    +0.000 A 
ATOM     27  C   UNL     1       5.338   5.194  19.110  0.00  0.00    +0.000 A 
ENDBRANCH  20  21
BRANCH  20  28
ATOM     28  C   UNL     1       2.942   3.427  20.667  0.00  0.00    +0.000 C 
BRANCH  28  29
ATOM     29  C   UNL     1       1.509   2.891  20.781  0.00  0.00    +0.000 C 
BRANCH  29  30
ATOM     30  C   UNL     1       0.816   2.561  19.470  0.00  0.00    +0.000 C 
ATOM     31  N   UNL     1       0.241   2.286  18.382  0.00  0.00    +0.000 NA
ENDBRANCH  29  30
ENDBRANCH  28  29
ENDBRANCH  20  28
ENDBRANCH  17  18
ENDBRANCH   1  17
TORSDOF 11
ENDMDL
MODEL 9
REMARK VINA RESULT:      -6.6      4.477      7.490
REMARK  Name = 
REMARK  15 active torsions:
REMARK  status: ('A' for Active; 'I' for Inactive)
REMARK    1  A    between atoms: C_1  and  C_2
REMARK    2  A    between atoms: C_2  and  O_3
REMARK    3  A    between atoms: O_3  and  C_4
REMARK    4  A    between atoms: C_4  and  C_6
REMARK    5  A    between atoms: C_7  and  C_8
REMARK    6  A    between atoms: C_10  and  C_11
REMARK    7  A    between atoms: C_11  and  O_13
REMARK    8  A    between atoms: O_13  and  C_14
REMARK    9  A    between atoms: C_14  and  C_15
REMARK   10  A    between atoms: N_17  and  C_18
REMARK   11  A    between atoms: N_17  and  C_22
REMARK   12  A    between atoms: C_18  and  C_19
REMARK   13  A    between atoms: C_19  and  C_20
REMARK   14  A    between atoms: C_25  and  C_26
REMARK   15  A    between atoms: C_29  and  C_30
REMARK                            x       y       z     vdW  Elec       q    Type
REMARK                         _______ _______ _______ _____ _____    ______ ____
ROOT
ATOM      1  O   UNL     1       1.379   8.926  19.481  0.00  0.00    +0.000 OA
ENDROOT
BRANCH   1   2
ATOM      2  C   UNL     1       2.042   8.345  18.441  0.00  0.00    +0.000 C 
ATOM      3  O   UNL     1       2.229   8.884  17.351  0.00  0.00    +0.000 OA
BRANCH   2   8
ATOM      4  C   UNL     1       3.785   5.173  19.237  0.00  0.00    +0.000 A 
ATOM      5  C   UNL     1       2.743   5.222  20.158  0.00  0.00    +0.000 A 
ATOM      6  C   UNL     1       2.332   4.331  21.276  0.00  0.00    +0.000 C 
ATOM      7  N   UNL     1       2.021   6.358  19.908  0.00  0.00    +0.000 N 
ATOM      8  C   UNL     1       2.563   7.071  18.864  0.00  0.00    +0.000 A 
ATOM      9  C   UNL     1       3.667   6.355  18.415  0.00  0.00    +0.000 A 
ATOM     10  C   UNL     1       4.587   6.721  17.297  0.00  0.00    +0.000 C 
ATOM     11  H   UNL     1       1.207   6.666  20.428  0.00  0.00    +0.000 HD
BRANCH   4  12
ATOM     12  C   UNL     1       4.833   4.145  19.171  0.00  0.00    +0.000 C 
ATOM     13  O   UNL     1       6.031   4.391  19.228  0.00  0.00    +0.000 OA
BRANCH  12  14
ATOM     14  O   UNL     1       4.333   2.903  18.922  0.00  0.00    +0.000 OA
BRANCH  14  16
ATOM     15  C   UNL     1       2.369   2.244  17.724  0.00  0.00    +0.000 C 
ATOM     16  C   UNL     1       3.811   2.705  17.600  0.00  0.00    +0.000 C 
ENDBRANCH  14  16
ENDBRANCH  12  14
ENDBRANCH   4  12
ENDBRANCH   2   8
ENDBRANCH   1   2
BRANCH   1  17
ATOM     17  C   UNL     1       1.143  10.311  19.269  0.00  0.00    +0.000 C 
BRANCH  17  18
ATOM     18  C   UNL     1       0.387  11.078  20.407  0.00  0.00    +0.000 C 
ATOM     19  O   UNL     1       0.944  11.326  21.469  0.00  0.00    +0.000 OA
ATOM     20  N   UNL     1      -0.957  11.466  20.130  0.00  0.00    +0.000 N 
BRANCH  20  21
ATOM     21  C   UNL     1      -1.587  11.140  18.898  0.00  0.00    +0.000 A 
ATOM     22  C   UNL     1      -1.497  12.029  17.825  0.00  0.00    +0.000 A 
ATOM     23  C   UNL     1      -2.113  11.730  16.610  0.00  0.00    +0.000 A 
ATOM     24  C   UNL     1      -2.809  10.538  16.446  0.00  0.00    +0.000 A 
ATOM     25  C   UNL     1      -3.512  10.231  15.152  0.00  0.00    +0.000 C 
ATOM     26  C   UNL     1      -2.870   9.624  17.507  0.00  0.00    +0.000 A 
ATOM     27  C   UNL     1      -2.251   9.919  18.727  0.00  0.00    +0.000 A 
ENDBRANCH  20  21
BRANCH  20  28
ATOM     28  C   UNL     1      -1.794  12.197  21.109  0.00  0.00    +0.000 C 
BRANCH  28  29
ATOM     29  C   UNL     1      -3.063  12.825  20.518  0.00  0.00    +0.000 C 
BRANCH  29  30
ATOM     30  C   UNL     1      -4.339  12.620  21.316  0.00  0.00    +0.000 C 
ATOM     31  N   UNL     1      -5.399  12.451  21.979  0.00  0.00    +0.000 NA
ENDBRANCH  29  30
ENDBRANCH  28  29
ENDBRANCH  20  28
ENDBRANCH  17  18
ENDBRANCH   1  17
TORSDOF 11
ENDMDL
