MODEL 1
REMARK VINA RESULT:      -7.0      0.000      0.000
REMARK  Name = 
REMARK  6 active torsions:
REMARK  status: ('A' for Active; 'I' for Inactive)
REMARK    1  A    between atoms: C_1  and  N_2
REMARK    2  A    between atoms: C_3  and  C_5
REMARK    3  A    between atoms: C_5  and  C_6
REMARK    4  A    between atoms: C_6  and  N_7
REMARK    5  A    between atoms: C_8  and  C_10
REMARK    6  A    between atoms: C_15  and  N_16
REMARK                            x       y       z     vdW  Elec       q    Type
REMARK                         _______ _______ _______ _____ _____    ______ ____
ROOT
ATOM      1  C   UNL     1       6.170   5.703  17.179  0.00  0.00    +0.000 A 
ATOM      2  C   UNL     1       7.394   6.378  17.345  0.00  0.00    +0.000 A 
ATOM      3  C   UNL     1       8.006   6.443  18.590  0.00  0.00    +0.000 A 
ATOM      4  C   UNL     1       7.386   5.851  19.680  0.00  0.00    +0.000 A 
ATOM      5  C   UNL     1       6.161   5.187  19.524  0.00  0.00    +0.000 A 
ATOM      6  C   UNL     1       5.514   5.084  18.275  0.00  0.00    +0.000 A 
ENDROOT
BRANCH   6   7
ATOM      7  N   UNL     1       4.327   4.361  18.135  0.00  0.00    +0.000 N 
ATOM      8  C   UNL     1       4.227   2.973  18.634  0.00  0.00    +0.000 C 
ATOM      9  C   UNL     1       3.094   2.269  17.860  0.00  0.00    +0.000 C 
ATOM     10  O   UNL     1       1.840   2.957  18.012  0.00  0.00    +0.000 OA
ATOM     11  C   UNL     1       1.950   4.320  17.560  0.00  0.00    +0.000 C 
ATOM     12  C   UNL     1       3.041   5.080  18.341  0.00  0.00    +0.000 C 
ENDBRANCH   6   7
BRANCH   1  14
ATOM     13  N   UNL     1       5.881   4.495  15.078  0.00  0.00    +0.000 N 
ATOM     14  C   UNL     1       5.677   5.664  15.776  0.00  0.00    +0.000 C 
ATOM     15  O   UNL     1       5.130   6.650  15.286  0.00  0.00    +0.000 OA
ATOM     16  H   UNL     1       6.235   3.708  15.618  0.00  0.00    +0.000 HD
BRANCH  13  17
ATOM     17  C   UNL     1       5.235   4.251  13.800  0.00  0.00    +0.000 C 
BRANCH  17  18
ATOM     18  C   UNL     1       6.133   3.492  12.841  0.00  0.00    +0.000 C 
BRANCH  18  21
ATOM     19  C   UNL     1       3.287   2.993  10.426  0.00  0.00    +0.000 C 
ATOM     20  N   UNL     1       4.224   3.511  11.388  0.00  0.00    +0.000 N 
ATOM     21  C   UNL     1       5.328   2.781  11.779  0.00  0.00    +0.000 C 
ATOM     22  O   UNL     1       5.629   1.693  11.301  0.00  0.00    +0.000 OA
ATOM     23  H   UNL     1       3.966   4.328  11.927  0.00  0.00    +0.000 HD
ENDBRANCH  18  21
ENDBRANCH  17  18
ENDBRANCH  13  17
ENDBRANCH   1  14
TORSDOF 5
ENDMDL
MODEL 2
REMARK VINA RESULT:      -6.9      3.391      7.121
REMARK  Name = 
REMARK  6 active torsions:
REMARK  status: ('A' for Active; 'I' for Inactive)
REMARK    1  A    between atoms: C_1  and  N_2
REMARK    2  A    between atoms: C_3  and  C_5
REMARK    3  A    between atoms: C_5  and  C_6
REMARK    4  A    between atoms: C_6  and  N_7
REMARK    5  A    between atoms: C_8  and  C_10
REMARK    6  A    between atoms: C_15  and  N_16
REMARK                            x       y       z     vdW  Elec       q    Type
REMARK                         _______ _______ _______ _____ _____    ______ ____
ROOT
ATOM      1  C   UNL     1       2.680   4.794  18.417  0.00  0.00    +0.000 A 
ATOM      2  C   UNL     1       1.449   4.177  18.707  0.00  0.00    +0.000 A 
ATOM      3  C   UNL     1       1.272   2.815  18.500  0.00  0.00    +0.000 A 
ATOM      4  C   UNL     1       2.319   2.068  17.981  0.00  0.00    +0.000 A 
ATOM      5  C   UNL     1       3.545   2.680  17.679  0.00  0.00    +0.000 A 
ATOM      6  C   UNL     1       3.771   4.055  17.890  0.00  0.00    +0.000 A 
ENDROOT
BRANCH   6   7
ATOM      7  N   UNL     1       5.022   4.627  17.642  0.00  0.00    +0.000 N 
ATOM      8  C   UNL     1       5.994   4.818  18.739  0.00  0.00    +0.000 C 
ATOM      9  C   UNL     1       6.968   5.938  18.323  0.00  0.00    +0.000 C 
ATOM     10  O   UNL     1       7.644   5.622  17.093  0.00  0.00    +0.000 OA
ATOM     11  C   UNL     1       6.695   5.399  16.033  0.00  0.00    +0.000 C 
ATOM     12  C   UNL     1       5.725   4.253  16.386  0.00  0.00    +0.000 C 
ENDBRANCH   6   7
BRANCH   1  14
ATOM     13  N   UNL     1       2.893   7.120  17.708  0.00  0.00    +0.000 N 
ATOM     14  C   UNL     1       2.734   6.242  18.756  0.00  0.00    +0.000 C 
ATOM     15  O   UNL     1       2.651   6.605  19.928  0.00  0.00    +0.000 OA
ATOM     16  H   UNL     1       2.830   6.719  16.774  0.00  0.00    +0.000 HD
BRANCH  13  17
ATOM     17  C   UNL     1       2.715   8.551  17.882  0.00  0.00    +0.000 C 
BRANCH  17  18
ATOM     18  C   UNL     1       1.260   8.966  17.763  0.00  0.00    +0.000 C 
BRANCH  18  21
ATOM     19  C   UNL     1       0.688   9.785  21.393  0.00  0.00    +0.000 C 
ATOM     20  N   UNL     1       1.074   9.183  20.145  0.00  0.00    +0.000 N 
ATOM     21  C   UNL     1       0.829   9.809  18.939  0.00  0.00    +0.000 C 
ATOM     22  O   UNL     1       0.340  10.929  18.840  0.00  0.00    +0.000 OA
ATOM     23  H   UNL     1       1.346   8.208  20.139  0.00  0.00    +0.000 HD
ENDBRANCH  18  21
ENDBRANCH  17  18
ENDBRANCH  13  17
ENDBRANCH   1  14
TORSDOF 5
ENDMDL
MODEL 3
REMARK VINA RESULT:      -6.9      2.521      3.605
REMARK  Name = 
REMARK  6 active torsions:
REMARK  status: ('A' for Active; 'I' for Inactive)
REMARK    1  A    between atoms: C_1  and  N_2
REMARK    2  A    between atoms: C_3  and  C_5
REMARK    3  A    between atoms: C_5  and  C_6
REMARK    4  A    between atoms: C_6  and  N_7
REMARK    5  A    between atoms: C_8  and  C_10
REMARK    6  A    between atoms: C_15  and  N_16
REMARK                            x       y       z     vdW  Elec       q    Type
REMARK                         _______ _______ _______ _____ _____    ______ ____
ROOT
ATOM      1  C   UNL     1       3.610   6.112  18.098  0.00  0.00    +0.000 A 
ATOM      2  C   UNL     1       3.868   7.352  17.485  0.00  0.00    +0.000 A 
ATOM      3  C   UNL     1       3.045   8.446  17.720  0.00  0.00    +0.000 A 
ATOM      4  C   UNL     1       1.947   8.299  18.555  0.00  0.00    +0.000 A 
ATOM      5  C   UNL     1       1.678   7.063  19.160  0.00  0.00    +0.000 A 
ATOM      6  C   UNL     1       2.497   5.933  18.960  0.00  0.00    +0.000 A 
ENDROOT
BRANCH   6   7
ATOM      7  N   UNL     1       2.243   4.731  19.627  0.00  0.00    +0.000 N 
ATOM      8  C   UNL     1       1.998   4.715  21.084  0.00  0.00    +0.000 C 
ATOM      9  C   UNL     1       2.327   3.303  21.607  0.00  0.00    +0.000 C 
ATOM     10  O   UNL     1       1.540   2.295  20.947  0.00  0.00    +0.000 OA
ATOM     11  C   UNL     1       1.751   2.337  19.523  0.00  0.00    +0.000 C 
ATOM     12  C   UNL     1       1.389   3.721  18.946  0.00  0.00    +0.000 C 
ENDBRANCH   6   7
BRANCH   1  14
ATOM     13  N   UNL     1       4.646   4.574  16.512  0.00  0.00    +0.000 N 
ATOM     14  C   UNL     1       4.618   5.059  17.800  0.00  0.00    +0.000 C 
ATOM     15  O   UNL     1       5.367   4.654  18.686  0.00  0.00    +0.000 OA
ATOM     16  H   UNL     1       4.065   5.064  15.835  0.00  0.00    +0.000 HD
BRANCH  13  17
ATOM     17  C   UNL     1       5.734   3.733  16.042  0.00  0.00    +0.000 C 
BRANCH  17  18
ATOM     18  C   UNL     1       6.923   4.547  15.567  0.00  0.00    +0.000 C 
BRANCH  18  21
ATOM     19  C   UNL     1       6.281   3.344  12.058  0.00  0.00    +0.000 C 
ATOM     20  N   UNL     1       6.289   3.543  13.483  0.00  0.00    +0.000 N 
ATOM     21  C   UNL     1       7.009   4.570  14.060  0.00  0.00    +0.000 C 
ATOM     22  O   UNL     1       7.627   5.413  13.419  0.00  0.00    +0.000 OA
ATOM     23  H   UNL     1       5.927   2.809  14.079  0.00  0.00    +0.000 HD
ENDBRANCH  18  21
ENDBRANCH  17  18
ENDBRANCH  13  17
ENDBRANCH   1  14
TORSDOF 5
ENDMDL
MODEL 4
REMARK VINA RESULT:      -6.9      3.187      4.576
REMARK  Name = 
REMARK  6 active torsions:
REMARK  status: ('A' for Active; 'I' for Inactive)
REMARK    1  A    between atoms: C_1  and  N_2
REMARK    2  A    between atoms: C_3  and  C_5
REMARK    3  A    between atoms: C_5  and  C_6
REMARK    4  A    between atoms: C_6  and  N_7
REMARK    5  A    between atoms: C_8  and  C_10
REMARK    6  A    between atoms: C_15  and  N_16
REMARK                            x       y       z     vdW  Elec       q    Type
REMARK                         _______ _______ _______ _____ _____    ______ ____
ROOT
ATOM      1  C   UNL     1       3.479   5.880  17.998  0.00  0.00    +0.000 A 
ATOM      2  C   UNL     1       3.766   7.105  17.366  0.00  0.00    +0.000 A 
ATOM      3  C   UNL     1       3.105   8.268  17.739  0.00  0.00    +0.000 A 
ATOM      4  C   UNL     1       2.138   8.208  18.732  0.00  0.00    +0.000 A 
ATOM      5  C   UNL     1       1.839   6.989  19.357  0.00  0.00    +0.000 A 
ATOM      6  C   UNL     1       2.498   5.789  19.020  0.00  0.00    +0.000 A 
ENDROOT
BRANCH   6   7
ATOM      7  N   UNL     1       2.228   4.600  19.703  0.00  0.00    +0.000 N 
ATOM      8  C   UNL     1       2.157   4.580  21.180  0.00  0.00    +0.000 C 
ATOM      9  C   UNL     1       2.429   3.137  21.650  0.00  0.00    +0.000 C 
ATOM     10  O   UNL     1       1.490   2.208  21.082  0.00  0.00    +0.000 OA
ATOM     11  C   UNL     1       1.534   2.256  19.644  0.00  0.00    +0.000 C 
ATOM     12  C   UNL     1       1.220   3.673  19.123  0.00  0.00    +0.000 C 
ENDBRANCH   6   7
BRANCH   1  14
ATOM     13  N   UNL     1       4.631   4.706  16.195  0.00  0.00    +0.000 N 
ATOM     14  C   UNL     1       4.317   4.741  17.535  0.00  0.00    +0.000 C 
ATOM     15  O   UNL     1       4.684   3.881  18.333  0.00  0.00    +0.000 OA
ATOM     16  H   UNL     1       4.376   5.529  15.653  0.00  0.00    +0.000 HD
BRANCH  13  17
ATOM     17  C   UNL     1       5.633   3.791  15.675  0.00  0.00    +0.000 C 
BRANCH  17  18
ATOM     18  C   UNL     1       6.961   4.482  15.420  0.00  0.00    +0.000 C 
BRANCH  18  21
ATOM     19  C   UNL     1       7.773   7.427  17.620  0.00  0.00    +0.000 C 
ATOM     20  N   UNL     1       7.309   6.556  16.573  0.00  0.00    +0.000 N 
ATOM     21  C   UNL     1       7.461   5.187  16.658  0.00  0.00    +0.000 C 
ATOM     22  O   UNL     1       7.928   4.613  17.636  0.00  0.00    +0.000 OA
ATOM     23  H   UNL     1       7.050   6.962  15.682  0.00  0.00    +0.000 HD
ENDBRANCH  18  21
ENDBRANCH  17  18
ENDBRANCH  13  17
ENDBRANCH   1  14
TORSDOF 5
ENDMDL
MODEL 5
REMARK VINA RESULT:      -6.9      3.640      7.049
REMARK  Name = 
REMARK  6 active torsions:
REMARK  status: ('A' for Active; 'I' for Inactive)
REMARK    1  A    between atoms: C_1  and  N_2
REMARK    2  A    between atoms: C_3  and  C_5
REMARK    3  A    between atoms: C_5  and  C_6
REMARK    4  A    between atoms: C_6  and  N_7
REMARK    5  A    between atoms: C_8  and  C_10
REMARK    6  A    between atoms: C_15  and  N_16
REMARK                            x       y       z     vdW  Elec       q    Type
REMARK                         _______ _______ _______ _____ _____    ______ ____
ROOT
ATOM      1  C   UNL     1       2.634   4.727  18.466  0.00  0.00    +0.000 A 
ATOM      2  C   UNL     1       1.409   4.102  18.765  0.00  0.00    +0.000 A 
ATOM      3  C   UNL     1       1.239   2.739  18.561  0.00  0.00    +0.000 A 
ATOM      4  C   UNL     1       2.287   1.998  18.036  0.00  0.00    +0.000 A 
ATOM      5  C   UNL     1       3.507   2.617  17.725  0.00  0.00    +0.000 A 
ATOM      6  C   UNL     1       3.726   3.994  17.932  0.00  0.00    +0.000 A 
ENDROOT
BRANCH   6   7
ATOM      7  N   UNL     1       4.971   4.574  17.674  0.00  0.00    +0.000 N 
ATOM      8  C   UNL     1       5.965   4.735  18.756  0.00  0.00    +0.000 C 
ATOM      9  C   UNL     1       6.931   5.867  18.351  0.00  0.00    +0.000 C 
ATOM     10  O   UNL     1       7.581   5.586  17.099  0.00  0.00    +0.000 OA
ATOM     11  C   UNL     1       6.611   5.391  16.053  0.00  0.00    +0.000 C 
ATOM     12  C   UNL     1       5.649   4.234  16.394  0.00  0.00    +0.000 C 
ENDBRANCH   6   7
BRANCH   1  14
ATOM     13  N   UNL     1       2.944   7.046  17.768  0.00  0.00    +0.000 N 
ATOM     14  C   UNL     1       2.681   6.176  18.802  0.00  0.00    +0.000 C 
ATOM     15  O   UNL     1       2.502   6.547  19.960  0.00  0.00    +0.000 OA
ATOM     16  H   UNL     1       2.957   6.640  16.834  0.00  0.00    +0.000 HD
BRANCH  13  17
ATOM     17  C   UNL     1       2.775   8.480  17.920  0.00  0.00    +0.000 C 
BRANCH  17  18
ATOM     18  C   UNL     1       1.351   8.922  17.633  0.00  0.00    +0.000 C 
BRANCH  18  21
ATOM     19  C   UNL     1      -0.368  11.937  19.092  0.00  0.00    +0.000 C 
ATOM     20  N   UNL     1       0.166  10.923  18.223  0.00  0.00    +0.000 N 
ATOM     21  C   UNL     1       0.821   9.817  18.728  0.00  0.00    +0.000 C 
ATOM     22  O   UNL     1       0.936   9.581  19.925  0.00  0.00    +0.000 OA
ATOM     23  H   UNL     1       0.237  11.119  17.233  0.00  0.00    +0.000 HD
ENDBRANCH  18  21
ENDBRANCH  17  18
ENDBRANCH  13  17
ENDBRANCH   1  14
TORSDOF 5
ENDMDL
MODEL 6
REMARK VINA RESULT:      -6.8      2.735      4.883
REMARK  Name = 
REMARK  6 active torsions:
REMARK  status: ('A' for Active; 'I' for Inactive)
REMARK    1  A    between atoms: C_1  and  N_2
REMARK    2  A    between atoms: C_3  and  C_5
REMARK    3  A    between atoms: C_5  and  C_6
REMARK    4  A    between atoms: C_6  and  N_7
REMARK    5  A    between atoms: C_8  and  C_10
REMARK    6  A    between atoms: C_15  and  N_16
REMARK                            x       y       z     vdW  Elec       q    Type
REMARK                         _______ _______ _______ _____ _____    ______ ____
ROOT
ATOM      1  C   UNL     1       4.034   3.786  18.894  0.00  0.00    +0.000 A 
ATOM      2  C   UNL     1       4.241   2.407  18.706  0.00  0.00    +0.000 A 
ATOM      3  C   UNL     1       3.167   1.550  18.500  0.00  0.00    +0.000 A 
ATOM      4  C   UNL     1       1.880   2.066  18.501  0.00  0.00    +0.000 A 
ATOM      5  C   UNL     1       1.667   3.438  18.699  0.00  0.00    +0.000 A 
ATOM      6  C   UNL     1       2.729   4.344  18.896  0.00  0.00    +0.000 A 
ENDROOT
BRANCH   6   7
ATOM      7  N   UNL     1       2.494   5.716  19.026  0.00  0.00    +0.000 N 
ATOM      8  C   UNL     1       2.288   6.561  17.831  0.00  0.00    +0.000 C 
ATOM      9  C   UNL     1       2.632   8.015  18.212  0.00  0.00    +0.000 C 
ATOM     10  O   UNL     1       1.827   8.480  19.310  0.00  0.00    +0.000 OA
ATOM     11  C   UNL     1       1.999   7.633  20.461  0.00  0.00    +0.000 C 
ATOM     12  C   UNL     1       1.621   6.172  20.141  0.00  0.00    +0.000 C 
ENDBRANCH   6   7
BRANCH   1  14
ATOM     13  N   UNL     1       6.356   4.195  18.259  0.00  0.00    +0.000 N 
ATOM     14  C   UNL     1       5.286   4.579  19.035  0.00  0.00    +0.000 C 
ATOM     15  O   UNL     1       5.334   5.520  19.825  0.00  0.00    +0.000 OA
ATOM     16  H   UNL     1       6.166   3.481  17.557  0.00  0.00    +0.000 HD
BRANCH  13  17
ATOM     17  C   UNL     1       7.537   5.030  18.127  0.00  0.00    +0.000 C 
BRANCH  17  18
ATOM     18  C   UNL     1       7.280   6.253  17.267  0.00  0.00    +0.000 C 
BRANCH  18  21
ATOM     19  C   UNL     1       7.026   4.772  13.815  0.00  0.00    +0.000 C 
ATOM     20  N   UNL     1       7.447   5.176  15.130  0.00  0.00    +0.000 N 
ATOM     21  C   UNL     1       6.607   5.882  15.968  0.00  0.00    +0.000 C 
ATOM     22  O   UNL     1       5.443   6.154  15.693  0.00  0.00    +0.000 OA
ATOM     23  H   UNL     1       8.430   5.116  15.367  0.00  0.00    +0.000 HD
ENDBRANCH  18  21
ENDBRANCH  17  18
ENDBRANCH  13  17
ENDBRANCH   1  14
TORSDOF 5
ENDMDL
MODEL 7
REMARK VINA RESULT:      -6.7      4.057      6.557
REMARK  Name = 
REMARK  6 active torsions:
REMARK  status: ('A' for Active; 'I' for Inactive)
REMARK    1  A    between atoms: C_1  and  N_2
REMARK    2  A    between atoms: C_3  and  C_5
REMARK    3  A    between atoms: C_5  and  C_6
REMARK    4  A    between atoms: C_6  and  N_7
REMARK    5  A    between atoms: C_8  and  C_10
REMARK    6  A    between atoms: C_15  and  N_16
REMARK                            x       y       z     vdW  Elec       q    Type
REMARK                         _______ _______ _______ _____ _____    ______ ____
ROOT
ATOM      1  C   UNL     1       3.862   5.949  17.639  0.00  0.00    +0.000 A 
ATOM      2  C   UNL     1       4.609   6.676  16.695  0.00  0.00    +0.000 A 
ATOM      3  C   UNL     1       5.342   6.022  15.713  0.00  0.00    +0.000 A 
ATOM      4  C   UNL     1       5.348   4.635  15.685  0.00  0.00    +0.000 A 
ATOM      5  C   UNL     1       4.615   3.904  16.631  0.00  0.00    +0.000 A 
ATOM      6  C   UNL     1       3.845   4.530  17.633  0.00  0.00    +0.000 A 
ENDROOT
BRANCH   6   7
ATOM      7  N   UNL     1       3.072   3.779  18.523  0.00  0.00    +0.000 N 
ATOM      8  C   UNL     1       1.883   3.039  18.049  0.00  0.00    +0.000 C 
ATOM      9  C   UNL     1       0.949   2.816  19.255  0.00  0.00    +0.000 C 
ATOM     10  O   UNL     1       1.608   2.097  20.312  0.00  0.00    +0.000 OA
ATOM     11  C   UNL     1       2.788   2.800  20.746  0.00  0.00    +0.000 C 
ATOM     12  C   UNL     1       3.776   3.005  19.580  0.00  0.00    +0.000 C 
ENDBRANCH   6   7
BRANCH   1  14
ATOM     13  N   UNL     1       2.595   7.986  18.094  0.00  0.00    +0.000 N 
ATOM     14  C   UNL     1       3.078   6.792  18.582  0.00  0.00    +0.000 C 
ATOM     15  O   UNL     1       2.898   6.420  19.740  0.00  0.00    +0.000 OA
ATOM     16  H   UNL     1       2.702   8.135  17.092  0.00  0.00    +0.000 HD
BRANCH  13  17
ATOM     17  C   UNL     1       1.621   8.770  18.833  0.00  0.00    +0.000 C 
BRANCH  17  18
ATOM     18  C   UNL     1       1.064   9.915  18.008  0.00  0.00    +0.000 C 
BRANCH  18  21
ATOM     19  C   UNL     1      -2.566  10.743  17.448  0.00  0.00    +0.000 C 
ATOM     20  N   UNL     1      -1.182  10.379  17.303  0.00  0.00    +0.000 N 
ATOM     21  C   UNL     1      -0.358  10.237  18.402  0.00  0.00    +0.000 C 
ATOM     22  O   UNL     1      -0.744  10.340  19.560  0.00  0.00    +0.000 OA
ATOM     23  H   UNL     1      -0.762  10.420  16.383  0.00  0.00    +0.000 HD
ENDBRANCH  18  21
ENDBRANCH  17  18
ENDBRANCH  13  17
ENDBRANCH   1  14
TORSDOF 5
ENDMDL
MODEL 8
REMARK VINA RESULT:      -6.7      3.680      6.968
REMARK  Name = 
REMARK  6 active torsions:
REMARK  status: ('A' for Active; 'I' for Inactive)
REMARK    1  A    between atoms: C_1  and  N_2
REMARK    2  A    between atoms: C_3  and  C_5
REMARK    3  A    between atoms: C_5  and  C_6
REMARK    4  A    between atoms: C_6  and  N_7
REMARK    5  A    between atoms: C_8  and  C_10
REMARK    6  A    between atoms: C_15  and  N_16
REMARK                            x       y       z     vdW  Elec       q    Type
REMARK                         _______ _______ _______ _____ _____    ______ ____
ROOT
ATOM      1  C   UNL     1       2.858   4.835  17.953  0.00  0.00    +0.000 A 
ATOM      2  C   UNL     1       1.608   4.397  18.430  0.00  0.00    +0.000 A 
ATOM      3  C   UNL     1       1.334   3.042  18.563  0.00  0.00    +0.000 A 
ATOM      4  C   UNL     1       2.302   2.117  18.199  0.00  0.00    +0.000 A 
ATOM      5  C   UNL     1       3.545   2.547  17.712  0.00  0.00    +0.000 A 
ATOM      6  C   UNL     1       3.869   3.913  17.577  0.00  0.00    +0.000 A 
ENDROOT
BRANCH   6   7
ATOM      7  N   UNL     1       5.138   4.315  17.150  0.00  0.00    +0.000 N 
ATOM      8  C   UNL     1       6.258   4.413  18.109  0.00  0.00    +0.000 C 
ATOM      9  C   UNL     1       7.300   5.389  17.526  0.00  0.00    +0.000 C 
ATOM     10  O   UNL     1       7.769   4.955  16.236  0.00  0.00    +0.000 OA
ATOM     11  C   UNL     1       6.671   4.823  15.314  0.00  0.00    +0.000 C 
ATOM     12  C   UNL     1       5.623   3.819  15.835  0.00  0.00    +0.000 C 
ENDBRANCH   6   7
BRANCH   1  14
ATOM     13  N   UNL     1       2.045   7.056  18.557  0.00  0.00    +0.000 N 
ATOM     14  C   UNL     1       3.021   6.314  17.931  0.00  0.00    +0.000 C 
ATOM     15  O   UNL     1       3.987   6.820  17.362  0.00  0.00    +0.000 OA
ATOM     16  H   UNL     1       1.359   6.530  19.095  0.00  0.00    +0.000 HD
BRANCH  13  17
ATOM     17  C   UNL     1       2.218   8.475  18.813  0.00  0.00    +0.000 C 
BRANCH  17  18
ATOM     18  C   UNL     1       1.486   9.333  17.797  0.00  0.00    +0.000 C 
BRANCH  18  21
ATOM     19  C   UNL     1      -2.013  10.718  17.915  0.00  0.00    +0.000 C 
ATOM     20  N   UNL     1      -0.787  10.060  17.550  0.00  0.00    +0.000 N 
ATOM     21  C   UNL     1       0.289  10.017  18.414  0.00  0.00    +0.000 C 
ATOM     22  O   UNL     1       0.264  10.464  19.555  0.00  0.00    +0.000 OA
ATOM     23  H   UNL     1      -0.643   9.799  16.582  0.00  0.00    +0.000 HD
ENDBRANCH  18  21
ENDBRANCH  17  18
ENDBRANCH  13  17
ENDBRANCH   1  14
TORSDOF 5
ENDMDL
MODEL 9
REMARK VINA RESULT:      -6.7      3.860      6.492
REMARK  Name = 
REMARK  6 active torsions:
REMARK  status: ('A' for Active; 'I' for Inactive)
REMARK    1  A    between atoms: C_1  and  N_2
REMARK    2  A    between atoms: C_3  and  C_5
REMARK    3  A    between atoms: C_5  and  C_6
REMARK    4  A    between atoms: C_6  and  N_7
REMARK    5  A    between atoms: C_8  and  C_10
REMARK    6  A    between atoms: C_15  and  N_16
REMARK                            x       y       z     vdW  Elec       q    Type
REMARK                         _______ _______ _______ _____ _____    ______ ____
ROOT
ATOM      1  C   UNL     1       4.227   5.715  17.313  0.00  0.00    +0.000 A 
ATOM      2  C   UNL     1       4.982   6.449  16.379  0.00  0.00    +0.000 A 
ATOM      3  C   UNL     1       5.651   5.807  15.346  0.00  0.00    +0.000 A 
ATOM      4  C   UNL     1       5.587   4.424  15.254  0.00  0.00    +0.000 A 
ATOM      5  C   UNL     1       4.846   3.686  16.189  0.00  0.00    +0.000 A 
ATOM      6  C   UNL     1       4.139   4.300  17.243  0.00  0.00    +0.000 A 
ENDROOT
BRANCH   6   7
ATOM      7  N   UNL     1       3.356   3.547  18.122  0.00  0.00    +0.000 N 
ATOM      8  C   UNL     1       2.275   2.678  17.611  0.00  0.00    +0.000 C 
ATOM      9  C   UNL     1       1.263   2.456  18.753  0.00  0.00    +0.000 C 
ATOM     10  O   UNL     1       1.886   1.869  19.908  0.00  0.00    +0.000 OA
ATOM     11  C   UNL     1       2.964   2.698  20.382  0.00  0.00    +0.000 C 
ATOM     12  C   UNL     1       4.028   2.909  19.286  0.00  0.00    +0.000 C 
ENDBRANCH   6   7
BRANCH   1  14
ATOM     13  N   UNL     1       2.864   7.668  17.848  0.00  0.00    +0.000 N 
ATOM     14  C   UNL     1       3.516   6.550  18.318  0.00  0.00    +0.000 C 
ATOM     15  O   UNL     1       3.538   6.238  19.507  0.00  0.00    +0.000 OA
ATOM     16  H   UNL     1       2.812   7.762  16.835  0.00  0.00    +0.000 HD
BRANCH  13  17
ATOM     17  C   UNL     1       1.941   8.417  18.683  0.00  0.00    +0.000 C 
BRANCH  17  18
ATOM     18  C   UNL     1       1.262   9.540  17.921  0.00  0.00    +0.000 C 
BRANCH  18  21
ATOM     19  C   UNL     1       2.610  13.038  18.265  0.00  0.00    +0.000 C 
ATOM     20  N   UNL     1       2.229  11.732  17.798  0.00  0.00    +0.000 N 
ATOM     21  C   UNL     1       1.489  10.875  18.589  0.00  0.00    +0.000 C 
ATOM     22  O   UNL     1       1.051  11.175  19.693  0.00  0.00    +0.000 OA
ATOM     23  H   UNL     1       2.672  11.364  16.966  0.00  0.00    +0.000 HD
ENDBRANCH  18  21
ENDBRANCH  17  18
ENDBRANCH  13  17
ENDBRANCH   1  14
TORSDOF 5
ENDMDL
