MODEL 1
REMARK VINA RESULT:      -7.6      0.000      0.000
REMARK  Name = 
REMARK  8 active torsions:
REMARK  status: ('A' for Active; 'I' for Inactive)
REMARK    1  A    between atoms: C_1  and  C_2
REMARK    2  A    between atoms: C_2  and  C_3
REMARK    3  A    between atoms: C_2  and  C_4
REMARK    4  A    between atoms: C_4  and  C_5
REMARK    5  A    between atoms: C_5  and  N_6
REMARK    6  A    between atoms: C_8  and  C_9
REMARK    7  A    between atoms: N_11  and  C_12
REMARK    8  A    between atoms: C_12  and  C_13
REMARK                            x       y       z     vdW  Elec       q    Type
REMARK                         _______ _______ _______ _____ _____    ______ ____
ROOT
ATOM      1  C   UNL     1       4.405   6.213  17.778  0.00  0.00    +0.000 C 
ATOM      2  O   UNL     1       5.272   7.075  17.710  0.00  0.00    +0.000 OA
ATOM      3  N   UNL     1       3.106   6.597  17.961  0.00  0.00    +0.000 N 
ATOM      4  H   UNL     1       2.983   7.601  18.038  0.00  0.00    +0.000 HD
ENDROOT
BRANCH   1   7
ATOM      5  N   UNL     1       6.071   4.340  15.770  0.00  0.00    +0.000 N 
ATOM      6  C   UNL     1       4.680   4.286  16.151  0.00  0.00    +0.000 C 
ATOM      7  C   UNL     1       4.684   4.724  17.604  0.00  0.00    +0.000 C 
ATOM      8  C   UNL     1       6.079   4.337  18.098  0.00  0.00    +0.000 C 
ATOM      9  C   UNL     1       6.921   4.346  16.858  0.00  0.00    +0.000 C 
ATOM     10  O   UNL     1       8.140   4.314  16.847  0.00  0.00    +0.000 OA
BRANCH   5  11
ATOM     11  C   UNL     1       6.519   4.176  14.402  0.00  0.00    +0.000 C 
BRANCH  11  12
ATOM     12  C   UNL     1       5.446   3.577  13.491  0.00  0.00    +0.000 C 
BRANCH  12  14
ATOM     13  C   UNL     1       7.286   3.963  11.771  0.00  0.00    +0.000 C 
ATOM     14  C   UNL     1       5.853   3.489  12.008  0.00  0.00    +0.000 C 
ATOM     15  C   UNL     1       5.682   2.053  11.509  0.00  0.00    +0.000 C 
ENDBRANCH  12  14
ENDBRANCH  11  12
ENDBRANCH   5  11
ENDBRANCH   1   7
BRANCH   3  16
ATOM     16  C   UNL     1       1.914   5.777  17.915  0.00  0.00    +0.000 C 
BRANCH  16  17
ATOM     17  C   UNL     1       1.873   4.786  19.041  0.00  0.00    +0.000 A 
ATOM     18  C   UNL     1       2.233   5.160  20.347  0.00  0.00    +0.000 A 
ATOM     19  C   UNL     1       2.126   4.249  21.393  0.00  0.00    +0.000 A 
ATOM     20  C   UNL     1       1.663   2.965  21.136  0.00  0.00    +0.000 A 
ATOM     21  F   UNL     1       1.556   2.088  22.141  0.00  0.00    +0.000 F 
ATOM     22  C   UNL     1       1.296   2.578  19.851  0.00  0.00    +0.000 A 
ATOM     23  C   UNL     1       1.398   3.488  18.804  0.00  0.00    +0.000 A 
ENDBRANCH  16  17
ENDBRANCH   3  16
TORSDOF 6
ENDMDL
MODEL 2
REMARK VINA RESULT:      -7.5      1.209      1.532
REMARK  Name = 
REMARK  8 active torsions:
REMARK  status: ('A' for Active; 'I' for Inactive)
REMARK    1  A    between atoms: C_1  and  C_2
REMARK    2  A    between atoms: C_2  and  C_3
REMARK    3  A    between atoms: C_2  and  C_4
REMARK    4  A    between atoms: C_4  and  C_5
REMARK    5  A    between atoms: C_5  and  N_6
REMARK    6  A    between atoms: C_8  and  C_9
REMARK    7  A    between atoms: N_11  and  C_12
REMARK    8  A    between atoms: C_12  and  C_13
REMARK                            x       y       z     vdW  Elec       q    Type
REMARK                         _______ _______ _______ _____ _____    ______ ____
ROOT
ATOM      1  C   UNL     1       5.143   5.736  17.655  0.00  0.00    +0.000 C 
ATOM      2  O   UNL     1       5.695   6.820  17.800  0.00  0.00    +0.000 OA
ATOM      3  N   UNL     1       3.801   5.643  17.891  0.00  0.00    +0.000 N 
ATOM      4  H   UNL     1       3.375   6.515  18.188  0.00  0.00    +0.000 HD
ENDROOT
BRANCH   1   7
ATOM      5  N   UNL     1       5.855   4.383  14.830  0.00  0.00    +0.000 N 
ATOM      6  C   UNL     1       5.170   3.835  15.975  0.00  0.00    +0.000 C 
ATOM      7  C   UNL     1       5.862   4.486  17.159  0.00  0.00    +0.000 C 
ATOM      8  C   UNL     1       7.266   4.796  16.636  0.00  0.00    +0.000 C 
ATOM      9  C   UNL     1       7.082   4.929  15.154  0.00  0.00    +0.000 C 
ATOM     10  O   UNL     1       7.911   5.396  14.392  0.00  0.00    +0.000 OA
BRANCH   5  11
ATOM     11  C   UNL     1       5.403   4.178  13.469  0.00  0.00    +0.000 C 
BRANCH  11  12
ATOM     12  C   UNL     1       6.360   3.312  12.648  0.00  0.00    +0.000 C 
BRANCH  12  14
ATOM     13  C   UNL     1       5.996   1.227  11.230  0.00  0.00    +0.000 C 
ATOM     14  C   UNL     1       5.741   2.727  11.364  0.00  0.00    +0.000 C 
ATOM     15  C   UNL     1       4.238   3.012  11.339  0.00  0.00    +0.000 C 
ENDBRANCH  12  14
ENDBRANCH  11  12
ENDBRANCH   5  11
ENDBRANCH   1   7
BRANCH   3  16
ATOM     16  C   UNL     1       2.922   4.521  17.638  0.00  0.00    +0.000 C 
BRANCH  16  17
ATOM     17  C   UNL     1       2.481   3.857  18.910  0.00  0.00    +0.000 A 
ATOM     18  C   UNL     1       3.414   3.259  19.775  0.00  0.00    +0.000 A 
ATOM     19  C   UNL     1       2.999   2.706  20.982  0.00  0.00    +0.000 A 
ATOM     20  C   UNL     1       1.653   2.748  21.325  0.00  0.00    +0.000 A 
ATOM     21  F   UNL     1       1.252   2.220  22.488  0.00  0.00    +0.000 F 
ATOM     22  C   UNL     1       0.716   3.341  20.485  0.00  0.00    +0.000 A 
ATOM     23  C   UNL     1       1.129   3.898  19.279  0.00  0.00    +0.000 A 
ENDBRANCH  16  17
ENDBRANCH   3  16
TORSDOF 6
ENDMDL
MODEL 3
REMARK VINA RESULT:      -7.4      1.606      2.192
REMARK  Name = 
REMARK  8 active torsions:
REMARK  status: ('A' for Active; 'I' for Inactive)
REMARK    1  A    between atoms: C_1  and  C_2
REMARK    2  A    between atoms: C_2  and  C_3
REMARK    3  A    between atoms: C_2  and  C_4
REMARK    4  A    between atoms: C_4  and  C_5
REMARK    5  A    between atoms: C_5  and  N_6
REMARK    6  A    between atoms: C_8  and  C_9
REMARK    7  A    between atoms: N_11  and  C_12
REMARK    8  A    between atoms: C_12  and  C_13
REMARK                            x       y       z     vdW  Elec       q    Type
REMARK                         _______ _______ _______ _____ _____    ______ ____
ROOT
ATOM      1  C   UNL     1       4.998   6.358  16.542  0.00  0.00    +0.000 C 
ATOM      2  O   UNL     1       4.785   6.989  15.514  0.00  0.00    +0.000 OA
ATOM      3  N   UNL     1       4.250   6.632  17.651  0.00  0.00    +0.000 N 
ATOM      4  H   UNL     1       3.569   7.371  17.514  0.00  0.00    +0.000 HD
ENDROOT
BRANCH   1   7
ATOM      5  N   UNL     1       6.472   4.328  14.535  0.00  0.00    +0.000 N 
ATOM      6  C   UNL     1       5.696   4.060  15.722  0.00  0.00    +0.000 C 
ATOM      7  C   UNL     1       6.018   5.228  16.638  0.00  0.00    +0.000 C 
ATOM      8  C   UNL     1       7.412   5.669  16.190  0.00  0.00    +0.000 C 
ATOM      9  C   UNL     1       7.492   5.232  14.758  0.00  0.00    +0.000 C 
ATOM     10  O   UNL     1       8.349   5.593  13.969  0.00  0.00    +0.000 OA
BRANCH   5  11
ATOM     11  C   UNL     1       6.332   3.561  13.314  0.00  0.00    +0.000 C 
BRANCH  11  12
ATOM     12  C   UNL     1       5.030   3.859  12.569  0.00  0.00    +0.000 C 
BRANCH  12  14
ATOM     13  C   UNL     1       5.489   1.702  11.292  0.00  0.00    +0.000 C 
ATOM     14  C   UNL     1       4.875   3.100  11.237  0.00  0.00    +0.000 C 
ATOM     15  C   UNL     1       3.395   3.012  10.862  0.00  0.00    +0.000 C 
ENDBRANCH  12  14
ENDBRANCH  11  12
ENDBRANCH   5  11
ENDBRANCH   1   7
BRANCH   3  16
ATOM     16  C   UNL     1       4.219   5.918  18.910  0.00  0.00    +0.000 C 
BRANCH  16  17
ATOM     17  C   UNL     1       3.064   4.962  18.984  0.00  0.00    +0.000 A 
ATOM     18  C   UNL     1       2.679   4.205  17.864  0.00  0.00    +0.000 A 
ATOM     19  C   UNL     1       1.649   3.276  17.965  0.00  0.00    +0.000 A 
ATOM     20  C   UNL     1       1.003   3.102  19.183  0.00  0.00    +0.000 A 
ATOM     21  F   UNL     1       0.014   2.206  19.283  0.00  0.00    +0.000 F 
ATOM     22  C   UNL     1       1.374   3.838  20.304  0.00  0.00    +0.000 A 
ATOM     23  C   UNL     1       2.406   4.766  20.206  0.00  0.00    +0.000 A 
ENDBRANCH  16  17
ENDBRANCH   3  16
TORSDOF 6
ENDMDL
MODEL 4
REMARK VINA RESULT:      -7.4      0.717      1.430
REMARK  Name = 
REMARK  8 active torsions:
REMARK  status: ('A' for Active; 'I' for Inactive)
REMARK    1  A    between atoms: C_1  and  C_2
REMARK    2  A    between atoms: C_2  and  C_3
REMARK    3  A    between atoms: C_2  and  C_4
REMARK    4  A    between atoms: C_4  and  C_5
REMARK    5  A    between atoms: C_5  and  N_6
REMARK    6  A    between atoms: C_8  and  C_9
REMARK    7  A    between atoms: N_11  and  C_12
REMARK    8  A    between atoms: C_12  and  C_13
REMARK                            x       y       z     vdW  Elec       q    Type
REMARK                         _______ _______ _______ _____ _____    ______ ____
ROOT
ATOM      1  C   UNL     1       3.911   6.038  17.798  0.00  0.00    +0.000 C 
ATOM      2  O   UNL     1       4.673   6.994  17.723  0.00  0.00    +0.000 OA
ATOM      3  N   UNL     1       2.570   6.273  17.924  0.00  0.00    +0.000 N 
ATOM      4  H   UNL     1       2.328   7.257  17.959  0.00  0.00    +0.000 HD
ENDROOT
BRANCH   1   7
ATOM      5  N   UNL     1       6.249   4.400  16.326  0.00  0.00    +0.000 N 
ATOM      6  C   UNL     1       4.819   4.211  16.290  0.00  0.00    +0.000 C 
ATOM      7  C   UNL     1       4.368   4.587  17.690  0.00  0.00    +0.000 C 
ATOM      8  C   UNL     1       5.594   4.303  18.558  0.00  0.00    +0.000 C 
ATOM      9  C   UNL     1       6.750   4.436  17.613  0.00  0.00    +0.000 C 
ATOM     10  O   UNL     1       7.919   4.510  17.952  0.00  0.00    +0.000 OA
BRANCH   5  11
ATOM     11  C   UNL     1       7.083   4.332  15.142  0.00  0.00    +0.000 C 
BRANCH  11  12
ATOM     12  C   UNL     1       6.336   4.720  13.866  0.00  0.00    +0.000 C 
BRANCH  12  14
ATOM     13  C   UNL     1       4.838   3.444  12.247  0.00  0.00    +0.000 C 
ATOM     14  C   UNL     1       6.247   3.593  12.818  0.00  0.00    +0.000 C 
ATOM     15  C   UNL     1       7.248   3.854  11.693  0.00  0.00    +0.000 C 
ENDBRANCH  12  14
ENDBRANCH  11  12
ENDBRANCH   5  11
ENDBRANCH   1   7
BRANCH   3  16
ATOM     16  C   UNL     1       1.484   5.317  17.873  0.00  0.00    +0.000 C 
BRANCH  16  17
ATOM     17  C   UNL     1       1.494   4.394  19.057  0.00  0.00    +0.000 A 
ATOM     18  C   UNL     1       1.221   3.024  18.909  0.00  0.00    +0.000 A 
ATOM     19  C   UNL     1       1.298   2.170  20.005  0.00  0.00    +0.000 A 
ATOM     20  C   UNL     1       1.647   2.684  21.247  0.00  0.00    +0.000 A 
ATOM     21  F   UNL     1       1.726   1.863  22.302  0.00  0.00    +0.000 F 
ATOM     22  C   UNL     1       1.926   4.037  21.413  0.00  0.00    +0.000 A 
ATOM     23  C   UNL     1       1.853   4.892  20.318  0.00  0.00    +0.000 A 
ENDBRANCH  16  17
ENDBRANCH   3  16
TORSDOF 6
ENDMDL
MODEL 5
REMARK VINA RESULT:      -7.3      4.365      5.792
REMARK  Name = 
REMARK  8 active torsions:
REMARK  status: ('A' for Active; 'I' for Inactive)
REMARK    1  A    between atoms: C_1  and  C_2
REMARK    2  A    between atoms: C_2  and  C_3
REMARK    3  A    between atoms: C_2  and  C_4
REMARK    4  A    between atoms: C_4  and  C_5
REMARK    5  A    between atoms: C_5  and  N_6
REMARK    6  A    between atoms: C_8  and  C_9
REMARK    7  A    between atoms: N_11  and  C_12
REMARK    8  A    between atoms: C_12  and  C_13
REMARK                            x       y       z     vdW  Elec       q    Type
REMARK                         _______ _______ _______ _____ _____    ______ ____
ROOT
ATOM      1  C   UNL     1       2.016   5.880  20.360  0.00  0.00    +0.000 C 
ATOM      2  O   UNL     1       2.148   4.880  21.054  0.00  0.00    +0.000 OA
ATOM      3  N   UNL     1       1.618   7.046  20.951  0.00  0.00    +0.000 N 
ATOM      4  H   UNL     1       1.451   6.963  21.948  0.00  0.00    +0.000 HD
ENDROOT
BRANCH   1   7
ATOM      5  N   UNL     1       4.237   4.654  18.389  0.00  0.00    +0.000 N 
ATOM      6  C   UNL     1       3.825   6.023  18.586  0.00  0.00    +0.000 C 
ATOM      7  C   UNL     1       2.337   5.917  18.869  0.00  0.00    +0.000 C 
ATOM      8  C   UNL     1       1.920   4.629  18.157  0.00  0.00    +0.000 C 
ATOM      9  C   UNL     1       3.177   3.813  18.113  0.00  0.00    +0.000 C 
ATOM     10  O   UNL     1       3.224   2.627  17.833  0.00  0.00    +0.000 OA
BRANCH   5  11
ATOM     11  C   UNL     1       5.626   4.259  18.270  0.00  0.00    +0.000 C 
BRANCH  11  12
ATOM     12  C   UNL     1       6.597   5.367  18.679  0.00  0.00    +0.000 C 
BRANCH  12  14
ATOM     13  C   UNL     1       6.944   5.461  16.156  0.00  0.00    +0.000 C 
ATOM     14  C   UNL     1       7.456   5.914  17.523  0.00  0.00    +0.000 C 
ATOM     15  C   UNL     1       7.501   7.441  17.590  0.00  0.00    +0.000 C 
ENDBRANCH  12  14
ENDBRANCH  11  12
ENDBRANCH   5  11
ENDBRANCH   1   7
BRANCH   3  16
ATOM     16  C   UNL     1       1.548   8.369  20.368  0.00  0.00    +0.000 C 
BRANCH  16  17
ATOM     17  C   UNL     1       0.640   9.276  21.145  0.00  0.00    +0.000 A 
ATOM     18  C   UNL     1       0.310   8.997  22.482  0.00  0.00    +0.000 A 
ATOM     19  C   UNL     1      -0.480   9.881  23.210  0.00  0.00    +0.000 A 
ATOM     20  C   UNL     1      -0.940  11.043  22.603  0.00  0.00    +0.000 A 
ATOM     21  F   UNL     1      -1.697  11.897  23.303  0.00  0.00    +0.000 F 
ATOM     22  C   UNL     1      -0.619  11.340  21.283  0.00  0.00    +0.000 A 
ATOM     23  C   UNL     1       0.174  10.459  20.554  0.00  0.00    +0.000 A 
ENDBRANCH  16  17
ENDBRANCH   3  16
TORSDOF 6
ENDMDL
MODEL 6
REMARK VINA RESULT:      -7.3      4.154      5.280
REMARK  Name = 
REMARK  8 active torsions:
REMARK  status: ('A' for Active; 'I' for Inactive)
REMARK    1  A    between atoms: C_1  and  C_2
REMARK    2  A    between atoms: C_2  and  C_3
REMARK    3  A    between atoms: C_2  and  C_4
REMARK    4  A    between atoms: C_4  and  C_5
REMARK    5  A    between atoms: C_5  and  N_6
REMARK    6  A    between atoms: C_8  and  C_9
REMARK    7  A    between atoms: N_11  and  C_12
REMARK    8  A    between atoms: C_12  and  C_13
REMARK                            x       y       z     vdW  Elec       q    Type
REMARK                         _______ _______ _______ _____ _____    ______ ____
ROOT
ATOM      1  C   UNL     1       2.019   5.639  20.171  0.00  0.00    +0.000 C 
ATOM      2  O   UNL     1       2.227   4.647  20.857  0.00  0.00    +0.000 OA
ATOM      3  N   UNL     1       1.811   6.839  20.791  0.00  0.00    +0.000 N 
ATOM      4  H   UNL     1       1.837   6.786  21.804  0.00  0.00    +0.000 HD
ENDROOT
BRANCH   1   7
ATOM      5  N   UNL     1       3.786   4.299  17.847  0.00  0.00    +0.000 N 
ATOM      6  C   UNL     1       3.451   5.684  18.076  0.00  0.00    +0.000 C 
ATOM      7  C   UNL     1       2.045   5.628  18.645  0.00  0.00    +0.000 C 
ATOM      8  C   UNL     1       1.469   4.333  18.069  0.00  0.00    +0.000 C 
ATOM      9  C   UNL     1       2.674   3.481  17.809  0.00  0.00    +0.000 C 
ATOM     10  O   UNL     1       2.640   2.287  17.562  0.00  0.00    +0.000 OA
BRANCH   5  11
ATOM     11  C   UNL     1       5.117   3.862  17.474  0.00  0.00    +0.000 C 
BRANCH  11  12
ATOM     12  C   UNL     1       5.361   3.919  15.965  0.00  0.00    +0.000 C 
BRANCH  12  14
ATOM     13  C   UNL     1       6.953   5.809  16.587  0.00  0.00    +0.000 C 
ATOM     14  C   UNL     1       6.088   5.192  15.490  0.00  0.00    +0.000 C 
ATOM     15  C   UNL     1       6.941   4.871  14.262  0.00  0.00    +0.000 C 
ENDBRANCH  12  14
ENDBRANCH  11  12
ENDBRANCH   5  11
ENDBRANCH   1   7
BRANCH   3  16
ATOM     16  C   UNL     1       1.704   8.152  20.192  0.00  0.00    +0.000 C 
BRANCH  16  17
ATOM     17  C   UNL     1       0.871   9.082  21.025  0.00  0.00    +0.000 A 
ATOM     18  C   UNL     1       0.206  10.175  20.444  0.00  0.00    +0.000 A 
ATOM     19  C   UNL     1      -0.614  10.990  21.218  0.00  0.00    +0.000 A 
ATOM     20  C   UNL     1      -0.770  10.714  22.571  0.00  0.00    +0.000 A 
ATOM     21  F   UNL     1      -1.562  11.494  23.316  0.00  0.00    +0.000 F 
ATOM     22  C   UNL     1      -0.125   9.633  23.162  0.00  0.00    +0.000 A 
ATOM     23  C   UNL     1       0.693   8.814  22.390  0.00  0.00    +0.000 A 
ENDBRANCH  16  17
ENDBRANCH   3  16
TORSDOF 6
ENDMDL
MODEL 7
REMARK VINA RESULT:      -7.3      2.996      3.892
REMARK  Name = 
REMARK  8 active torsions:
REMARK  status: ('A' for Active; 'I' for Inactive)
REMARK    1  A    between atoms: C_1  and  C_2
REMARK    2  A    between atoms: C_2  and  C_3
REMARK    3  A    between atoms: C_2  and  C_4
REMARK    4  A    between atoms: C_4  and  C_5
REMARK    5  A    between atoms: C_5  and  N_6
REMARK    6  A    between atoms: C_8  and  C_9
REMARK    7  A    between atoms: N_11  and  C_12
REMARK    8  A    between atoms: C_12  and  C_13
REMARK                            x       y       z     vdW  Elec       q    Type
REMARK                         _______ _______ _______ _____ _____    ______ ____
ROOT
ATOM      1  C   UNL     1       3.401   4.496  17.801  0.00  0.00    +0.000 C 
ATOM      2  O   UNL     1       3.000   3.595  17.074  0.00  0.00    +0.000 OA
ATOM      3  N   UNL     1       2.552   5.014  18.738  0.00  0.00    +0.000 N 
ATOM      4  H   UNL     1       1.629   4.593  18.732  0.00  0.00    +0.000 HD
ENDROOT
BRANCH   1   7
ATOM      5  N   UNL     1       5.719   4.901  15.614  0.00  0.00    +0.000 N 
ATOM      6  C   UNL     1       5.748   4.211  16.881  0.00  0.00    +0.000 C 
ATOM      7  C   UNL     1       4.827   5.034  17.764  0.00  0.00    +0.000 C 
ATOM      8  C   UNL     1       4.899   6.437  17.160  0.00  0.00    +0.000 C 
ATOM      9  C   UNL     1       5.260   6.199  15.724  0.00  0.00    +0.000 C 
ATOM     10  O   UNL     1       5.193   7.039  14.844  0.00  0.00    +0.000 OA
BRANCH   5  11
ATOM     11  C   UNL     1       6.317   4.361  14.410  0.00  0.00    +0.000 C 
BRANCH  11  12
ATOM     12  C   UNL     1       5.374   3.437  13.639  0.00  0.00    +0.000 C 
BRANCH  12  14
ATOM     13  C   UNL     1       6.542   2.357  11.648  0.00  0.00    +0.000 C 
ATOM     14  C   UNL     1       5.582   3.451  12.112  0.00  0.00    +0.000 C 
ATOM     15  C   UNL     1       4.234   3.304  11.406  0.00  0.00    +0.000 C 
ENDBRANCH  12  14
ENDBRANCH  11  12
ENDBRANCH   5  11
ENDBRANCH   1   7
BRANCH   3  16
ATOM     16  C   UNL     1       2.851   5.959  19.793  0.00  0.00    +0.000 C 
BRANCH  16  17
ATOM     17  C   UNL     1       2.216   7.296  19.544  0.00  0.00    +0.000 A 
ATOM     18  C   UNL     1       2.197   7.859  18.257  0.00  0.00    +0.000 A 
ATOM     19  C   UNL     1       1.548   9.068  18.029  0.00  0.00    +0.000 A 
ATOM     20  C   UNL     1       0.918   9.715  19.085  0.00  0.00    +0.000 A 
ATOM     21  F   UNL     1       0.289  10.875  18.867  0.00  0.00    +0.000 F 
ATOM     22  C   UNL     1       0.920   9.169  20.365  0.00  0.00    +0.000 A 
ATOM     23  C   UNL     1       1.566   7.959  20.595  0.00  0.00    +0.000 A 
ENDBRANCH  16  17
ENDBRANCH   3  16
TORSDOF 6
ENDMDL
MODEL 8
REMARK VINA RESULT:      -7.3      0.977      1.628
REMARK  Name = 
REMARK  8 active torsions:
REMARK  status: ('A' for Active; 'I' for Inactive)
REMARK    1  A    between atoms: C_1  and  C_2
REMARK    2  A    between atoms: C_2  and  C_3
REMARK    3  A    between atoms: C_2  and  C_4
REMARK    4  A    between atoms: C_4  and  C_5
REMARK    5  A    between atoms: C_5  and  N_6
REMARK    6  A    between atoms: C_8  and  C_9
REMARK    7  A    between atoms: N_11  and  C_12
REMARK    8  A    between atoms: C_12  and  C_13
REMARK                            x       y       z     vdW  Elec       q    Type
REMARK                         _______ _______ _______ _____ _____    ______ ____
ROOT
ATOM      1  C   UNL     1       4.634   5.877  17.433  0.00  0.00    +0.000 C 
ATOM      2  O   UNL     1       5.220   6.948  17.527  0.00  0.00    +0.000 OA
ATOM      3  N   UNL     1       3.292   5.835  17.689  0.00  0.00    +0.000 N 
ATOM      4  H   UNL     1       2.897   6.730  17.955  0.00  0.00    +0.000 HD
ENDROOT
BRANCH   1   7
ATOM      5  N   UNL     1       5.732   4.623  14.687  0.00  0.00    +0.000 N 
ATOM      6  C   UNL     1       4.792   4.087  15.642  0.00  0.00    +0.000 C 
ATOM      7  C   UNL     1       5.309   4.586  16.980  0.00  0.00    +0.000 C 
ATOM      8  C   UNL     1       6.809   4.771  16.747  0.00  0.00    +0.000 C 
ATOM      9  C   UNL     1       6.922   5.010  15.271  0.00  0.00    +0.000 C 
ATOM     10  O   UNL     1       7.922   5.427  14.711  0.00  0.00    +0.000 OA
BRANCH   5  11
ATOM     11  C   UNL     1       5.527   4.549  13.254  0.00  0.00    +0.000 C 
BRANCH  11  12
ATOM     12  C   UNL     1       6.257   3.370  12.610  0.00  0.00    +0.000 C 
BRANCH  12  14
ATOM     13  C   UNL     1       4.184   3.033  11.166  0.00  0.00    +0.000 C 
ATOM     14  C   UNL     1       5.329   2.354  11.916  0.00  0.00    +0.000 C 
ATOM     15  C   UNL     1       6.141   1.480  10.960  0.00  0.00    +0.000 C 
ENDBRANCH  12  14
ENDBRANCH  11  12
ENDBRANCH   5  11
ENDBRANCH   1   7
BRANCH   3  16
ATOM     16  C   UNL     1       2.377   4.730  17.492  0.00  0.00    +0.000 C 
BRANCH  16  17
ATOM     17  C   UNL     1       2.013   4.067  18.788  0.00  0.00    +0.000 A 
ATOM     18  C   UNL     1       1.665   2.706  18.832  0.00  0.00    +0.000 A 
ATOM     19  C   UNL     1       1.393   2.090  20.049  0.00  0.00    +0.000 A 
ATOM     20  C   UNL     1       1.469   2.831  21.222  0.00  0.00    +0.000 A 
ATOM     21  F   UNL     1       1.212   2.239  22.394  0.00  0.00    +0.000 F 
ATOM     22  C   UNL     1       1.817   4.178  21.199  0.00  0.00    +0.000 A 
ATOM     23  C   UNL     1       2.092   4.796  19.983  0.00  0.00    +0.000 A 
ENDBRANCH  16  17
ENDBRANCH   3  16
TORSDOF 6
ENDMDL
MODEL 9
REMARK VINA RESULT:      -7.2      1.122      1.352
REMARK  Name = 
REMARK  8 active torsions:
REMARK  status: ('A' for Active; 'I' for Inactive)
REMARK    1  A    between atoms: C_1  and  C_2
REMARK    2  A    between atoms: C_2  and  C_3
REMARK    3  A    between atoms: C_2  and  C_4
REMARK    4  A    between atoms: C_4  and  C_5
REMARK    5  A    between atoms: C_5  and  N_6
REMARK    6  A    between atoms: C_8  and  C_9
REMARK    7  A    between atoms: N_11  and  C_12
REMARK    8  A    between atoms: C_12  and  C_13
REMARK                            x       y       z     vdW  Elec       q    Type
REMARK                         _______ _______ _______ _____ _____    ______ ____
ROOT
ATOM      1  C   UNL     1       3.647   6.441  17.807  0.00  0.00    +0.000 C 
ATOM      2  O   UNL     1       3.891   7.641  17.788  0.00  0.00    +0.000 OA
ATOM      3  N   UNL     1       2.353   6.028  17.662  0.00  0.00    +0.000 N 
ATOM      4  H   UNL     1       1.689   6.789  17.561  0.00  0.00    +0.000 HD
ENDROOT
BRANCH   1   7
ATOM      5  N   UNL     1       5.988   5.239  15.964  0.00  0.00    +0.000 N 
ATOM      6  C   UNL     1       4.901   4.570  16.638  0.00  0.00    +0.000 C 
ATOM      7  C   UNL     1       4.724   5.366  17.919  0.00  0.00    +0.000 C 
ATOM      8  C   UNL     1       6.109   5.961  18.175  0.00  0.00    +0.000 C 
ATOM      9  C   UNL     1       6.732   6.035  16.813  0.00  0.00    +0.000 C 
ATOM     10  O   UNL     1       7.745   6.659  16.546  0.00  0.00    +0.000 OA
BRANCH   5  11
ATOM     11  C   UNL     1       6.382   4.927  14.605  0.00  0.00    +0.000 C 
BRANCH  11  12
ATOM     12  C   UNL     1       5.665   3.699  14.044  0.00  0.00    +0.000 C 
BRANCH  12  14
ATOM     13  C   UNL     1       4.790   3.351  11.676  0.00  0.00    +0.000 C 
ATOM     14  C   UNL     1       6.021   3.371  12.581  0.00  0.00    +0.000 C 
ATOM     15  C   UNL     1       7.043   4.382  12.060  0.00  0.00    +0.000 C 
ENDBRANCH  12  14
ENDBRANCH  11  12
ENDBRANCH   5  11
ENDBRANCH   1   7
BRANCH   3  16
ATOM     16  C   UNL     1       1.855   4.679  17.499  0.00  0.00    +0.000 C 
BRANCH  16  17
ATOM     17  C   UNL     1       1.847   3.924  18.796  0.00  0.00    +0.000 A 
ATOM     18  C   UNL     1       1.359   4.515  19.974  0.00  0.00    +0.000 A 
ATOM     19  C   UNL     1       1.297   3.782  21.155  0.00  0.00    +0.000 A 
ATOM     20  C   UNL     1       1.723   2.459  21.160  0.00  0.00    +0.000 A 
ATOM     21  F   UNL     1       1.660   1.751  22.293  0.00  0.00    +0.000 F 
ATOM     22  C   UNL     1       2.204   1.855  20.002  0.00  0.00    +0.000 A 
ATOM     23  C   UNL     1       2.263   2.585  18.820  0.00  0.00    +0.000 A 
ENDBRANCH  16  17
ENDBRANCH   3  16
TORSDOF 6
ENDMDL
