MODEL 1
REMARK VINA RESULT:      -7.7      0.000      0.000
REMARK  Name = 
REMARK  6 active torsions:
REMARK  status: ('A' for Active; 'I' for Inactive)
REMARK    1  A    between atoms: C_1  and  O_2
REMARK    2  A    between atoms: O_2  and  C_3
REMARK    3  A    between atoms: C_8  and  C_9
REMARK    4  A    between atoms: C_9  and  O_10
REMARK    5  A    between atoms: C_9  and  C_11
REMARK    6  A    between atoms: C_13  and  C_14
REMARK                            x       y       z     vdW  Elec       q    Type
REMARK                         _______ _______ _______ _____ _____    ______ ____
ROOT
ATOM      1  C   UNL     1       3.424   4.418  19.048  0.00  0.00    +0.000 A 
ATOM      2  N   UNL     1       3.097   5.613  18.580  0.00  0.00    +0.000 NA
ATOM      3  C   UNL     1       2.367   6.235  19.569  0.00  0.00    +0.000 A 
ATOM      4  C   UNL     1       2.189   5.379  20.631  0.00  0.00    +0.000 A 
ATOM      5  N   UNL     1       2.845   4.228  20.282  0.00  0.00    +0.000 N 
ATOM      6  H   UNL     1       2.953   3.404  20.854  0.00  0.00    +0.000 HD
ENDROOT
BRANCH   3   7
ATOM      7  C   UNL     1       1.944   7.626  19.504  0.00  0.00    +0.000 A 
ATOM      8  C   UNL     1       2.040   8.384  18.328  0.00  0.00    +0.000 A 
ATOM      9  C   UNL     1       1.577   9.709  18.287  0.00  0.00    +0.000 A 
ATOM     10  C   UNL     1       1.015  10.281  19.425  0.00  0.00    +0.000 A 
ATOM     11 CL   UNL     1       0.437  11.902  19.373  0.00  0.00    +0.000 Cl
ATOM     12  C   UNL     1       0.916   9.548  20.604  0.00  0.00    +0.000 A 
ATOM     13  C   UNL     1       1.385   8.229  20.642  0.00  0.00    +0.000 A 
ENDBRANCH   3   7
BRANCH   1  14
ATOM     14  C   UNL     1       4.380   3.397  18.470  0.00  0.00    +0.000 C 
BRANCH  14  20
ATOM     15  C   UNL     1       6.476   4.645  17.684  0.00  0.00    +0.000 A 
ATOM     16  C   UNL     1       7.223   5.233  16.654  0.00  0.00    +0.000 A 
ATOM     17  C   UNL     1       6.845   5.077  15.321  0.00  0.00    +0.000 A 
ATOM     18  C   UNL     1       5.721   4.325  15.003  0.00  0.00    +0.000 A 
ATOM     19  C   UNL     1       4.956   3.753  16.020  0.00  0.00    +0.000 A 
ATOM     20  C   UNL     1       5.300   3.925  17.377  0.00  0.00    +0.000 A 
BRANCH  15  22
ATOM     21  C   UNL     1       7.765   5.764  19.341  0.00  0.00    +0.000 C 
ATOM     22  O   UNL     1       6.809   4.758  19.011  0.00  0.00    +0.000 OA
ENDBRANCH  15  22
ENDBRANCH  14  20
BRANCH  14  23
ATOM     23  O   UNL     1       5.151   2.848  19.545  0.00  0.00    +0.000 OA
ATOM     24  H   UNL     1       5.948   3.390  19.645  0.00  0.00    +0.000 HD
ENDBRANCH  14  23
ENDBRANCH   1  14
TORSDOF 5
ENDMDL
MODEL 2
REMARK VINA RESULT:      -7.6      0.199      1.046
REMARK  Name = 
REMARK  6 active torsions:
REMARK  status: ('A' for Active; 'I' for Inactive)
REMARK    1  A    between atoms: C_1  and  O_2
REMARK    2  A    between atoms: O_2  and  C_3
REMARK    3  A    between atoms: C_8  and  C_9
REMARK    4  A    between atoms: C_9  and  O_10
REMARK    5  A    between atoms: C_9  and  C_11
REMARK    6  A    between atoms: C_13  and  C_14
REMARK                            x       y       z     vdW  Elec       q    Type
REMARK                         _______ _______ _______ _____ _____    ______ ____
ROOT
ATOM      1  C   UNL     1       3.442   4.441  19.024  0.00  0.00    +0.000 A 
ATOM      2  N   UNL     1       3.082   5.607  18.508  0.00  0.00    +0.000 NA
ATOM      3  C   UNL     1       2.372   6.266  19.489  0.00  0.00    +0.000 A 
ATOM      4  C   UNL     1       2.239   5.460  20.596  0.00  0.00    +0.000 A 
ATOM      5  N   UNL     1       2.903   4.303  20.282  0.00  0.00    +0.000 N 
ATOM      6  H   UNL     1       3.042   3.509  20.890  0.00  0.00    +0.000 HD
ENDROOT
BRANCH   3   7
ATOM      7  C   UNL     1       1.925   7.646  19.369  0.00  0.00    +0.000 A 
ATOM      8  C   UNL     1       1.335   8.337  20.437  0.00  0.00    +0.000 A 
ATOM      9  C   UNL     1       0.960   9.683  20.301  0.00  0.00    +0.000 A 
ATOM     10  C   UNL     1       1.176  10.344  19.095  0.00  0.00    +0.000 A 
ATOM     11 CL   UNL     1       0.727  11.998  18.931  0.00  0.00    +0.000 Cl
ATOM     12  C   UNL     1       1.754   9.673  18.021  0.00  0.00    +0.000 A 
ATOM     13  C   UNL     1       2.121   8.329  18.159  0.00  0.00    +0.000 A 
ENDBRANCH   3   7
BRANCH   1  14
ATOM     14  C   UNL     1       4.397   3.408  18.466  0.00  0.00    +0.000 C 
BRANCH  14  20
ATOM     15  C   UNL     1       6.476   4.697  17.706  0.00  0.00    +0.000 A 
ATOM     16  C   UNL     1       7.243   5.266  16.679  0.00  0.00    +0.000 A 
ATOM     17  C   UNL     1       6.925   5.037  15.341  0.00  0.00    +0.000 A 
ATOM     18  C   UNL     1       5.842   4.230  15.015  0.00  0.00    +0.000 A 
ATOM     19  C   UNL     1       5.058   3.675  16.027  0.00  0.00    +0.000 A 
ATOM     20  C   UNL     1       5.341   3.921  17.386  0.00  0.00    +0.000 A 
BRANCH  15  22
ATOM     21  C   UNL     1       7.834   5.758  19.346  0.00  0.00    +0.000 C 
ATOM     22  O   UNL     1       6.751   4.881  19.038  0.00  0.00    +0.000 OA
ENDBRANCH  15  22
ENDBRANCH  14  20
BRANCH  14  23
ATOM     23  O   UNL     1       5.144   2.855  19.556  0.00  0.00    +0.000 OA
ATOM     24  H   UNL     1       5.235   3.543  20.232  0.00  0.00    +0.000 HD
ENDBRANCH  14  23
ENDBRANCH   1  14
TORSDOF 5
ENDMDL
MODEL 3
REMARK VINA RESULT:      -7.3      1.393      2.176
REMARK  Name = 
REMARK  6 active torsions:
REMARK  status: ('A' for Active; 'I' for Inactive)
REMARK    1  A    between atoms: C_1  and  O_2
REMARK    2  A    between atoms: O_2  and  C_3
REMARK    3  A    between atoms: C_8  and  C_9
REMARK    4  A    between atoms: C_9  and  O_10
REMARK    5  A    between atoms: C_9  and  C_11
REMARK    6  A    between atoms: C_13  and  C_14
REMARK                            x       y       z     vdW  Elec       q    Type
REMARK                         _______ _______ _______ _____ _____    ______ ____
ROOT
ATOM      1  C   UNL     1       3.166   6.014  18.710  0.00  0.00    +0.000 A 
ATOM      2  N   UNL     1       2.562   6.516  19.776  0.00  0.00    +0.000 NA
ATOM      3  C   UNL     1       2.150   7.785  19.432  0.00  0.00    +0.000 A 
ATOM      4  C   UNL     1       2.570   8.086  18.156  0.00  0.00    +0.000 A 
ATOM      5  N   UNL     1       3.227   6.967  17.719  0.00  0.00    +0.000 N 
ATOM      6  H   UNL     1       3.627   6.827  16.802  0.00  0.00    +0.000 HD
ENDROOT
BRANCH   3   7
ATOM      7  C   UNL     1       1.314   8.619  20.282  0.00  0.00    +0.000 A 
ATOM      8  C   UNL     1       1.211   8.412  21.665  0.00  0.00    +0.000 A 
ATOM      9  C   UNL     1       0.433   9.266  22.463  0.00  0.00    +0.000 A 
ATOM     10  C   UNL     1      -0.245  10.333  21.880  0.00  0.00    +0.000 A 
ATOM     11 CL   UNL     1      -1.189  11.387  22.859  0.00  0.00    +0.000 Cl
ATOM     12  C   UNL     1      -0.160  10.552  20.508  0.00  0.00    +0.000 A 
ATOM     13  C   UNL     1       0.612   9.694  19.714  0.00  0.00    +0.000 A 
ENDBRANCH   3   7
BRANCH   1  14
ATOM     14  C   UNL     1       3.635   4.597  18.460  0.00  0.00    +0.000 C 
BRANCH  14  20
ATOM     15  C   UNL     1       6.141   4.756  17.951  0.00  0.00    +0.000 A 
ATOM     16  C   UNL     1       7.193   4.762  17.024  0.00  0.00    +0.000 A 
ATOM     17  C   UNL     1       6.965   4.443  15.686  0.00  0.00    +0.000 A 
ATOM     18  C   UNL     1       5.686   4.107  15.262  0.00  0.00    +0.000 A 
ATOM     19  C   UNL     1       4.626   4.118  16.170  0.00  0.00    +0.000 A 
ATOM     20  C   UNL     1       4.827   4.470  17.521  0.00  0.00    +0.000 A 
BRANCH  15  22
ATOM     21  C   UNL     1       7.554   5.653  19.642  0.00  0.00    +0.000 C 
ATOM     22  O   UNL     1       6.312   5.051  19.281  0.00  0.00    +0.000 OA
ENDBRANCH  15  22
ENDBRANCH  14  20
BRANCH  14  23
ATOM     23  O   UNL     1       3.936   3.996  19.726  0.00  0.00    +0.000 OA
ATOM     24  H   UNL     1       4.294   3.113  19.557  0.00  0.00    +0.000 HD
ENDBRANCH  14  23
ENDBRANCH   1  14
TORSDOF 5
ENDMDL
MODEL 4
REMARK VINA RESULT:      -7.3      4.465      6.444
REMARK  Name = 
REMARK  6 active torsions:
REMARK  status: ('A' for Active; 'I' for Inactive)
REMARK    1  A    between atoms: C_1  and  O_2
REMARK    2  A    between atoms: O_2  and  C_3
REMARK    3  A    between atoms: C_8  and  C_9
REMARK    4  A    between atoms: C_9  and  O_10
REMARK    5  A    between atoms: C_9  and  C_11
REMARK    6  A    between atoms: C_13  and  C_14
REMARK                            x       y       z     vdW  Elec       q    Type
REMARK                         _______ _______ _______ _____ _____    ______ ____
ROOT
ATOM      1  C   UNL     1       7.726   6.797  18.401  0.00  0.00    +0.000 A 
ATOM      2  N   UNL     1       8.574   7.621  18.997  0.00  0.00    +0.000 NA
ATOM      3  C   UNL     1       8.455   8.836  18.356  0.00  0.00    +0.000 A 
ATOM      4  C   UNL     1       7.568   8.731  17.310  0.00  0.00    +0.000 A 
ATOM      5  N   UNL     1       7.130   7.433  17.336  0.00  0.00    +0.000 N 
ATOM      6  H   UNL     1       6.433   7.024  16.730  0.00  0.00    +0.000 HD
ENDROOT
BRANCH   3   7
ATOM      7  C   UNL     1       9.115  10.052  18.809  0.00  0.00    +0.000 A 
ATOM      8  C   UNL     1       9.260  10.364  20.168  0.00  0.00    +0.000 A 
ATOM      9  C   UNL     1       9.945  11.522  20.569  0.00  0.00    +0.000 A 
ATOM     10  C   UNL     1      10.489  12.373  19.610  0.00  0.00    +0.000 A 
ATOM     11 CL   UNL     1      11.338  13.787  20.102  0.00  0.00    +0.000 Cl
ATOM     12  C   UNL     1      10.350  12.083  18.256  0.00  0.00    +0.000 A 
ATOM     13  C   UNL     1       9.660  10.931  17.860  0.00  0.00    +0.000 A 
ENDBRANCH   3   7
BRANCH   1  14
ATOM     14  C   UNL     1       7.301   5.404  18.815  0.00  0.00    +0.000 C 
BRANCH  14  20
ATOM     15  C   UNL     1       5.612   4.532  17.098  0.00  0.00    +0.000 A 
ATOM     16  C   UNL     1       4.284   4.312  16.706  0.00  0.00    +0.000 A 
ATOM     17  C   UNL     1       3.234   4.517  17.600  0.00  0.00    +0.000 A 
ATOM     18  C   UNL     1       3.500   4.935  18.897  0.00  0.00    +0.000 A 
ATOM     19  C   UNL     1       4.816   5.179  19.294  0.00  0.00    +0.000 A 
ATOM     20  C   UNL     1       5.891   5.011  18.396  0.00  0.00    +0.000 A 
BRANCH  15  22
ATOM     21  C   UNL     1       6.384   4.182  14.874  0.00  0.00    +0.000 C 
ATOM     22  O   UNL     1       6.682   4.336  16.261  0.00  0.00    +0.000 OA
ENDBRANCH  15  22
ENDBRANCH  14  20
BRANCH  14  23
ATOM     23  O   UNL     1       8.253   4.472  18.288  0.00  0.00    +0.000 OA
ATOM     24  H   UNL     1       8.419   4.709  17.364  0.00  0.00    +0.000 HD
ENDBRANCH  14  23
ENDBRANCH   1  14
TORSDOF 5
ENDMDL
MODEL 5
REMARK VINA RESULT:      -7.2      1.475      2.104
REMARK  Name = 
REMARK  6 active torsions:
REMARK  status: ('A' for Active; 'I' for Inactive)
REMARK    1  A    between atoms: C_1  and  O_2
REMARK    2  A    between atoms: O_2  and  C_3
REMARK    3  A    between atoms: C_8  and  C_9
REMARK    4  A    between atoms: C_9  and  O_10
REMARK    5  A    between atoms: C_9  and  C_11
REMARK    6  A    between atoms: C_13  and  C_14
REMARK                            x       y       z     vdW  Elec       q    Type
REMARK                         _______ _______ _______ _____ _____    ______ ____
ROOT
ATOM      1  C   UNL     1       3.122   6.161  18.690  0.00  0.00    +0.000 A 
ATOM      2  N   UNL     1       2.546   6.668  19.769  0.00  0.00    +0.000 NA
ATOM      3  C   UNL     1       2.094   7.923  19.418  0.00  0.00    +0.000 A 
ATOM      4  C   UNL     1       2.461   8.210  18.123  0.00  0.00    +0.000 A 
ATOM      5  N   UNL     1       3.126   7.097  17.681  0.00  0.00    +0.000 N 
ATOM      6  H   UNL     1       3.495   6.950  16.753  0.00  0.00    +0.000 HD
ENDROOT
BRANCH   3   7
ATOM      7  C   UNL     1       1.272   8.753  20.285  0.00  0.00    +0.000 A 
ATOM      8  C   UNL     1       0.420   9.747  19.782  0.00  0.00    +0.000 A 
ATOM      9  C   UNL     1      -0.396  10.496  20.644  0.00  0.00    +0.000 A 
ATOM     10  C   UNL     1      -0.364  10.254  22.014  0.00  0.00    +0.000 A 
ATOM     11 CL   UNL     1      -1.372  11.165  23.071  0.00  0.00    +0.000 Cl
ATOM     12  C   UNL     1       0.479   9.276  22.534  0.00  0.00    +0.000 A 
ATOM     13  C   UNL     1       1.296   8.534  21.671  0.00  0.00    +0.000 A 
ENDBRANCH   3   7
BRANCH   1  14
ATOM     14  C   UNL     1       3.613   4.750  18.447  0.00  0.00    +0.000 C 
BRANCH  14  20
ATOM     15  C   UNL     1       6.098   5.053  17.902  0.00  0.00    +0.000 A 
ATOM     16  C   UNL     1       7.143   5.063  16.967  0.00  0.00    +0.000 A 
ATOM     17  C   UNL     1       6.934   4.622  15.661  0.00  0.00    +0.000 A 
ATOM     18  C   UNL     1       5.681   4.158  15.278  0.00  0.00    +0.000 A 
ATOM     19  C   UNL     1       4.627   4.164  16.192  0.00  0.00    +0.000 A 
ATOM     20  C   UNL     1       4.807   4.637  17.508  0.00  0.00    +0.000 A 
BRANCH  15  22
ATOM     21  C   UNL     1       7.591   5.675  19.647  0.00  0.00    +0.000 C 
ATOM     22  O   UNL     1       6.251   5.466  19.202  0.00  0.00    +0.000 OA
ENDBRANCH  15  22
ENDBRANCH  14  20
BRANCH  14  23
ATOM     23  O   UNL     1       3.922   4.160  19.715  0.00  0.00    +0.000 OA
ATOM     24  H   UNL     1       3.099   3.808  20.087  0.00  0.00    +0.000 HD
ENDBRANCH  14  23
ENDBRANCH   1  14
TORSDOF 5
ENDMDL
MODEL 6
REMARK VINA RESULT:      -7.2      4.426      6.286
REMARK  Name = 
REMARK  6 active torsions:
REMARK  status: ('A' for Active; 'I' for Inactive)
REMARK    1  A    between atoms: C_1  and  O_2
REMARK    2  A    between atoms: O_2  and  C_3
REMARK    3  A    between atoms: C_8  and  C_9
REMARK    4  A    between atoms: C_9  and  O_10
REMARK    5  A    between atoms: C_9  and  C_11
REMARK    6  A    between atoms: C_13  and  C_14
REMARK                            x       y       z     vdW  Elec       q    Type
REMARK                         _______ _______ _______ _____ _____    ______ ____
ROOT
ATOM      1  C   UNL     1       7.743   6.796  18.339  0.00  0.00    +0.000 A 
ATOM      2  N   UNL     1       8.584   7.627  18.935  0.00  0.00    +0.000 NA
ATOM      3  C   UNL     1       8.434   8.849  18.314  0.00  0.00    +0.000 A 
ATOM      4  C   UNL     1       7.536   8.742  17.277  0.00  0.00    +0.000 A 
ATOM      5  N   UNL     1       7.122   7.436  17.292  0.00  0.00    +0.000 N 
ATOM      6  H   UNL     1       6.424   7.023  16.689  0.00  0.00    +0.000 HD
ENDROOT
BRANCH   3   7
ATOM      7  C   UNL     1       9.077  10.070  18.774  0.00  0.00    +0.000 A 
ATOM      8  C   UNL     1       9.488  11.079  17.892  0.00  0.00    +0.000 A 
ATOM      9  C   UNL     1      10.061  12.266  18.374  0.00  0.00    +0.000 A 
ATOM     10  C   UNL     1      10.224  12.450  19.745  0.00  0.00    +0.000 A 
ATOM     11 CL   UNL     1      10.916  13.909  20.339  0.00  0.00    +0.000 Cl
ATOM     12  C   UNL     1       9.829  11.457  20.637  0.00  0.00    +0.000 A 
ATOM     13  C   UNL     1       9.263  10.272  20.151  0.00  0.00    +0.000 A 
ENDBRANCH   3   7
BRANCH   1  14
ATOM     14  C   UNL     1       7.349   5.390  18.739  0.00  0.00    +0.000 C 
BRANCH  14  20
ATOM     15  C   UNL     1       5.656   4.511  17.029  0.00  0.00    +0.000 A 
ATOM     16  C   UNL     1       4.328   4.271  16.650  0.00  0.00    +0.000 A 
ATOM     17  C   UNL     1       3.285   4.442  17.560  0.00  0.00    +0.000 A 
ATOM     18  C   UNL     1       3.560   4.847  18.860  0.00  0.00    +0.000 A 
ATOM     19  C   UNL     1       4.875   5.111  19.244  0.00  0.00    +0.000 A 
ATOM     20  C   UNL     1       5.942   4.976  18.332  0.00  0.00    +0.000 A 
BRANCH  15  22
ATOM     21  C   UNL     1       6.407   4.183  14.795  0.00  0.00    +0.000 C 
ATOM     22  O   UNL     1       6.720   4.348  16.178  0.00  0.00    +0.000 OA
ENDBRANCH  15  22
ENDBRANCH  14  20
BRANCH  14  23
ATOM     23  O   UNL     1       8.312   4.483  18.189  0.00  0.00    +0.000 OA
ATOM     24  H   UNL     1       8.202   4.481  17.227  0.00  0.00    +0.000 HD
ENDBRANCH  14  23
ENDBRANCH   1  14
TORSDOF 5
ENDMDL
MODEL 7
REMARK VINA RESULT:      -7.1      1.041      1.567
REMARK  Name = 
REMARK  6 active torsions:
REMARK  status: ('A' for Active; 'I' for Inactive)
REMARK    1  A    between atoms: C_1  and  O_2
REMARK    2  A    between atoms: O_2  and  C_3
REMARK    3  A    between atoms: C_8  and  C_9
REMARK    4  A    between atoms: C_9  and  O_10
REMARK    5  A    between atoms: C_9  and  C_11
REMARK    6  A    between atoms: C_13  and  C_14
REMARK                            x       y       z     vdW  Elec       q    Type
REMARK                         _______ _______ _______ _____ _____    ______ ____
ROOT
ATOM      1  C   UNL     1       4.301   5.119  19.041  0.00  0.00    +0.000 A 
ATOM      2  N   UNL     1       3.873   6.314  18.663  0.00  0.00    +0.000 NA
ATOM      3  C   UNL     1       2.699   6.544  19.348  0.00  0.00    +0.000 A 
ATOM      4  C   UNL     1       2.372   5.442  20.104  0.00  0.00    +0.000 A 
ATOM      5  N   UNL     1       3.382   4.542  19.886  0.00  0.00    +0.000 N 
ATOM      6  H   UNL     1       3.482   3.637  20.323  0.00  0.00    +0.000 HD
ENDROOT
BRANCH   3   7
ATOM      7  C   UNL     1       1.988   7.813  19.323  0.00  0.00    +0.000 A 
ATOM      8  C   UNL     1       1.393   8.361  20.469  0.00  0.00    +0.000 A 
ATOM      9  C   UNL     1       0.757   9.612  20.419  0.00  0.00    +0.000 A 
ATOM     10  C   UNL     1       0.715  10.321  19.222  0.00  0.00    +0.000 A 
ATOM     11 CL   UNL     1      -0.055  11.859  19.163  0.00  0.00    +0.000 Cl
ATOM     12  C   UNL     1       1.294   9.791  18.072  0.00  0.00    +0.000 A 
ATOM     13  C   UNL     1       1.922   8.540  18.124  0.00  0.00    +0.000 A 
ENDBRANCH   3   7
BRANCH   1  14
ATOM     14  C   UNL     1       5.630   4.451  18.759  0.00  0.00    +0.000 C 
BRANCH  14  20
ATOM     15  C   UNL     1       7.023   5.527  16.898  0.00  0.00    +0.000 A 
ATOM     16  C   UNL     1       7.328   5.667  15.537  0.00  0.00    +0.000 A 
ATOM     17  C   UNL     1       6.765   4.814  14.589  0.00  0.00    +0.000 A 
ATOM     18  C   UNL     1       5.898   3.806  14.993  0.00  0.00    +0.000 A 
ATOM     19  C   UNL     1       5.570   3.669  16.342  0.00  0.00    +0.000 A 
ATOM     20  C   UNL     1       6.101   4.542  17.314  0.00  0.00    +0.000 A 
BRANCH  15  22
ATOM     21  C   UNL     1       7.675   7.719  17.555  0.00  0.00    +0.000 C 
ATOM     22  O   UNL     1       7.558   6.333  17.872  0.00  0.00    +0.000 OA
ENDBRANCH  15  22
ENDBRANCH  14  20
BRANCH  14  23
ATOM     23  O   UNL     1       6.610   5.017  19.637  0.00  0.00    +0.000 OA
ATOM     24  H   UNL     1       6.669   5.964  19.444  0.00  0.00    +0.000 HD
ENDBRANCH  14  23
ENDBRANCH   1  14
TORSDOF 5
ENDMDL
MODEL 8
REMARK VINA RESULT:      -7.1      1.003      1.121
REMARK  Name = 
REMARK  6 active torsions:
REMARK  status: ('A' for Active; 'I' for Inactive)
REMARK    1  A    between atoms: C_1  and  O_2
REMARK    2  A    between atoms: O_2  and  C_3
REMARK    3  A    between atoms: C_8  and  C_9
REMARK    4  A    between atoms: C_9  and  O_10
REMARK    5  A    between atoms: C_9  and  C_11
REMARK    6  A    between atoms: C_13  and  C_14
REMARK                            x       y       z     vdW  Elec       q    Type
REMARK                         _______ _______ _______ _____ _____    ______ ____
ROOT
ATOM      1  C   UNL     1       4.175   5.100  19.151  0.00  0.00    +0.000 A 
ATOM      2  N   UNL     1       3.791   6.318  18.800  0.00  0.00    +0.000 NA
ATOM      3  C   UNL     1       2.620   6.571  19.481  0.00  0.00    +0.000 A 
ATOM      4  C   UNL     1       2.249   5.463  20.207  0.00  0.00    +0.000 A 
ATOM      5  N   UNL     1       3.230   4.535  19.975  0.00  0.00    +0.000 N 
ATOM      6  H   UNL     1       3.295   3.616  20.391  0.00  0.00    +0.000 HD
ENDROOT
BRANCH   3   7
ATOM      7  C   UNL     1       1.953   7.864  19.482  0.00  0.00    +0.000 A 
ATOM      8  C   UNL     1       1.860   8.660  18.332  0.00  0.00    +0.000 A 
ATOM      9  C   UNL     1       1.166   9.881  18.357  0.00  0.00    +0.000 A 
ATOM     10  C   UNL     1       0.561  10.310  19.535  0.00  0.00    +0.000 A 
ATOM     11 CL   UNL     1      -0.299  11.800  19.564  0.00  0.00    +0.000 Cl
ATOM     12  C   UNL     1       0.648   9.537  20.690  0.00  0.00    +0.000 A 
ATOM     13  C   UNL     1       1.346   8.323  20.662  0.00  0.00    +0.000 A 
ENDBRANCH   3   7
BRANCH   1  14
ATOM     14  C   UNL     1       5.483   4.394  18.863  0.00  0.00    +0.000 C 
BRANCH  14  20
ATOM     15  C   UNL     1       6.856   5.536  17.027  0.00  0.00    +0.000 A 
ATOM     16  C   UNL     1       7.176   5.693  15.671  0.00  0.00    +0.000 A 
ATOM     17  C   UNL     1       6.667   4.818  14.713  0.00  0.00    +0.000 A 
ATOM     18  C   UNL     1       5.840   3.771  15.101  0.00  0.00    +0.000 A 
ATOM     19  C   UNL     1       5.496   3.616  16.444  0.00  0.00    +0.000 A 
ATOM     20  C   UNL     1       5.973   4.510  17.426  0.00  0.00    +0.000 A 
BRANCH  15  22
ATOM     21  C   UNL     1       7.630   7.705  17.626  0.00  0.00    +0.000 C 
ATOM     22  O   UNL     1       7.338   6.362  18.011  0.00  0.00    +0.000 OA
ENDBRANCH  15  22
ENDBRANCH  14  20
BRANCH  14  23
ATOM     23  O   UNL     1       6.472   4.900  19.767  0.00  0.00    +0.000 OA
ATOM     24  H   UNL     1       7.313   4.951  19.288  0.00  0.00    +0.000 HD
ENDBRANCH  14  23
ENDBRANCH   1  14
TORSDOF 5
ENDMDL
MODEL 9
REMARK VINA RESULT:      -7.1      2.319      4.218
REMARK  Name = 
REMARK  6 active torsions:
REMARK  status: ('A' for Active; 'I' for Inactive)
REMARK    1  A    between atoms: C_1  and  O_2
REMARK    2  A    between atoms: O_2  and  C_3
REMARK    3  A    between atoms: C_8  and  C_9
REMARK    4  A    between atoms: C_9  and  O_10
REMARK    5  A    between atoms: C_9  and  C_11
REMARK    6  A    between atoms: C_13  and  C_14
REMARK                            x       y       z     vdW  Elec       q    Type
REMARK                         _______ _______ _______ _____ _____    ______ ____
ROOT
ATOM      1  C   UNL     1       2.522   7.212  19.489  0.00  0.00    +0.000 A 
ATOM      2  N   UNL     1       1.703   8.064  20.086  0.00  0.00    +0.000 NA
ATOM      3  C   UNL     1       1.295   8.959  19.119  0.00  0.00    +0.000 A 
ATOM      4  C   UNL     1       1.930   8.686  17.929  0.00  0.00    +0.000 A 
ATOM      5  N   UNL     1       2.717   7.593  18.181  0.00  0.00    +0.000 N 
ATOM      6  H   UNL     1       3.288   7.099  17.510  0.00  0.00    +0.000 HD
ENDROOT
BRANCH   3   7
ATOM      7  C   UNL     1       0.272   9.970  19.338  0.00  0.00    +0.000 A 
ATOM      8  C   UNL     1      -0.658  10.321  18.349  0.00  0.00    +0.000 A 
ATOM      9  C   UNL     1      -1.663  11.265  18.610  0.00  0.00    +0.000 A 
ATOM     10  C   UNL     1      -1.742  11.863  19.865  0.00  0.00    +0.000 A 
ATOM     11 CL   UNL     1      -2.980  13.013  20.191  0.00  0.00    +0.000 Cl
ATOM     12  C   UNL     1      -0.824  11.533  20.859  0.00  0.00    +0.000 A 
ATOM     13  C   UNL     1       0.180  10.594  20.591  0.00  0.00    +0.000 A 
ENDBRANCH   3   7
BRANCH   1  14
ATOM     14  C   UNL     1       3.104   5.920  20.020  0.00  0.00    +0.000 C 
BRANCH  14  20
ATOM     15  C   UNL     1       2.561   4.116  18.284  0.00  0.00    +0.000 A 
ATOM     16  C   UNL     1       1.774   3.034  17.864  0.00  0.00    +0.000 A 
ATOM     17  C   UNL     1       0.841   2.455  18.723  0.00  0.00    +0.000 A 
ATOM     18  C   UNL     1       0.692   2.945  20.015  0.00  0.00    +0.000 A 
ATOM     19  C   UNL     1       1.453   4.034  20.439  0.00  0.00    +0.000 A 
ATOM     20  C   UNL     1       2.378   4.657  19.576  0.00  0.00    +0.000 A 
BRANCH  15  22
ATOM     21  C   UNL     1       4.396   3.844  16.795  0.00  0.00    +0.000 C 
ATOM     22  O   UNL     1       3.500   4.716  17.483  0.00  0.00    +0.000 OA
ENDBRANCH  15  22
ENDBRANCH  14  20
BRANCH  14  23
ATOM     23  O   UNL     1       4.483   5.860  19.636  0.00  0.00    +0.000 OA
ATOM     24  H   UNL     1       4.581   5.143  18.994  0.00  0.00    +0.000 HD
ENDBRANCH  14  23
ENDBRANCH   1  14
TORSDOF 5
ENDMDL
