MODEL 1
REMARK VINA RESULT:      -7.5      0.000      0.000
REMARK  Name = 
REMARK  5 active torsions:
REMARK  status: ('A' for Active; 'I' for Inactive)
REMARK    1  A    between atoms: C_2  and  C_4
REMARK    2  A    between atoms: N_6  and  C_7
REMARK    3  A    between atoms: C_10  and  C_11
REMARK    4  A    between atoms: N_16  and  C_17
REMARK    5  A    between atoms: C_17  and  C_18
REMARK                            x       y       z     vdW  Elec       q    Type
REMARK                         _______ _______ _______ _____ _____    ______ ____
ROOT
ATOM      1  C   UNL     1       3.019   6.182  18.020  0.00  0.00    +0.000 C 
ATOM      2  C   UNL     1       4.318   6.139  17.694  0.00  0.00    +0.000 C 
ATOM      3  S   UNL     1       5.470   7.414  17.789  0.00  0.00    +0.000 S 
ATOM      4  C   UNL     1       6.696   6.469  16.964  0.00  0.00    +0.000 C 
ATOM      5  O   UNL     1       7.749   6.954  16.577  0.00  0.00    +0.000 OA
ATOM      6  N   UNL     1       6.257   5.188  16.782  0.00  0.00    +0.000 N 
ATOM      7  C   UNL     1       4.948   4.927  17.110  0.00  0.00    +0.000 C 
ATOM      8  O   UNL     1       4.347   3.879  16.910  0.00  0.00    +0.000 OA
ENDROOT
BRANCH   1  12
ATOM      9  C   UNL     1       1.009   9.673  19.465  0.00  0.00    +0.000 A 
ATOM     10  C   UNL     1       1.351   9.546  18.117  0.00  0.00    +0.000 A 
ATOM     11  C   UNL     1       2.002   8.402  17.648  0.00  0.00    +0.000 A 
ATOM     12  C   UNL     1       2.326   7.368  18.524  0.00  0.00    +0.000 A 
ATOM     13  C   UNL     1       2.004   7.491  19.877  0.00  0.00    +0.000 A 
ATOM     14  C   UNL     1       1.357   8.644  20.347  0.00  0.00    +0.000 A 
BRANCH   9  17
ATOM     15  C   UNL     1      -0.938  11.216  19.657  0.00  0.00    +0.000 C 
ATOM     16  O   UNL     1      -1.712  10.622  18.910  0.00  0.00    +0.000 OA
ATOM     17  N   UNL     1       0.337  10.803  19.985  0.00  0.00    +0.000 N 
ATOM     18  H   UNL     1       0.818  11.326  20.708  0.00  0.00    +0.000 HD
BRANCH  15  20
ATOM     19  C   UNL     1      -0.432  13.342  20.753  0.00  0.00    +0.000 C 
ATOM     20  C   UNL     1      -1.383  12.492  20.331  0.00  0.00    +0.000 C 
ATOM     21 BR   UNL     1      -3.194  12.855  20.589  0.00  0.00    +0.000 Br
ENDBRANCH  15  20
ENDBRANCH   9  17
ENDBRANCH   1  12
BRANCH   6  22
ATOM     22  C   UNL     1       7.057   4.225  16.059  0.00  0.00    +0.000 C 
BRANCH  22  23
ATOM     23  C   UNL     1       6.893   4.304  14.559  0.00  0.00    +0.000 A 
ATOM     24  C   UNL     1       7.715   5.145  13.794  0.00  0.00    +0.000 A 
ATOM     25  C   UNL     1       7.639   5.130  12.399  0.00  0.00    +0.000 A 
ATOM     26  C   UNL     1       6.734   4.289  11.756  0.00  0.00    +0.000 A 
ATOM     27  C   UNL     1       5.883   3.481  12.507  0.00  0.00    +0.000 A 
ATOM     28  C   UNL     1       5.955   3.494  13.901  0.00  0.00    +0.000 A 
ENDBRANCH  22  23
ENDBRANCH   6  22
TORSDOF 5
ENDMDL
MODEL 2
REMARK VINA RESULT:      -7.4      0.706      1.214
REMARK  Name = 
REMARK  5 active torsions:
REMARK  status: ('A' for Active; 'I' for Inactive)
REMARK    1  A    between atoms: C_2  and  C_4
REMARK    2  A    between atoms: N_6  and  C_7
REMARK    3  A    between atoms: C_10  and  C_11
REMARK    4  A    between atoms: N_16  and  C_17
REMARK    5  A    between atoms: C_17  and  C_18
REMARK                            x       y       z     vdW  Elec       q    Type
REMARK                         _______ _______ _______ _____ _____    ______ ____
ROOT
ATOM      1  C   UNL     1       2.999   6.133  17.965  0.00  0.00    +0.000 C 
ATOM      2  C   UNL     1       4.294   6.056  17.631  0.00  0.00    +0.000 C 
ATOM      3  S   UNL     1       5.489   7.287  17.757  0.00  0.00    +0.000 S 
ATOM      4  C   UNL     1       6.679   6.326  16.899  0.00  0.00    +0.000 C 
ATOM      5  O   UNL     1       7.746   6.786  16.520  0.00  0.00    +0.000 OA
ATOM      6  N   UNL     1       6.195   5.066  16.681  0.00  0.00    +0.000 N 
ATOM      7  C   UNL     1       4.880   4.840  17.009  0.00  0.00    +0.000 C 
ATOM      8  O   UNL     1       4.242   3.820  16.782  0.00  0.00    +0.000 OA
ENDROOT
BRANCH   1  12
ATOM      9  C   UNL     1       1.082   9.602  19.580  0.00  0.00    +0.000 A 
ATOM     10  C   UNL     1       1.415   8.519  20.397  0.00  0.00    +0.000 A 
ATOM     11  C   UNL     1       2.046   7.390  19.866  0.00  0.00    +0.000 A 
ATOM     12  C   UNL     1       2.349   7.327  18.507  0.00  0.00    +0.000 A 
ATOM     13  C   UNL     1       2.006   8.398  17.679  0.00  0.00    +0.000 A 
ATOM     14  C   UNL     1       1.365   9.526  18.212  0.00  0.00    +0.000 A 
BRANCH   9  17
ATOM     15  C   UNL     1      -0.806  11.220  19.746  0.00  0.00    +0.000 C 
ATOM     16  O   UNL     1      -1.611  10.632  19.027  0.00  0.00    +0.000 OA
ATOM     17  N   UNL     1       0.457  10.771  20.072  0.00  0.00    +0.000 N 
ATOM     18  H   UNL     1       0.967  11.299  20.772  0.00  0.00    +0.000 HD
BRANCH  15  20
ATOM     19  C   UNL     1      -2.459  12.960  20.212  0.00  0.00    +0.000 C 
ATOM     20  C   UNL     1      -1.197  12.532  20.384  0.00  0.00    +0.000 C 
ATOM     21 BR   UNL     1       0.044  13.531  21.353  0.00  0.00    +0.000 Br
ENDBRANCH  15  20
ENDBRANCH   9  17
ENDBRANCH   1  12
BRANCH   6  22
ATOM     22  C   UNL     1       6.958   4.098  15.927  0.00  0.00    +0.000 C 
BRANCH  22  23
ATOM     23  C   UNL     1       6.817   4.248  14.429  0.00  0.00    +0.000 A 
ATOM     24  C   UNL     1       7.678   5.092  13.713  0.00  0.00    +0.000 A 
ATOM     25  C   UNL     1       7.621   5.140  12.317  0.00  0.00    +0.000 A 
ATOM     26  C   UNL     1       6.695   4.360  11.627  0.00  0.00    +0.000 A 
ATOM     27  C   UNL     1       5.807   3.551  12.332  0.00  0.00    +0.000 A 
ATOM     28  C   UNL     1       5.860   3.501  13.726  0.00  0.00    +0.000 A 
ENDBRANCH  22  23
ENDBRANCH   6  22
TORSDOF 5
ENDMDL
MODEL 3
REMARK VINA RESULT:      -7.4      1.157      1.513
REMARK  Name = 
REMARK  5 active torsions:
REMARK  status: ('A' for Active; 'I' for Inactive)
REMARK    1  A    between atoms: C_2  and  C_4
REMARK    2  A    between atoms: N_6  and  C_7
REMARK    3  A    between atoms: C_10  and  C_11
REMARK    4  A    between atoms: N_16  and  C_17
REMARK    5  A    between atoms: C_17  and  C_18
REMARK                            x       y       z     vdW  Elec       q    Type
REMARK                         _______ _______ _______ _____ _____    ______ ____
ROOT
ATOM      1  C   UNL     1       3.016   6.206  18.090  0.00  0.00    +0.000 C 
ATOM      2  C   UNL     1       4.313   6.184  17.756  0.00  0.00    +0.000 C 
ATOM      3  S   UNL     1       5.440   7.482  17.827  0.00  0.00    +0.000 S 
ATOM      4  C   UNL     1       6.679   6.551  17.005  0.00  0.00    +0.000 C 
ATOM      5  O   UNL     1       7.720   7.051  16.605  0.00  0.00    +0.000 OA
ATOM      6  N   UNL     1       6.263   5.259  16.841  0.00  0.00    +0.000 N 
ATOM      7  C   UNL     1       4.962   4.977  17.181  0.00  0.00    +0.000 C 
ATOM      8  O   UNL     1       4.380   3.915  16.998  0.00  0.00    +0.000 OA
ENDROOT
BRANCH   1  12
ATOM      9  C   UNL     1       0.917   9.630  19.567  0.00  0.00    +0.000 A 
ATOM     10  C   UNL     1       1.298   8.595  20.424  0.00  0.00    +0.000 A 
ATOM     11  C   UNL     1       1.988   7.481  19.939  0.00  0.00    +0.000 A 
ATOM     12  C   UNL     1       2.303   7.385  18.585  0.00  0.00    +0.000 A 
ATOM     13  C   UNL     1       1.913   8.406  17.716  0.00  0.00    +0.000 A 
ATOM     14  C   UNL     1       1.213   9.519  18.204  0.00  0.00    +0.000 A 
BRANCH   9  17
ATOM     15  C   UNL     1       0.780  11.844  20.704  0.00  0.00    +0.000 C 
ATOM     16  O   UNL     1       1.971  11.978  20.979  0.00  0.00    +0.000 OA
ATOM     17  N   UNL     1       0.231  10.784  20.012  0.00  0.00    +0.000 N 
ATOM     18  H   UNL     1      -0.746  10.862  19.749  0.00  0.00    +0.000 HD
BRANCH  15  20
ATOM     19  C   UNL     1      -0.791  12.819  22.302  0.00  0.00    +0.000 C 
ATOM     20  C   UNL     1      -0.203  12.920  21.098  0.00  0.00    +0.000 C 
ATOM     21 BR   UNL     1      -0.600  14.323  19.936  0.00  0.00    +0.000 Br
ENDBRANCH  15  20
ENDBRANCH   9  17
ENDBRANCH   1  12
BRANCH   6  22
ATOM     22  C   UNL     1       7.077   4.303  16.125  0.00  0.00    +0.000 C 
BRANCH  22  23
ATOM     23  C   UNL     1       6.904   4.363  14.624  0.00  0.00    +0.000 A 
ATOM     24  C   UNL     1       7.740   5.172  13.841  0.00  0.00    +0.000 A 
ATOM     25  C   UNL     1       7.654   5.138  12.447  0.00  0.00    +0.000 A 
ATOM     26  C   UNL     1       6.724   4.308  11.823  0.00  0.00    +0.000 A 
ATOM     27  C   UNL     1       5.859   3.533  12.593  0.00  0.00    +0.000 A 
ATOM     28  C   UNL     1       5.942   3.566  13.986  0.00  0.00    +0.000 A 
ENDBRANCH  22  23
ENDBRANCH   6  22
TORSDOF 5
ENDMDL
MODEL 4
REMARK VINA RESULT:      -7.3      1.254      1.269
REMARK  Name = 
REMARK  5 active torsions:
REMARK  status: ('A' for Active; 'I' for Inactive)
REMARK    1  A    between atoms: C_2  and  C_4
REMARK    2  A    between atoms: N_6  and  C_7
REMARK    3  A    between atoms: C_10  and  C_11
REMARK    4  A    between atoms: N_16  and  C_17
REMARK    5  A    between atoms: C_17  and  C_18
REMARK                            x       y       z     vdW  Elec       q    Type
REMARK                         _______ _______ _______ _____ _____    ______ ____
ROOT
ATOM      1  C   UNL     1       3.043   6.043  17.996  0.00  0.00    +0.000 C 
ATOM      2  C   UNL     1       4.343   6.013  17.672  0.00  0.00    +0.000 C 
ATOM      3  S   UNL     1       5.494   7.283  17.819  0.00  0.00    +0.000 S 
ATOM      4  C   UNL     1       6.722   6.371  16.960  0.00  0.00    +0.000 C 
ATOM      5  O   UNL     1       7.776   6.870  16.595  0.00  0.00    +0.000 OA
ATOM      6  N   UNL     1       6.283   5.098  16.726  0.00  0.00    +0.000 N 
ATOM      7  C   UNL     1       4.974   4.824  17.041  0.00  0.00    +0.000 C 
ATOM      8  O   UNL     1       4.372   3.786  16.799  0.00  0.00    +0.000 OA
ENDROOT
BRANCH   1  12
ATOM      9  C   UNL     1       1.030   9.474  19.574  0.00  0.00    +0.000 A 
ATOM     10  C   UNL     1       1.348   9.388  18.216  0.00  0.00    +0.000 A 
ATOM     11  C   UNL     1       2.000   8.264  17.704  0.00  0.00    +0.000 A 
ATOM     12  C   UNL     1       2.349   7.209  18.546  0.00  0.00    +0.000 A 
ATOM     13  C   UNL     1       2.051   7.291  19.907  0.00  0.00    +0.000 A 
ATOM     14  C   UNL     1       1.403   8.425  20.421  0.00  0.00    +0.000 A 
BRANCH   9  17
ATOM     15  C   UNL     1       0.349  10.944  21.468  0.00  0.00    +0.000 C 
ATOM     16  O   UNL     1       0.987  10.390  22.363  0.00  0.00    +0.000 OA
ATOM     17  N   UNL     1       0.357  10.583  20.137  0.00  0.00    +0.000 N 
ATOM     18  H   UNL     1      -0.119  11.203  19.490  0.00  0.00    +0.000 HD
BRANCH  15  20
ATOM     19  C   UNL     1      -1.369  12.045  22.812  0.00  0.00    +0.000 C 
ATOM     20  C   UNL     1      -0.499  12.150  21.794  0.00  0.00    +0.000 C 
ATOM     21 BR   UNL     1      -0.357  13.717  20.794  0.00  0.00    +0.000 Br
ENDBRANCH  15  20
ENDBRANCH   9  17
ENDBRANCH   1  12
BRANCH   6  22
ATOM     22  C   UNL     1       7.084   4.164  15.968  0.00  0.00    +0.000 C 
BRANCH  22  23
ATOM     23  C   UNL     1       6.912   4.293  14.471  0.00  0.00    +0.000 A 
ATOM     24  C   UNL     1       7.731   5.159  13.731  0.00  0.00    +0.000 A 
ATOM     25  C   UNL     1       7.648   5.190  12.337  0.00  0.00    +0.000 A 
ATOM     26  C   UNL     1       6.739   4.371  11.670  0.00  0.00    +0.000 A 
ATOM     27  C   UNL     1       5.891   3.539  12.399  0.00  0.00    +0.000 A 
ATOM     28  C   UNL     1       5.970   3.507  13.792  0.00  0.00    +0.000 A 
ENDBRANCH  22  23
ENDBRANCH   6  22
TORSDOF 5
ENDMDL
MODEL 5
REMARK VINA RESULT:      -7.3      4.052     11.264
REMARK  Name = 
REMARK  5 active torsions:
REMARK  status: ('A' for Active; 'I' for Inactive)
REMARK    1  A    between atoms: C_2  and  C_4
REMARK    2  A    between atoms: N_6  and  C_7
REMARK    3  A    between atoms: C_10  and  C_11
REMARK    4  A    between atoms: N_16  and  C_17
REMARK    5  A    between atoms: C_17  and  C_18
REMARK                            x       y       z     vdW  Elec       q    Type
REMARK                         _______ _______ _______ _____ _____    ______ ____
ROOT
ATOM      1  C   UNL     1       0.749   9.091  21.495  0.00  0.00    +0.000 C 
ATOM      2  C   UNL     1      -0.131  10.045  21.162  0.00  0.00    +0.000 C 
ATOM      3  S   UNL     1      -0.727  10.426  19.594  0.00  0.00    +0.000 S 
ATOM      4  C   UNL     1      -1.553  11.861  20.174  0.00  0.00    +0.000 C 
ATOM      5  O   UNL     1      -2.049  12.684  19.418  0.00  0.00    +0.000 OA
ATOM      6  N   UNL     1      -1.483  11.923  21.537  0.00  0.00    +0.000 N 
ATOM      7  C   UNL     1      -0.686  10.995  22.162  0.00  0.00    +0.000 C 
ATOM      8  O   UNL     1      -0.409  10.963  23.354  0.00  0.00    +0.000 OA
ENDROOT
BRANCH   1  12
ATOM      9  C   UNL     1       2.603   6.448  18.687  0.00  0.00    +0.000 A 
ATOM     10  C   UNL     1       2.369   7.787  18.367  0.00  0.00    +0.000 A 
ATOM     11  C   UNL     1       1.768   8.649  19.289  0.00  0.00    +0.000 A 
ATOM     12  C   UNL     1       1.388   8.180  20.545  0.00  0.00    +0.000 A 
ATOM     13  C   UNL     1       1.602   6.839  20.869  0.00  0.00    +0.000 A 
ATOM     14  C   UNL     1       2.198   5.974  19.939  0.00  0.00    +0.000 A 
BRANCH   9  17
ATOM     15  C   UNL     1       4.550   5.537  17.426  0.00  0.00    +0.000 C 
ATOM     16  O   UNL     1       5.419   6.283  17.874  0.00  0.00    +0.000 OA
ATOM     17  N   UNL     1       3.221   5.541  17.794  0.00  0.00    +0.000 N 
ATOM     18  H   UNL     1       2.641   4.790  17.435  0.00  0.00    +0.000 HD
BRANCH  15  20
ATOM     19  C   UNL     1       4.429   3.244  16.588  0.00  0.00    +0.000 C 
ATOM     20  C   UNL     1       4.924   4.481  16.413  0.00  0.00    +0.000 C 
ATOM     21 BR   UNL     1       6.056   4.882  14.987  0.00  0.00    +0.000 Br
ENDBRANCH  15  20
ENDBRANCH   9  17
ENDBRANCH   1  12
BRANCH   6  22
ATOM     22  C   UNL     1      -2.028  13.052  22.258  0.00  0.00    +0.000 C 
BRANCH  22  23
ATOM     23  C   UNL     1      -3.414  12.808  22.809  0.00  0.00    +0.000 A 
ATOM     24  C   UNL     1      -3.593  12.434  24.149  0.00  0.00    +0.000 A 
ATOM     25  C   UNL     1      -4.879  12.322  24.685  0.00  0.00    +0.000 A 
ATOM     26  C   UNL     1      -5.995  12.568  23.888  0.00  0.00    +0.000 A 
ATOM     27  C   UNL     1      -5.828  12.898  22.544  0.00  0.00    +0.000 A 
ATOM     28  C   UNL     1      -4.546  13.009  22.005  0.00  0.00    +0.000 A 
ENDBRANCH  22  23
ENDBRANCH   6  22
TORSDOF 5
ENDMDL
MODEL 6
REMARK VINA RESULT:      -7.2      5.424     10.215
REMARK  Name = 
REMARK  5 active torsions:
REMARK  status: ('A' for Active; 'I' for Inactive)
REMARK    1  A    between atoms: C_2  and  C_4
REMARK    2  A    between atoms: N_6  and  C_7
REMARK    3  A    between atoms: C_10  and  C_11
REMARK    4  A    between atoms: N_16  and  C_17
REMARK    5  A    between atoms: C_17  and  C_18
REMARK                            x       y       z     vdW  Elec       q    Type
REMARK                         _______ _______ _______ _____ _____    ______ ____
ROOT
ATOM      1  C   UNL     1       0.469  10.969  18.613  0.00  0.00    +0.000 C 
ATOM      2  C   UNL     1       0.712  12.116  19.262  0.00  0.00    +0.000 C 
ATOM      3  S   UNL     1       1.742  12.361  20.618  0.00  0.00    +0.000 S 
ATOM      4  C   UNL     1       1.199  14.015  20.828  0.00  0.00    +0.000 C 
ATOM      5  O   UNL     1       1.490  14.683  21.809  0.00  0.00    +0.000 OA
ATOM      6  N   UNL     1       0.384  14.376  19.792  0.00  0.00    +0.000 N 
ATOM      7  C   UNL     1       0.024  13.385  18.910  0.00  0.00    +0.000 C 
ATOM      8  O   UNL     1      -0.783  13.488  17.995  0.00  0.00    +0.000 OA
ENDROOT
BRANCH   1  12
ATOM      9  C   UNL     1       2.184   7.195  19.677  0.00  0.00    +0.000 A 
ATOM     10  C   UNL     1       1.459   7.943  20.608  0.00  0.00    +0.000 A 
ATOM     11  C   UNL     1       0.896   9.172  20.255  0.00  0.00    +0.000 A 
ATOM     12  C   UNL     1       1.055   9.674  18.964  0.00  0.00    +0.000 A 
ATOM     13  C   UNL     1       1.792   8.942  18.031  0.00  0.00    +0.000 A 
ATOM     14  C   UNL     1       2.362   7.712  18.390  0.00  0.00    +0.000 A 
BRANCH   9  17
ATOM     15  C   UNL     1       2.086   4.744  20.115  0.00  0.00    +0.000 C 
ATOM     16  O   UNL     1       0.883   4.575  19.921  0.00  0.00    +0.000 OA
ATOM     17  N   UNL     1       2.760   5.940  19.981  0.00  0.00    +0.000 N 
ATOM     18  H   UNL     1       3.771   5.909  20.053  0.00  0.00    +0.000 HD
BRANCH  15  20
ATOM     19  C   UNL     1       2.593   2.849  21.573  0.00  0.00    +0.000 C 
ATOM     20  C   UNL     1       2.952   3.567  20.496  0.00  0.00    +0.000 C 
ATOM     21 BR   UNL     1       4.482   3.149  19.515  0.00  0.00    +0.000 Br
ENDBRANCH  15  20
ENDBRANCH   9  17
ENDBRANCH   1  12
BRANCH   6  22
ATOM     22  C   UNL     1      -0.255  15.672  19.767  0.00  0.00    +0.000 C 
BRANCH  22  23
ATOM     23  C   UNL     1       0.295  16.599  18.707  0.00  0.00    +0.000 A 
ATOM     24  C   UNL     1       1.667  16.617  18.417  0.00  0.00    +0.000 A 
ATOM     25  C   UNL     1       2.156  17.388  17.360  0.00  0.00    +0.000 A 
ATOM     26  C   UNL     1       1.285  18.160  16.593  0.00  0.00    +0.000 A 
ATOM     27  C   UNL     1      -0.074  18.183  16.900  0.00  0.00    +0.000 A 
ATOM     28  C   UNL     1      -0.566  17.414  17.957  0.00  0.00    +0.000 A 
ENDBRANCH  22  23
ENDBRANCH   6  22
TORSDOF 5
ENDMDL
MODEL 7
REMARK VINA RESULT:      -7.2      4.005     11.324
REMARK  Name = 
REMARK  5 active torsions:
REMARK  status: ('A' for Active; 'I' for Inactive)
REMARK    1  A    between atoms: C_2  and  C_4
REMARK    2  A    between atoms: N_6  and  C_7
REMARK    3  A    between atoms: C_10  and  C_11
REMARK    4  A    between atoms: N_16  and  C_17
REMARK    5  A    between atoms: C_17  and  C_18
REMARK                            x       y       z     vdW  Elec       q    Type
REMARK                         _______ _______ _______ _____ _____    ______ ____
ROOT
ATOM      1  C   UNL     1       0.812   9.522  21.174  0.00  0.00    +0.000 C 
ATOM      2  C   UNL     1      -0.217  10.306  20.827  0.00  0.00    +0.000 C 
ATOM      3  S   UNL     1      -1.050  10.345  19.322  0.00  0.00    +0.000 S 
ATOM      4  C   UNL     1      -1.972  11.765  19.782  0.00  0.00    +0.000 C 
ATOM      5  O   UNL     1      -2.660  12.387  18.987  0.00  0.00    +0.000 OA
ATOM      6  N   UNL     1      -1.738  12.070  21.094  0.00  0.00    +0.000 N 
ATOM      7  C   UNL     1      -0.756  11.353  21.734  0.00  0.00    +0.000 C 
ATOM      8  O   UNL     1      -0.329  11.558  22.863  0.00  0.00    +0.000 OA
ENDROOT
BRANCH   1  12
ATOM      9  C   UNL     1       2.651   6.603  18.642  0.00  0.00    +0.000 A 
ATOM     10  C   UNL     1       2.268   6.284  19.947  0.00  0.00    +0.000 A 
ATOM     11  C   UNL     1       1.662   7.238  20.769  0.00  0.00    +0.000 A 
ATOM     12  C   UNL     1       1.436   8.530  20.297  0.00  0.00    +0.000 A 
ATOM     13  C   UNL     1       1.830   8.865  19.000  0.00  0.00    +0.000 A 
ATOM     14  C   UNL     1       2.444   7.907  18.180  0.00  0.00    +0.000 A 
BRANCH   9  17
ATOM     15  C   UNL     1       4.563   5.679  17.338  0.00  0.00    +0.000 C 
ATOM     16  O   UNL     1       5.430   6.469  17.707  0.00  0.00    +0.000 OA
ATOM     17  N   UNL     1       3.252   5.669  17.768  0.00  0.00    +0.000 N 
ATOM     18  H   UNL     1       2.678   4.886  17.474  0.00  0.00    +0.000 HD
BRANCH  15  20
ATOM     19  C   UNL     1       4.464   3.345  16.619  0.00  0.00    +0.000 C 
ATOM     20  C   UNL     1       4.919   4.583  16.362  0.00  0.00    +0.000 C 
ATOM     21 BR   UNL     1       5.978   4.939  14.870  0.00  0.00    +0.000 Br
ENDBRANCH  15  20
ENDBRANCH   9  17
ENDBRANCH   1  12
BRANCH   6  22
ATOM     22  C   UNL     1      -2.326  13.245  21.698  0.00  0.00    +0.000 C 
BRANCH  22  23
ATOM     23  C   UNL     1      -3.579  12.956  22.493  0.00  0.00    +0.000 A 
ATOM     24  C   UNL     1      -3.498  12.599  23.847  0.00  0.00    +0.000 A 
ATOM     25  C   UNL     1      -4.660  12.445  24.608  0.00  0.00    +0.000 A 
ATOM     26  C   UNL     1      -5.911  12.631  24.022  0.00  0.00    +0.000 A 
ATOM     27  C   UNL     1      -6.003  12.944  22.667  0.00  0.00    +0.000 A 
ATOM     28  C   UNL     1      -4.844  13.096  21.904  0.00  0.00    +0.000 A 
ENDBRANCH  22  23
ENDBRANCH   6  22
TORSDOF 5
ENDMDL
MODEL 8
REMARK VINA RESULT:      -7.2      3.967     11.273
REMARK  Name = 
REMARK  5 active torsions:
REMARK  status: ('A' for Active; 'I' for Inactive)
REMARK    1  A    between atoms: C_2  and  C_4
REMARK    2  A    between atoms: N_6  and  C_7
REMARK    3  A    between atoms: C_10  and  C_11
REMARK    4  A    between atoms: N_16  and  C_17
REMARK    5  A    between atoms: C_17  and  C_18
REMARK                            x       y       z     vdW  Elec       q    Type
REMARK                         _______ _______ _______ _____ _____    ______ ____
ROOT
ATOM      1  C   UNL     1       0.683  10.110  20.454  0.00  0.00    +0.000 C 
ATOM      2  C   UNL     1      -0.482  10.646  20.064  0.00  0.00    +0.000 C 
ATOM      3  S   UNL     1      -1.418  10.238  18.680  0.00  0.00    +0.000 S 
ATOM      4  C   UNL     1      -2.519  11.580  18.935  0.00  0.00    +0.000 C 
ATOM      5  O   UNL     1      -3.355  11.911  18.107  0.00  0.00    +0.000 OA
ATOM      6  N   UNL     1      -2.242  12.193  20.125  0.00  0.00    +0.000 N 
ATOM      7  C   UNL     1      -1.114  11.778  20.791  0.00  0.00    +0.000 C 
ATOM      8  O   UNL     1      -0.643  12.283  21.802  0.00  0.00    +0.000 OA
ENDROOT
BRANCH   1  12
ATOM      9  C   UNL     1       2.740   7.021  18.323  0.00  0.00    +0.000 A 
ATOM     10  C   UNL     1       2.402   8.223  17.698  0.00  0.00    +0.000 A 
ATOM     11  C   UNL     1       1.735   9.232  18.398  0.00  0.00    +0.000 A 
ATOM     12  C   UNL     1       1.392   9.049  19.737  0.00  0.00    +0.000 A 
ATOM     13  C   UNL     1       1.710   7.844  20.367  0.00  0.00    +0.000 A 
ATOM     14  C   UNL     1       2.372   6.831  19.659  0.00  0.00    +0.000 A 
BRANCH   9  17
ATOM     15  C   UNL     1       4.731   6.014  17.215  0.00  0.00    +0.000 C 
ATOM     16  O   UNL     1       5.521   6.941  17.387  0.00  0.00    +0.000 OA
ATOM     17  N   UNL     1       3.427   5.977  17.661  0.00  0.00    +0.000 N 
ATOM     18  H   UNL     1       2.929   5.100  17.555  0.00  0.00    +0.000 HD
BRANCH  15  20
ATOM     19  C   UNL     1       4.566   3.614  16.782  0.00  0.00    +0.000 C 
ATOM     20  C   UNL     1       5.190   4.769  16.494  0.00  0.00    +0.000 C 
ATOM     21 BR   UNL     1       6.594   4.836  15.269  0.00  0.00    +0.000 Br
ENDBRANCH  15  20
ENDBRANCH   9  17
ENDBRANCH   1  12
BRANCH   6  22
ATOM     22  C   UNL     1      -2.964  13.376  20.535  0.00  0.00    +0.000 C 
BRANCH  22  23
ATOM     23  C   UNL     1      -4.115  13.090  21.473  0.00  0.00    +0.000 A 
ATOM     24  C   UNL     1      -3.938  13.165  22.863  0.00  0.00    +0.000 A 
ATOM     25  C   UNL     1      -5.029  13.013  23.723  0.00  0.00    +0.000 A 
ATOM     26  C   UNL     1      -6.300  12.770  23.206  0.00  0.00    +0.000 A 
ATOM     27  C   UNL     1      -6.478  12.651  21.829  0.00  0.00    +0.000 A 
ATOM     28  C   UNL     1      -5.391  12.801  20.967  0.00  0.00    +0.000 A 
ENDBRANCH  22  23
ENDBRANCH   6  22
TORSDOF 5
ENDMDL
MODEL 9
REMARK VINA RESULT:      -7.1      4.010     11.331
REMARK  Name = 
REMARK  5 active torsions:
REMARK  status: ('A' for Active; 'I' for Inactive)
REMARK    1  A    between atoms: C_2  and  C_4
REMARK    2  A    between atoms: N_6  and  C_7
REMARK    3  A    between atoms: C_10  and  C_11
REMARK    4  A    between atoms: N_16  and  C_17
REMARK    5  A    between atoms: C_17  and  C_18
REMARK                            x       y       z     vdW  Elec       q    Type
REMARK                         _______ _______ _______ _____ _____    ______ ____
ROOT
ATOM      1  C   UNL     1       0.825   9.760  21.140  0.00  0.00    +0.000 C 
ATOM      2  C   UNL     1      -0.241  10.502  20.814  0.00  0.00    +0.000 C 
ATOM      3  S   UNL     1      -1.177  10.427  19.373  0.00  0.00    +0.000 S 
ATOM      4  C   UNL     1      -2.093  11.860  19.802  0.00  0.00    +0.000 C 
ATOM      5  O   UNL     1      -2.847  12.417  19.017  0.00  0.00    +0.000 OA
ATOM      6  N   UNL     1      -1.775  12.257  21.070  0.00  0.00    +0.000 N 
ATOM      7  C   UNL     1      -0.737  11.600  21.686  0.00  0.00    +0.000 C 
ATOM      8  O   UNL     1      -0.237  11.887  22.766  0.00  0.00    +0.000 OA
ENDROOT
BRANCH   1  12
ATOM      9  C   UNL     1       2.509   6.739  18.619  0.00  0.00    +0.000 A 
ATOM     10  C   UNL     1       2.244   8.020  18.128  0.00  0.00    +0.000 A 
ATOM     11  C   UNL     1       1.699   9.005  18.956  0.00  0.00    +0.000 A 
ATOM     12  C   UNL     1       1.406   8.720  20.289  0.00  0.00    +0.000 A 
ATOM     13  C   UNL     1       1.652   7.439  20.786  0.00  0.00    +0.000 A 
ATOM     14  C   UNL     1       2.191   6.449  19.950  0.00  0.00    +0.000 A 
BRANCH   9  17
ATOM     15  C   UNL     1       4.405   5.577  17.495  0.00  0.00    +0.000 C 
ATOM     16  O   UNL     1       5.319   6.293  17.899  0.00  0.00    +0.000 OA
ATOM     17  N   UNL     1       3.073   5.713  17.826  0.00  0.00    +0.000 N 
ATOM     18  H   UNL     1       2.444   4.979  17.518  0.00  0.00    +0.000 HD
BRANCH  15  20
ATOM     19  C   UNL     1       4.294   3.192  16.968  0.00  0.00    +0.000 C 
ATOM     20  C   UNL     1       4.716   4.410  16.588  0.00  0.00    +0.000 C 
ATOM     21 BR   UNL     1       5.679   4.656  15.010  0.00  0.00    +0.000 Br
ENDBRANCH  15  20
ENDBRANCH   9  17
ENDBRANCH   1  12
BRANCH   6  22
ATOM     22  C   UNL     1      -2.343  13.461  21.636  0.00  0.00    +0.000 C 
BRANCH  22  23
ATOM     23  C   UNL     1      -3.544  13.208  22.518  0.00  0.00    +0.000 A 
ATOM     24  C   UNL     1      -4.843  13.294  21.997  0.00  0.00    +0.000 A 
ATOM     25  C   UNL     1      -5.945  12.948  22.784  0.00  0.00    +0.000 A 
ATOM     26  C   UNL     1      -5.761  12.528  24.100  0.00  0.00    +0.000 A 
ATOM     27  C   UNL     1      -4.478  12.481  24.641  0.00  0.00    +0.000 A 
ATOM     28  C   UNL     1      -3.375  12.827  23.858  0.00  0.00    +0.000 A 
ENDBRANCH  22  23
ENDBRANCH   6  22
TORSDOF 5
ENDMDL
