MODEL 1
REMARK VINA RESULT:      -7.2      0.000      0.000
REMARK  Name = 
REMARK  5 active torsions:
REMARK  status: ('A' for Active; 'I' for Inactive)
REMARK    1  A    between atoms: C_1  and  O_2
REMARK    2  A    between atoms: O_2  and  C_3
REMARK    3  A    between atoms: C_3  and  C_5
REMARK    4  A    between atoms: C_10  and  N_11
REMARK    5  A    between atoms: C_12  and  C_14
REMARK                            x       y       z     vdW  Elec       q    Type
REMARK                         _______ _______ _______ _____ _____    ______ ____
ROOT
ATOM      1  C   UNL     1       6.783   4.754  16.421  0.00  0.00    +0.000 A 
ATOM      2  C   UNL     1       7.478   5.157  15.261  0.00  0.00    +0.000 A 
ATOM      3  C   UNL     1       7.040   4.779  13.993  0.00  0.00    +0.000 A 
ATOM      4  C   UNL     1       5.900   3.991  13.853  0.00  0.00    +0.000 A 
ATOM      5  C   UNL     1       5.195   3.578  14.984  0.00  0.00    +0.000 A 
ATOM      6  C   UNL     1       5.621   3.949  16.269  0.00  0.00    +0.000 A 
ENDROOT
BRANCH   6   7
ATOM      7  N   UNL     1       4.851   3.507  17.382  0.00  0.00    +0.000 N 
ATOM      8  C   UNL     1       3.830   4.257  17.895  0.00  0.00    +0.000 C 
ATOM      9  O   UNL     1       3.529   5.305  17.338  0.00  0.00    +0.000 OA
ATOM     10  H   UNL     1       5.140   2.625  17.822  0.00  0.00    +0.000 HD
BRANCH   8  11
ATOM     11  C   UNL     1       3.068   3.852  19.123  0.00  0.00    +0.000 A 
ATOM     12  C   UNL     1       1.765   4.313  19.411  0.00  0.00    +0.000 A 
ATOM     13  C   UNL     1       1.101   3.885  20.565  0.00  0.00    +0.000 A 
ATOM     14  C   UNL     1       1.735   3.001  21.435  0.00  0.00    +0.000 A 
ATOM     15  N   UNL     1       2.989   2.562  21.157  0.00  0.00    +0.000 NA
ATOM     16  C   UNL     1       3.658   2.959  20.043  0.00  0.00    +0.000 A 
ENDBRANCH   8  11
ENDBRANCH   6   7
BRANCH   1  17
ATOM     17  C   UNL     1       7.308   5.191  17.746  0.00  0.00    +0.000 C 
ATOM     18  O   UNL     1       7.975   4.434  18.436  0.00  0.00    +0.000 OA
BRANCH  17  20
ATOM     19  C   UNL     1       7.778   7.569  17.856  0.00  0.00    +0.000 C 
ATOM     20  O   UNL     1       7.039   6.452  18.179  0.00  0.00    +0.000 OA
ENDBRANCH  17  20
ENDBRANCH   1  17
TORSDOF 4
ENDMDL
MODEL 2
REMARK VINA RESULT:      -7.2      1.627      6.218
REMARK  Name = 
REMARK  5 active torsions:
REMARK  status: ('A' for Active; 'I' for Inactive)
REMARK    1  A    between atoms: C_1  and  O_2
REMARK    2  A    between atoms: O_2  and  C_3
REMARK    3  A    between atoms: C_3  and  C_5
REMARK    4  A    between atoms: C_10  and  N_11
REMARK    5  A    between atoms: C_12  and  C_14
REMARK                            x       y       z     vdW  Elec       q    Type
REMARK                         _______ _______ _______ _____ _____    ______ ____
ROOT
ATOM      1  C   UNL     1       2.438   3.816  19.116  0.00  0.00    +0.000 A 
ATOM      2  C   UNL     1       1.793   3.679  20.363  0.00  0.00    +0.000 A 
ATOM      3  C   UNL     1       2.348   2.901  21.378  0.00  0.00    +0.000 A 
ATOM      4  C   UNL     1       3.558   2.242  21.171  0.00  0.00    +0.000 A 
ATOM      5  C   UNL     1       4.215   2.359  19.946  0.00  0.00    +0.000 A 
ATOM      6  C   UNL     1       3.672   3.139  18.913  0.00  0.00    +0.000 A 
ENDROOT
BRANCH   6   7
ATOM      7  N   UNL     1       4.398   3.230  17.692  0.00  0.00    +0.000 N 
ATOM      8  C   UNL     1       5.255   4.264  17.438  0.00  0.00    +0.000 C 
ATOM      9  O   UNL     1       5.452   5.097  18.315  0.00  0.00    +0.000 OA
ATOM     10  H   UNL     1       4.200   2.514  16.982  0.00  0.00    +0.000 HD
BRANCH   8  11
ATOM     11  C   UNL     1       5.958   4.428  16.122  0.00  0.00    +0.000 A 
ATOM     12  C   UNL     1       5.566   3.751  14.947  0.00  0.00    +0.000 A 
ATOM     13  C   UNL     1       6.252   3.961  13.747  0.00  0.00    +0.000 A 
ATOM     14  C   UNL     1       7.332   4.840  13.717  0.00  0.00    +0.000 A 
ATOM     15  N   UNL     1       7.709   5.486  14.849  0.00  0.00    +0.000 NA
ATOM     16  C   UNL     1       7.060   5.305  16.030  0.00  0.00    +0.000 A 
ENDBRANCH   8  11
ENDBRANCH   6   7
BRANCH   1  17
ATOM     17  C   UNL     1       1.788   4.661  18.074  0.00  0.00    +0.000 C 
ATOM     18  O   UNL     1       0.951   4.190  17.317  0.00  0.00    +0.000 OA
BRANCH  17  20
ATOM     19  C   UNL     1       2.526   6.763  19.036  0.00  0.00    +0.000 C 
ATOM     20  O   UNL     1       2.134   5.973  17.978  0.00  0.00    +0.000 OA
ENDBRANCH  17  20
ENDBRANCH   1  17
TORSDOF 4
ENDMDL
MODEL 3
REMARK VINA RESULT:      -7.2      1.893      6.156
REMARK  Name = 
REMARK  5 active torsions:
REMARK  status: ('A' for Active; 'I' for Inactive)
REMARK    1  A    between atoms: C_1  and  O_2
REMARK    2  A    between atoms: O_2  and  C_3
REMARK    3  A    between atoms: C_3  and  C_5
REMARK    4  A    between atoms: C_10  and  N_11
REMARK    5  A    between atoms: C_12  and  C_14
REMARK                            x       y       z     vdW  Elec       q    Type
REMARK                         _______ _______ _______ _____ _____    ______ ____
ROOT
ATOM      1  C   UNL     1       2.144   4.842  19.375  0.00  0.00    +0.000 A 
ATOM      2  C   UNL     1       1.378   4.553  20.524  0.00  0.00    +0.000 A 
ATOM      3  C   UNL     1       1.122   3.237  20.905  0.00  0.00    +0.000 A 
ATOM      4  C   UNL     1       1.625   2.180  20.150  0.00  0.00    +0.000 A 
ATOM      5  C   UNL     1       2.386   2.438  19.009  0.00  0.00    +0.000 A 
ATOM      6  C   UNL     1       2.654   3.756  18.610  0.00  0.00    +0.000 A 
ENDROOT
BRANCH   6   7
ATOM      7  N   UNL     1       3.447   3.954  17.444  0.00  0.00    +0.000 N 
ATOM      8  C   UNL     1       4.808   4.063  17.509  0.00  0.00    +0.000 C 
ATOM      9  O   UNL     1       5.361   3.920  18.592  0.00  0.00    +0.000 OA
ATOM     10  H   UNL     1       2.943   4.073  16.557  0.00  0.00    +0.000 HD
BRANCH   8  11
ATOM     11  C   UNL     1       5.653   4.364  16.306  0.00  0.00    +0.000 A 
ATOM     12  C   UNL     1       5.358   3.879  15.013  0.00  0.00    +0.000 A 
ATOM     13  C   UNL     1       6.177   4.210  13.929  0.00  0.00    +0.000 A 
ATOM     14  C   UNL     1       7.292   5.020  14.131  0.00  0.00    +0.000 A 
ATOM     15  N   UNL     1       7.575   5.482  15.375  0.00  0.00    +0.000 NA
ATOM     16  C   UNL     1       6.797   5.179  16.448  0.00  0.00    +0.000 A 
ENDBRANCH   8  11
ENDBRANCH   6   7
BRANCH   1  17
ATOM     17  C   UNL     1       2.377   6.271  19.023  0.00  0.00    +0.000 C 
ATOM     18  O   UNL     1       2.458   6.623  17.855  0.00  0.00    +0.000 OA
BRANCH  17  20
ATOM     19  C   UNL     1       1.580   8.182  20.287  0.00  0.00    +0.000 C 
ATOM     20  O   UNL     1       2.494   7.187  20.022  0.00  0.00    +0.000 OA
ENDBRANCH  17  20
ENDBRANCH   1  17
TORSDOF 4
ENDMDL
MODEL 4
REMARK VINA RESULT:      -7.2      1.869      6.068
REMARK  Name = 
REMARK  5 active torsions:
REMARK  status: ('A' for Active; 'I' for Inactive)
REMARK    1  A    between atoms: C_1  and  O_2
REMARK    2  A    between atoms: O_2  and  C_3
REMARK    3  A    between atoms: C_3  and  C_5
REMARK    4  A    between atoms: C_10  and  N_11
REMARK    5  A    between atoms: C_12  and  C_14
REMARK                            x       y       z     vdW  Elec       q    Type
REMARK                         _______ _______ _______ _____ _____    ______ ____
ROOT
ATOM      1  C   UNL     1       2.269   4.910  19.646  0.00  0.00    +0.000 A 
ATOM      2  C   UNL     1       1.538   4.625  20.819  0.00  0.00    +0.000 A 
ATOM      3  C   UNL     1       1.294   3.310  21.212  0.00  0.00    +0.000 A 
ATOM      4  C   UNL     1       1.773   2.251  20.444  0.00  0.00    +0.000 A 
ATOM      5  C   UNL     1       2.498   2.505  19.280  0.00  0.00    +0.000 A 
ATOM      6  C   UNL     1       2.754   3.822  18.868  0.00  0.00    +0.000 A 
ENDROOT
BRANCH   6   7
ATOM      7  N   UNL     1       3.511   4.016  17.678  0.00  0.00    +0.000 N 
ATOM      8  C   UNL     1       4.875   4.090  17.696  0.00  0.00    +0.000 C 
ATOM      9  O   UNL     1       5.462   3.919  18.758  0.00  0.00    +0.000 OA
ATOM     10  H   UNL     1       2.979   4.160  16.811  0.00  0.00    +0.000 HD
BRANCH   8  11
ATOM     11  C   UNL     1       5.685   4.386  16.468  0.00  0.00    +0.000 A 
ATOM     12  C   UNL     1       5.355   3.894  15.187  0.00  0.00    +0.000 A 
ATOM     13  C   UNL     1       6.141   4.221  14.078  0.00  0.00    +0.000 A 
ATOM     14  C   UNL     1       7.259   5.034  14.244  0.00  0.00    +0.000 A 
ATOM     15  N   UNL     1       7.577   5.503  15.477  0.00  0.00    +0.000 NA
ATOM     16  C   UNL     1       6.831   5.204  16.573  0.00  0.00    +0.000 A 
ENDBRANCH   8  11
ENDBRANCH   6   7
BRANCH   1  17
ATOM     17  C   UNL     1       2.491   6.338  19.282  0.00  0.00    +0.000 C 
ATOM     18  O   UNL     1       2.459   7.214  20.135  0.00  0.00    +0.000 OA
BRANCH  17  20
ATOM     19  C   UNL     1       2.902   7.940  17.506  0.00  0.00    +0.000 C 
ATOM     20  O   UNL     1       2.736   6.658  17.983  0.00  0.00    +0.000 OA
ENDBRANCH  17  20
ENDBRANCH   1  17
TORSDOF 4
ENDMDL
MODEL 5
REMARK VINA RESULT:      -7.0      2.088      6.375
REMARK  Name = 
REMARK  5 active torsions:
REMARK  status: ('A' for Active; 'I' for Inactive)
REMARK    1  A    between atoms: C_1  and  O_2
REMARK    2  A    between atoms: O_2  and  C_3
REMARK    3  A    between atoms: C_3  and  C_5
REMARK    4  A    between atoms: C_10  and  N_11
REMARK    5  A    between atoms: C_12  and  C_14
REMARK                            x       y       z     vdW  Elec       q    Type
REMARK                         _______ _______ _______ _____ _____    ______ ____
ROOT
ATOM      1  C   UNL     1       2.272   4.118  19.193  0.00  0.00    +0.000 A 
ATOM      2  C   UNL     1       1.563   4.404  20.379  0.00  0.00    +0.000 A 
ATOM      3  C   UNL     1       1.464   5.709  20.859  0.00  0.00    +0.000 A 
ATOM      4  C   UNL     1       2.069   6.757  20.167  0.00  0.00    +0.000 A 
ATOM      5  C   UNL     1       2.777   6.500  18.993  0.00  0.00    +0.000 A 
ATOM      6  C   UNL     1       2.887   5.192  18.494  0.00  0.00    +0.000 A 
ENDROOT
BRANCH   6   7
ATOM      7  N   UNL     1       3.611   4.997  17.284  0.00  0.00    +0.000 N 
ATOM      8  C   UNL     1       4.977   4.966  17.258  0.00  0.00    +0.000 C 
ATOM      9  O   UNL     1       5.590   5.043  18.316  0.00  0.00    +0.000 OA
ATOM     10  H   UNL     1       3.059   4.941  16.420  0.00  0.00    +0.000 HD
BRANCH   8  11
ATOM     11  C   UNL     1       5.759   4.854  15.982  0.00  0.00    +0.000 A 
ATOM     12  C   UNL     1       5.289   4.162  14.845  0.00  0.00    +0.000 A 
ATOM     13  C   UNL     1       6.059   4.109  13.679  0.00  0.00    +0.000 A 
ATOM     14  C   UNL     1       7.300   4.740  13.646  0.00  0.00    +0.000 A 
ATOM     15  N   UNL     1       7.752   5.402  14.742  0.00  0.00    +0.000 NA
ATOM     16  C   UNL     1       7.025   5.472  15.888  0.00  0.00    +0.000 A 
ENDBRANCH   8  11
ENDBRANCH   6   7
BRANCH   1  17
ATOM     17  C   UNL     1       2.341   2.700  18.738  0.00  0.00    +0.000 C 
ATOM     18  O   UNL     1       1.719   2.327  17.753  0.00  0.00    +0.000 OA
BRANCH  17  20
ATOM     19  C   UNL     1       4.395   2.075  19.867  0.00  0.00    +0.000 C 
ATOM     20  O   UNL     1       3.114   1.821  19.430  0.00  0.00    +0.000 OA
ENDBRANCH  17  20
ENDBRANCH   1  17
TORSDOF 4
ENDMDL
MODEL 6
REMARK VINA RESULT:      -6.9      2.123      6.270
REMARK  Name = 
REMARK  5 active torsions:
REMARK  status: ('A' for Active; 'I' for Inactive)
REMARK    1  A    between atoms: C_1  and  O_2
REMARK    2  A    between atoms: O_2  and  C_3
REMARK    3  A    between atoms: C_3  and  C_5
REMARK    4  A    between atoms: C_10  and  N_11
REMARK    5  A    between atoms: C_12  and  C_14
REMARK                            x       y       z     vdW  Elec       q    Type
REMARK                         _______ _______ _______ _____ _____    ______ ____
ROOT
ATOM      1  C   UNL     1       3.503   2.690  20.497  0.00  0.00    +0.000 A 
ATOM      2  C   UNL     1       2.466   2.376  21.401  0.00  0.00    +0.000 A 
ATOM      3  C   UNL     1       1.335   3.185  21.506  0.00  0.00    +0.000 A 
ATOM      4  C   UNL     1       1.214   4.323  20.712  0.00  0.00    +0.000 A 
ATOM      5  C   UNL     1       2.225   4.656  19.811  0.00  0.00    +0.000 A 
ATOM      6  C   UNL     1       3.371   3.854  19.691  0.00  0.00    +0.000 A 
ENDROOT
BRANCH   6   7
ATOM      7  N   UNL     1       4.361   4.239  18.743  0.00  0.00    +0.000 N 
ATOM      8  C   UNL     1       4.205   4.011  17.405  0.00  0.00    +0.000 C 
ATOM      9  O   UNL     1       3.155   3.523  17.007  0.00  0.00    +0.000 OA
ATOM     10  H   UNL     1       5.228   4.642  19.120  0.00  0.00    +0.000 HD
BRANCH   8  11
ATOM     11  C   UNL     1       5.276   4.326  16.401  0.00  0.00    +0.000 A 
ATOM     12  C   UNL     1       5.263   3.835  15.077  0.00  0.00    +0.000 A 
ATOM     13  C   UNL     1       6.282   4.179  14.184  0.00  0.00    +0.000 A 
ATOM     14  C   UNL     1       7.317   5.008  14.609  0.00  0.00    +0.000 A 
ATOM     15  N   UNL     1       7.329   5.476  15.883  0.00  0.00    +0.000 NA
ATOM     16  C   UNL     1       6.351   5.161  16.773  0.00  0.00    +0.000 A 
ENDBRANCH   8  11
ENDBRANCH   6   7
BRANCH   1  17
ATOM     17  C   UNL     1       4.686   1.784  20.438  0.00  0.00    +0.000 C 
ATOM     18  O   UNL     1       5.023   1.263  19.384  0.00  0.00    +0.000 OA
BRANCH  17  20
ATOM     19  C   UNL     1       5.900   0.320  21.944  0.00  0.00    +0.000 C 
ATOM     20  O   UNL     1       5.393   1.547  21.575  0.00  0.00    +0.000 OA
ENDBRANCH  17  20
ENDBRANCH   1  17
TORSDOF 4
ENDMDL
MODEL 7
REMARK VINA RESULT:      -6.9      2.269      6.404
REMARK  Name = 
REMARK  5 active torsions:
REMARK  status: ('A' for Active; 'I' for Inactive)
REMARK    1  A    between atoms: C_1  and  O_2
REMARK    2  A    between atoms: O_2  and  C_3
REMARK    3  A    between atoms: C_3  and  C_5
REMARK    4  A    between atoms: C_10  and  N_11
REMARK    5  A    between atoms: C_12  and  C_14
REMARK                            x       y       z     vdW  Elec       q    Type
REMARK                         _______ _______ _______ _____ _____    ______ ____
ROOT
ATOM      1  C   UNL     1       2.572   4.764  19.705  0.00  0.00    +0.000 A 
ATOM      2  C   UNL     1       1.874   5.247  20.833  0.00  0.00    +0.000 A 
ATOM      3  C   UNL     1       1.540   6.595  20.948  0.00  0.00    +0.000 A 
ATOM      4  C   UNL     1       1.893   7.492  19.942  0.00  0.00    +0.000 A 
ATOM      5  C   UNL     1       2.584   7.040  18.817  0.00  0.00    +0.000 A 
ATOM      6  C   UNL     1       2.929   5.687  18.683  0.00  0.00    +0.000 A 
ENDROOT
BRANCH   6   7
ATOM      7  N   UNL     1       3.622   5.286  17.506  0.00  0.00    +0.000 N 
ATOM      8  C   UNL     1       4.976   5.428  17.383  0.00  0.00    +0.000 C 
ATOM      9  O   UNL     1       5.615   5.850  18.338  0.00  0.00    +0.000 OA
ATOM     10  H   UNL     1       3.047   4.941  16.728  0.00  0.00    +0.000 HD
BRANCH   8  11
ATOM     11  C   UNL     1       5.711   5.098  16.117  0.00  0.00    +0.000 A 
ATOM     12  C   UNL     1       5.170   4.284  15.098  0.00  0.00    +0.000 A 
ATOM     13  C   UNL     1       5.900   4.028  13.933  0.00  0.00    +0.000 A 
ATOM     14  C   UNL     1       7.171   4.578  13.784  0.00  0.00    +0.000 A 
ATOM     15  N   UNL     1       7.690   5.357  14.766  0.00  0.00    +0.000 NA
ATOM     16  C   UNL     1       7.004   5.625  15.908  0.00  0.00    +0.000 A 
ENDBRANCH   8  11
ENDBRANCH   6   7
BRANCH   1  17
ATOM     17  C   UNL     1       2.900   3.311  19.647  0.00  0.00    +0.000 C 
ATOM     18  O   UNL     1       4.062   2.934  19.584  0.00  0.00    +0.000 OA
BRANCH  17  20
ATOM     19  C   UNL     1       0.846   2.364  18.770  0.00  0.00    +0.000 C 
ATOM     20  O   UNL     1       1.888   2.404  19.671  0.00  0.00    +0.000 OA
ENDBRANCH  17  20
ENDBRANCH   1  17
TORSDOF 4
ENDMDL
MODEL 8
REMARK VINA RESULT:      -6.8      3.277      3.929
REMARK  Name = 
REMARK  5 active torsions:
REMARK  status: ('A' for Active; 'I' for Inactive)
REMARK    1  A    between atoms: C_1  and  O_2
REMARK    2  A    between atoms: O_2  and  C_3
REMARK    3  A    between atoms: C_3  and  C_5
REMARK    4  A    between atoms: C_10  and  N_11
REMARK    5  A    between atoms: C_12  and  C_14
REMARK                            x       y       z     vdW  Elec       q    Type
REMARK                         _______ _______ _______ _____ _____    ______ ____
ROOT
ATOM      1  C   UNL     1       5.797   4.907  17.439  0.00  0.00    +0.000 A 
ATOM      2  C   UNL     1       6.500   3.989  16.632  0.00  0.00    +0.000 A 
ATOM      3  C   UNL     1       6.528   4.125  15.245  0.00  0.00    +0.000 A 
ATOM      4  C   UNL     1       5.855   5.181  14.633  0.00  0.00    +0.000 A 
ATOM      5  C   UNL     1       5.152   6.102  15.408  0.00  0.00    +0.000 A 
ATOM      6  C   UNL     1       5.112   5.981  16.806  0.00  0.00    +0.000 A 
ENDROOT
BRANCH   6   7
ATOM      7  N   UNL     1       4.389   6.962  17.543  0.00  0.00    +0.000 N 
ATOM      8  C   UNL     1       3.098   6.756  17.941  0.00  0.00    +0.000 C 
ATOM      9  O   UNL     1       2.575   5.672  17.714  0.00  0.00    +0.000 OA
ATOM     10  H   UNL     1       4.863   7.857  17.708  0.00  0.00    +0.000 HD
BRANCH   8  11
ATOM     11  C   UNL     1       2.289   7.811  18.637  0.00  0.00    +0.000 A 
ATOM     12  C   UNL     1       1.799   8.965  17.986  0.00  0.00    +0.000 A 
ATOM     13  C   UNL     1       1.035   9.903  18.687  0.00  0.00    +0.000 A 
ATOM     14  C   UNL     1       0.762   9.696  20.037  0.00  0.00    +0.000 A 
ATOM     15  N   UNL     1       1.237   8.588  20.661  0.00  0.00    +0.000 NA
ATOM     16  C   UNL     1       1.980   7.658  20.006  0.00  0.00    +0.000 A 
ENDBRANCH   8  11
ENDBRANCH   6   7
BRANCH   1  17
ATOM     17  C   UNL     1       5.806   4.701  18.916  0.00  0.00    +0.000 C 
ATOM     18  O   UNL     1       6.168   5.592  19.671  0.00  0.00    +0.000 OA
BRANCH  17  20
ATOM     19  C   UNL     1       4.098   3.048  19.405  0.00  0.00    +0.000 C 
ATOM     20  O   UNL     1       5.398   3.504  19.417  0.00  0.00    +0.000 OA
ENDBRANCH  17  20
ENDBRANCH   1  17
TORSDOF 4
ENDMDL
MODEL 9
REMARK VINA RESULT:      -6.7      2.335      6.433
REMARK  Name = 
REMARK  5 active torsions:
REMARK  status: ('A' for Active; 'I' for Inactive)
REMARK    1  A    between atoms: C_1  and  O_2
REMARK    2  A    between atoms: O_2  and  C_3
REMARK    3  A    between atoms: C_3  and  C_5
REMARK    4  A    between atoms: C_10  and  N_11
REMARK    5  A    between atoms: C_12  and  C_14
REMARK                            x       y       z     vdW  Elec       q    Type
REMARK                         _______ _______ _______ _____ _____    ______ ____
ROOT
ATOM      1  C   UNL     1       2.221   5.241  19.662  0.00  0.00    +0.000 A 
ATOM      2  C   UNL     1       1.514   5.754  20.770  0.00  0.00    +0.000 A 
ATOM      3  C   UNL     1       1.309   7.125  20.920  0.00  0.00    +0.000 A 
ATOM      4  C   UNL     1       1.805   8.014  19.968  0.00  0.00    +0.000 A 
ATOM      5  C   UNL     1       2.508   7.533  18.864  0.00  0.00    +0.000 A 
ATOM      6  C   UNL     1       2.724   6.156  18.696  0.00  0.00    +0.000 A 
ENDROOT
BRANCH   6   7
ATOM      7  N   UNL     1       3.437   5.727  17.541  0.00  0.00    +0.000 N 
ATOM      8  C   UNL     1       4.792   5.544  17.557  0.00  0.00    +0.000 C 
ATOM      9  O   UNL     1       5.395   5.690  18.613  0.00  0.00    +0.000 OA
ATOM     10  H   UNL     1       2.894   5.620  16.676  0.00  0.00    +0.000 HD
BRANCH   8  11
ATOM     11  C   UNL     1       5.573   5.181  16.328  0.00  0.00    +0.000 A 
ATOM     12  C   UNL     1       5.047   4.393  15.282  0.00  0.00    +0.000 A 
ATOM     13  C   UNL     1       5.821   4.105  14.154  0.00  0.00    +0.000 A 
ATOM     14  C   UNL     1       7.121   4.598  14.068  0.00  0.00    +0.000 A 
ATOM     15  N   UNL     1       7.626   5.352  15.077  0.00  0.00    +0.000 NA
ATOM     16  C   UNL     1       6.897   5.650  16.185  0.00  0.00    +0.000 A 
ENDBRANCH   8  11
ENDBRANCH   6   7
BRANCH   1  17
ATOM     17  C   UNL     1       2.406   3.765  19.564  0.00  0.00    +0.000 C 
ATOM     18  O   UNL     1       1.994   3.145  18.595  0.00  0.00    +0.000 OA
BRANCH  17  20
ATOM     19  C   UNL     1       2.429   2.543  21.660  0.00  0.00    +0.000 C 
ATOM     20  O   UNL     1       3.049   3.113  20.570  0.00  0.00    +0.000 OA
ENDBRANCH  17  20
ENDBRANCH   1  17
TORSDOF 4
ENDMDL
