MODEL 1
REMARK VINA RESULT:      -6.2      0.000      0.000
REMARK  Name = 
REMARK  11 active torsions:
REMARK  status: ('A' for Active; 'I' for Inactive)
REMARK    1  A    between atoms: C_1  and  C_2
REMARK    2  A    between atoms: C_2  and  C_3
REMARK    3  A    between atoms: C_3  and  C_4
REMARK    4  A    between atoms: C_4  and  C_5
REMARK    5  A    between atoms: C_5  and  C_6
REMARK    6  A    between atoms: C_6  and  C_7
REMARK    7  A    between atoms: C_7  and  C_8
REMARK    8  A    between atoms: C_8  and  N_9
REMARK    9  A    between atoms: N_9  and  C_10
REMARK   10  A    between atoms: C_12  and  C_13
REMARK   11  A    between atoms: C_17  and  C_18
REMARK                            x       y       z     vdW  Elec       q    Type
REMARK                         _______ _______ _______ _____ _____    ______ ____
ROOT
ATOM      1  N   UNL     1       5.623   3.678  17.847  0.00  0.00    +0.000 N 
ATOM      2  H   UNL     1       6.269   3.309  18.537  0.00  0.00    +0.000 HD
ENDROOT
BRANCH   1   3
ATOM      3  C   UNL     1       6.120   4.180  16.655  0.00  0.00    +0.000 A 
ATOM      4  N   UNL     1       5.746   3.598  15.487  0.00  0.00    +0.000 NA
ATOM      5  C   UNL     1       6.274   4.114  14.344  0.00  0.00    +0.000 A 
ATOM      6  C   UNL     1       7.177   5.164  14.350  0.00  0.00    +0.000 A 
ATOM      7  N   UNL     1       7.585   5.753  15.493  0.00  0.00    +0.000 NA
ATOM      8  C   UNL     1       7.044   5.239  16.633  0.00  0.00    +0.000 A 
BRANCH   5   9
ATOM      9  C   UNL     1       5.818   3.561  13.104  0.00  0.00    +0.000 C 
ATOM     10  N   UNL     1       5.506   3.096  12.087  0.00  0.00    +0.000 NA
ENDBRANCH   5   9
BRANCH   8  11
ATOM     11  C   UNL     1       7.511   5.835  17.852  0.00  0.00    +0.000 C 
ATOM     12  N   UNL     1       7.846   6.292  18.857  0.00  0.00    +0.000 NA
ENDBRANCH   8  11
ENDBRANCH   1   3
BRANCH   1  13
ATOM     13  C   UNL     1       4.248   3.908  18.241  0.00  0.00    +0.000 C 
BRANCH  13  14
ATOM     14  C   UNL     1       4.163   5.174  19.093  0.00  0.00    +0.000 C 
BRANCH  14  15
ATOM     15  C   UNL     1       2.930   5.991  18.724  0.00  0.00    +0.000 C 
BRANCH  15  16
ATOM     16  C   UNL     1       2.148   6.394  19.969  0.00  0.00    +0.000 C 
BRANCH  16  17
ATOM     17  C   UNL     1       1.931   5.187  20.875  0.00  0.00    +0.000 C 
BRANCH  17  18
ATOM     18  C   UNL     1       0.942   4.218  20.244  0.00  0.00    +0.000 C 
BRANCH  18  20
ATOM     19  C   UNL     1       2.496   2.732  21.514  0.00  0.00    +0.000 C 
ATOM     20  C   UNL     1       1.220   2.790  20.699  0.00  0.00    +0.000 C 
ENDBRANCH  18  20
ENDBRANCH  17  18
ENDBRANCH  16  17
ENDBRANCH  15  16
ENDBRANCH  14  15
ENDBRANCH  13  14
ENDBRANCH   1  13
TORSDOF 10
ENDMDL
MODEL 2
REMARK VINA RESULT:      -6.0      2.459      6.471
REMARK  Name = 
REMARK  11 active torsions:
REMARK  status: ('A' for Active; 'I' for Inactive)
REMARK    1  A    between atoms: C_1  and  C_2
REMARK    2  A    between atoms: C_2  and  C_3
REMARK    3  A    between atoms: C_3  and  C_4
REMARK    4  A    between atoms: C_4  and  C_5
REMARK    5  A    between atoms: C_5  and  C_6
REMARK    6  A    between atoms: C_6  and  C_7
REMARK    7  A    between atoms: C_7  and  C_8
REMARK    8  A    between atoms: C_8  and  N_9
REMARK    9  A    between atoms: N_9  and  C_10
REMARK   10  A    between atoms: C_12  and  C_13
REMARK   11  A    between atoms: C_17  and  C_18
REMARK                            x       y       z     vdW  Elec       q    Type
REMARK                         _______ _______ _______ _____ _____    ______ ____
ROOT
ATOM      1  N   UNL     1       5.136   6.414  16.950  0.00  0.00    +0.000 N 
ATOM      2  H   UNL     1       5.526   7.258  17.356  0.00  0.00    +0.000 HD
ENDROOT
BRANCH   1   3
ATOM      3  C   UNL     1       4.805   5.354  17.779  0.00  0.00    +0.000 A 
ATOM      4  N   UNL     1       3.578   4.784  17.664  0.00  0.00    +0.000 NA
ATOM      5  C   UNL     1       3.294   3.758  18.513  0.00  0.00    +0.000 A 
ATOM      6  C   UNL     1       4.186   3.321  19.477  0.00  0.00    +0.000 A 
ATOM      7  N   UNL     1       5.405   3.878  19.632  0.00  0.00    +0.000 NA
ATOM      8  C   UNL     1       5.688   4.896  18.772  0.00  0.00    +0.000 A 
BRANCH   5   9
ATOM      9  C   UNL     1       2.036   3.096  18.340  0.00  0.00    +0.000 C 
ATOM     10  N   UNL     1       0.989   2.607  18.225  0.00  0.00    +0.000 NA
ENDBRANCH   5   9
BRANCH   8  11
ATOM     11  C   UNL     1       6.967   5.519  18.965  0.00  0.00    +0.000 C 
ATOM     12  N   UNL     1       8.015   5.986  19.087  0.00  0.00    +0.000 NA
ENDBRANCH   8  11
ENDBRANCH   1   3
BRANCH   1  13
ATOM     13  C   UNL     1       5.187   6.251  15.512  0.00  0.00    +0.000 C 
BRANCH  13  14
ATOM     14  C   UNL     1       6.238   5.203  15.151  0.00  0.00    +0.000 C 
BRANCH  14  15
ATOM     15  C   UNL     1       5.601   4.028  14.417  0.00  0.00    +0.000 C 
BRANCH  15  16
ATOM     16  C   UNL     1       6.309   3.761  13.094  0.00  0.00    +0.000 C 
BRANCH  16  17
ATOM     17  C   UNL     1       5.395   2.990  12.148  0.00  0.00    +0.000 C 
BRANCH  17  18
ATOM     18  C   UNL     1       4.575   3.951  11.299  0.00  0.00    +0.000 C 
BRANCH  18  20
ATOM     19  C   UNL     1       2.811   4.081   9.535  0.00  0.00    +0.000 C 
ATOM     20  C   UNL     1       3.415   3.224  10.630  0.00  0.00    +0.000 C 
ENDBRANCH  18  20
ENDBRANCH  17  18
ENDBRANCH  16  17
ENDBRANCH  15  16
ENDBRANCH  14  15
ENDBRANCH  13  14
ENDBRANCH   1  13
TORSDOF 10
ENDMDL
MODEL 3
REMARK VINA RESULT:      -6.0      1.296      1.546
REMARK  Name = 
REMARK  11 active torsions:
REMARK  status: ('A' for Active; 'I' for Inactive)
REMARK    1  A    between atoms: C_1  and  C_2
REMARK    2  A    between atoms: C_2  and  C_3
REMARK    3  A    between atoms: C_3  and  C_4
REMARK    4  A    between atoms: C_4  and  C_5
REMARK    5  A    between atoms: C_5  and  C_6
REMARK    6  A    between atoms: C_6  and  C_7
REMARK    7  A    between atoms: C_7  and  C_8
REMARK    8  A    between atoms: C_8  and  N_9
REMARK    9  A    between atoms: N_9  and  C_10
REMARK   10  A    between atoms: C_12  and  C_13
REMARK   11  A    between atoms: C_17  and  C_18
REMARK                            x       y       z     vdW  Elec       q    Type
REMARK                         _______ _______ _______ _____ _____    ______ ____
ROOT
ATOM      1  N   UNL     1       4.703   4.926  17.037  0.00  0.00    +0.000 N 
ATOM      2  H   UNL     1       3.860   5.487  16.982  0.00  0.00    +0.000 HD
ENDROOT
BRANCH   1   3
ATOM      3  C   UNL     1       5.562   4.887  15.950  0.00  0.00    +0.000 A 
ATOM      4  N   UNL     1       5.230   4.128  14.873  0.00  0.00    +0.000 NA
ATOM      5  C   UNL     1       6.114   4.107  13.839  0.00  0.00    +0.000 A 
ATOM      6  C   UNL     1       7.315   4.795  13.873  0.00  0.00    +0.000 A 
ATOM      7  N   UNL     1       7.686   5.541  14.934  0.00  0.00    +0.000 NA
ATOM      8  C   UNL     1       6.792   5.567  15.962  0.00  0.00    +0.000 A 
BRANCH   5   9
ATOM      9  C   UNL     1       5.731   3.380  12.666  0.00  0.00    +0.000 C 
ATOM     10  N   UNL     1       5.415   2.740  11.750  0.00  0.00    +0.000 NA
ENDBRANCH   5   9
BRANCH   8  11
ATOM     11  C   UNL     1       7.204   6.323  17.109  0.00  0.00    +0.000 C 
ATOM     12  N   UNL     1       7.584   6.921  18.020  0.00  0.00    +0.000 NA
ENDBRANCH   8  11
ENDBRANCH   1   3
BRANCH   1  13
ATOM     13  C   UNL     1       4.840   3.989  18.132  0.00  0.00    +0.000 C 
BRANCH  13  14
ATOM     14  C   UNL     1       3.766   2.907  18.020  0.00  0.00    +0.000 C 
BRANCH  14  15
ATOM     15  C   UNL     1       2.617   3.376  17.135  0.00  0.00    +0.000 C 
BRANCH  15  16
ATOM     16  C   UNL     1       1.531   4.055  17.962  0.00  0.00    +0.000 C 
BRANCH  16  17
ATOM     17  C   UNL     1       0.969   3.088  18.997  0.00  0.00    +0.000 C 
BRANCH  17  18
ATOM     18  C   UNL     1       0.892   3.756  20.363  0.00  0.00    +0.000 C 
BRANCH  18  20
ATOM     19  C   UNL     1       2.798   2.615  21.505  0.00  0.00    +0.000 C 
ATOM     20  C   UNL     1       1.292   2.780  21.464  0.00  0.00    +0.000 C 
ENDBRANCH  18  20
ENDBRANCH  17  18
ENDBRANCH  16  17
ENDBRANCH  15  16
ENDBRANCH  14  15
ENDBRANCH  13  14
ENDBRANCH   1  13
TORSDOF 10
ENDMDL
MODEL 4
REMARK VINA RESULT:      -6.0      0.684      2.033
REMARK  Name = 
REMARK  11 active torsions:
REMARK  status: ('A' for Active; 'I' for Inactive)
REMARK    1  A    between atoms: C_1  and  C_2
REMARK    2  A    between atoms: C_2  and  C_3
REMARK    3  A    between atoms: C_3  and  C_4
REMARK    4  A    between atoms: C_4  and  C_5
REMARK    5  A    between atoms: C_5  and  C_6
REMARK    6  A    between atoms: C_6  and  C_7
REMARK    7  A    between atoms: C_7  and  C_8
REMARK    8  A    between atoms: C_8  and  N_9
REMARK    9  A    between atoms: N_9  and  C_10
REMARK   10  A    between atoms: C_12  and  C_13
REMARK   11  A    between atoms: C_17  and  C_18
REMARK                            x       y       z     vdW  Elec       q    Type
REMARK                         _______ _______ _______ _____ _____    ______ ____
ROOT
ATOM      1  N   UNL     1       5.383   3.600  17.775  0.00  0.00    +0.000 N 
ATOM      2  H   UNL     1       5.840   3.738  18.670  0.00  0.00    +0.000 HD
ENDROOT
BRANCH   1   3
ATOM      3  C   UNL     1       5.973   4.108  16.628  0.00  0.00    +0.000 A 
ATOM      4  N   UNL     1       5.647   3.570  15.425  0.00  0.00    +0.000 NA
ATOM      5  C   UNL     1       6.267   4.090  14.330  0.00  0.00    +0.000 A 
ATOM      6  C   UNL     1       7.211   5.098  14.419  0.00  0.00    +0.000 A 
ATOM      7  N   UNL     1       7.573   5.641  15.599  0.00  0.00    +0.000 NA
ATOM      8  C   UNL     1       6.942   5.125  16.690  0.00  0.00    +0.000 A 
BRANCH   5   9
ATOM      9  C   UNL     1       5.864   3.587  13.051  0.00  0.00    +0.000 C 
ATOM     10  N   UNL     1       5.582   3.137  12.018  0.00  0.00    +0.000 NA
ENDBRANCH   5   9
BRANCH   8  11
ATOM     11  C   UNL     1       7.358   5.670  17.951  0.00  0.00    +0.000 C 
ATOM     12  N   UNL     1       7.681   6.062  18.987  0.00  0.00    +0.000 NA
ENDBRANCH   8  11
ENDBRANCH   1   3
BRANCH   1  13
ATOM     13  C   UNL     1       4.017   3.118  17.762  0.00  0.00    +0.000 C 
BRANCH  13  14
ATOM     14  C   UNL     1       3.686   2.480  19.111  0.00  0.00    +0.000 C 
BRANCH  14  15
ATOM     15  C   UNL     1       2.226   2.044  19.159  0.00  0.00    +0.000 C 
BRANCH  15  16
ATOM     16  C   UNL     1       1.508   2.665  20.352  0.00  0.00    +0.000 C 
BRANCH  16  17
ATOM     17  C   UNL     1       1.116   4.106  20.045  0.00  0.00    +0.000 C 
BRANCH  17  18
ATOM     18  C   UNL     1       1.994   5.075  20.824  0.00  0.00    +0.000 C 
BRANCH  18  20
ATOM     19  C   UNL     1       2.477   6.178  18.635  0.00  0.00    +0.000 C 
ATOM     20  C   UNL     1       2.113   6.405  20.089  0.00  0.00    +0.000 C 
ENDBRANCH  18  20
ENDBRANCH  17  18
ENDBRANCH  16  17
ENDBRANCH  15  16
ENDBRANCH  14  15
ENDBRANCH  13  14
ENDBRANCH   1  13
TORSDOF 10
ENDMDL
MODEL 5
REMARK VINA RESULT:      -6.0      1.103      1.984
REMARK  Name = 
REMARK  11 active torsions:
REMARK  status: ('A' for Active; 'I' for Inactive)
REMARK    1  A    between atoms: C_1  and  C_2
REMARK    2  A    between atoms: C_2  and  C_3
REMARK    3  A    between atoms: C_3  and  C_4
REMARK    4  A    between atoms: C_4  and  C_5
REMARK    5  A    between atoms: C_5  and  C_6
REMARK    6  A    between atoms: C_6  and  C_7
REMARK    7  A    between atoms: C_7  and  C_8
REMARK    8  A    between atoms: C_8  and  N_9
REMARK    9  A    between atoms: N_9  and  C_10
REMARK   10  A    between atoms: C_12  and  C_13
REMARK   11  A    between atoms: C_17  and  C_18
REMARK                            x       y       z     vdW  Elec       q    Type
REMARK                         _______ _______ _______ _____ _____    ______ ____
ROOT
ATOM      1  N   UNL     1       5.973   3.763  18.104  0.00  0.00    +0.000 N 
ATOM      2  H   UNL     1       6.686   3.418  18.737  0.00  0.00    +0.000 HD
ENDROOT
BRANCH   1   3
ATOM      3  C   UNL     1       6.352   4.297  16.883  0.00  0.00    +0.000 A 
ATOM      4  N   UNL     1       5.969   3.670  15.741  0.00  0.00    +0.000 NA
ATOM      5  C   UNL     1       6.381   4.221  14.567  0.00  0.00    +0.000 A 
ATOM      6  C   UNL     1       7.180   5.351  14.517  0.00  0.00    +0.000 A 
ATOM      7  N   UNL     1       7.595   5.987  15.631  0.00  0.00    +0.000 NA
ATOM      8  C   UNL     1       7.170   5.437  16.803  0.00  0.00    +0.000 A 
BRANCH   5   9
ATOM      9  C   UNL     1       5.909   3.616  13.359  0.00  0.00    +0.000 C 
ATOM     10  N   UNL     1       5.565   3.160  12.347  0.00  0.00    +0.000 NA
ENDBRANCH   5   9
BRANCH   8  11
ATOM     11  C   UNL     1       7.648   6.085  17.990  0.00  0.00    +0.000 C 
ATOM     12  N   UNL     1       8.034   6.652  18.919  0.00  0.00    +0.000 NA
ENDBRANCH   8  11
ENDBRANCH   1   3
BRANCH   1  13
ATOM     13  C   UNL     1       4.623   3.926  18.606  0.00  0.00    +0.000 C 
BRANCH  13  14
ATOM     14  C   UNL     1       4.287   2.778  19.557  0.00  0.00    +0.000 C 
BRANCH  14  15
ATOM     15  C   UNL     1       3.611   1.635  18.807  0.00  0.00    +0.000 C 
BRANCH  15  16
ATOM     16  C   UNL     1       2.511   2.157  17.891  0.00  0.00    +0.000 C 
BRANCH  16  17
ATOM     17  C   UNL     1       1.195   2.274  18.652  0.00  0.00    +0.000 C 
BRANCH  17  18
ATOM     18  C   UNL     1       0.863   3.734  18.922  0.00  0.00    +0.000 C 
BRANCH  18  20
ATOM     19  C   UNL     1       1.810   5.306  20.618  0.00  0.00    +0.000 C 
ATOM     20  C   UNL     1       0.987   4.050  20.408  0.00  0.00    +0.000 C 
ENDBRANCH  18  20
ENDBRANCH  17  18
ENDBRANCH  16  17
ENDBRANCH  15  16
ENDBRANCH  14  15
ENDBRANCH  13  14
ENDBRANCH   1  13
TORSDOF 10
ENDMDL
MODEL 6
REMARK VINA RESULT:      -5.9      0.935      1.115
REMARK  Name = 
REMARK  11 active torsions:
REMARK  status: ('A' for Active; 'I' for Inactive)
REMARK    1  A    between atoms: C_1  and  C_2
REMARK    2  A    between atoms: C_2  and  C_3
REMARK    3  A    between atoms: C_3  and  C_4
REMARK    4  A    between atoms: C_4  and  C_5
REMARK    5  A    between atoms: C_5  and  C_6
REMARK    6  A    between atoms: C_6  and  C_7
REMARK    7  A    between atoms: C_7  and  C_8
REMARK    8  A    between atoms: C_8  and  N_9
REMARK    9  A    between atoms: N_9  and  C_10
REMARK   10  A    between atoms: C_12  and  C_13
REMARK   11  A    between atoms: C_17  and  C_18
REMARK                            x       y       z     vdW  Elec       q    Type
REMARK                         _______ _______ _______ _____ _____    ______ ____
ROOT
ATOM      1  N   UNL     1       4.641   4.873  17.042  0.00  0.00    +0.000 N 
ATOM      2  H   UNL     1       3.894   5.559  17.054  0.00  0.00    +0.000 HD
ENDROOT
BRANCH   1   3
ATOM      3  C   UNL     1       5.515   4.843  15.967  0.00  0.00    +0.000 A 
ATOM      4  N   UNL     1       5.186   4.116  14.869  0.00  0.00    +0.000 NA
ATOM      5  C   UNL     1       6.085   4.102  13.847  0.00  0.00    +0.000 A 
ATOM      6  C   UNL     1       7.299   4.765  13.916  0.00  0.00    +0.000 A 
ATOM      7  N   UNL     1       7.667   5.480  14.999  0.00  0.00    +0.000 NA
ATOM      8  C   UNL     1       6.758   5.499  16.014  0.00  0.00    +0.000 A 
BRANCH   5   9
ATOM      9  C   UNL     1       5.706   3.410  12.653  0.00  0.00    +0.000 C 
ATOM     10  N   UNL     1       5.351   2.826  11.714  0.00  0.00    +0.000 NA
ENDBRANCH   5   9
BRANCH   8  11
ATOM     11  C   UNL     1       7.166   6.221  17.185  0.00  0.00    +0.000 C 
ATOM     12  N   UNL     1       7.540   6.775  18.126  0.00  0.00    +0.000 NA
ENDBRANCH   8  11
ENDBRANCH   1   3
BRANCH   1  13
ATOM     13  C   UNL     1       4.604   3.794  18.008  0.00  0.00    +0.000 C 
BRANCH  13  14
ATOM     14  C   UNL     1       4.517   4.371  19.420  0.00  0.00    +0.000 C 
BRANCH  14  15
ATOM     15  C   UNL     1       3.919   5.774  19.394  0.00  0.00    +0.000 C 
BRANCH  15  16
ATOM     16  C   UNL     1       2.461   5.755  19.838  0.00  0.00    +0.000 C 
BRANCH  16  17
ATOM     17  C   UNL     1       2.252   4.718  20.935  0.00  0.00    +0.000 C 
BRANCH  17  18
ATOM     18  C   UNL     1       1.032   3.860  20.633  0.00  0.00    +0.000 C 
BRANCH  18  20
ATOM     19  C   UNL     1       1.072   2.392  18.612  0.00  0.00    +0.000 C 
ATOM     20  C   UNL     1       1.449   2.504  20.076  0.00  0.00    +0.000 C 
ENDBRANCH  18  20
ENDBRANCH  17  18
ENDBRANCH  16  17
ENDBRANCH  15  16
ENDBRANCH  14  15
ENDBRANCH  13  14
ENDBRANCH   1  13
TORSDOF 10
ENDMDL
MODEL 7
REMARK VINA RESULT:      -5.8      0.946      1.722
REMARK  Name = 
REMARK  11 active torsions:
REMARK  status: ('A' for Active; 'I' for Inactive)
REMARK    1  A    between atoms: C_1  and  C_2
REMARK    2  A    between atoms: C_2  and  C_3
REMARK    3  A    between atoms: C_3  and  C_4
REMARK    4  A    between atoms: C_4  and  C_5
REMARK    5  A    between atoms: C_5  and  C_6
REMARK    6  A    between atoms: C_6  and  C_7
REMARK    7  A    between atoms: C_7  and  C_8
REMARK    8  A    between atoms: C_8  and  N_9
REMARK    9  A    between atoms: N_9  and  C_10
REMARK   10  A    between atoms: C_12  and  C_13
REMARK   11  A    between atoms: C_17  and  C_18
REMARK                            x       y       z     vdW  Elec       q    Type
REMARK                         _______ _______ _______ _____ _____    ______ ____
ROOT
ATOM      1  N   UNL     1       5.442   3.700  17.678  0.00  0.00    +0.000 N 
ATOM      2  H   UNL     1       6.023   3.230  18.365  0.00  0.00    +0.000 HD
ENDROOT
BRANCH   1   3
ATOM      3  C   UNL     1       6.020   4.165  16.507  0.00  0.00    +0.000 A 
ATOM      4  N   UNL     1       5.691   3.574  15.330  0.00  0.00    +0.000 NA
ATOM      5  C   UNL     1       6.298   4.054  14.210  0.00  0.00    +0.000 A 
ATOM      6  C   UNL     1       7.234   5.074  14.250  0.00  0.00    +0.000 A 
ATOM      7  N   UNL     1       7.598   5.669  15.404  0.00  0.00    +0.000 NA
ATOM      8  C   UNL     1       6.979   5.193  16.520  0.00  0.00    +0.000 A 
BRANCH   5   9
ATOM      9  C   UNL     1       5.893   3.495  12.956  0.00  0.00    +0.000 C 
ATOM     10  N   UNL     1       5.607   3.075  11.911  0.00  0.00    +0.000 NA
ENDBRANCH   5   9
BRANCH   8  11
ATOM     11  C   UNL     1       7.398   5.794  17.754  0.00  0.00    +0.000 C 
ATOM     12  N   UNL     1       7.783   6.260  18.737  0.00  0.00    +0.000 NA
ENDBRANCH   8  11
ENDBRANCH   1   3
BRANCH   1  13
ATOM     13  C   UNL     1       4.103   4.097  18.061  0.00  0.00    +0.000 C 
BRANCH  13  14
ATOM     14  C   UNL     1       3.086   3.147  17.430  0.00  0.00    +0.000 C 
BRANCH  14  15
ATOM     15  C   UNL     1       1.665   3.656  17.644  0.00  0.00    +0.000 C 
BRANCH  15  16
ATOM     16  C   UNL     1       0.871   2.707  18.533  0.00  0.00    +0.000 C 
BRANCH  16  17
ATOM     17  C   UNL     1       1.743   2.190  19.672  0.00  0.00    +0.000 C 
BRANCH  17  18
ATOM     18  C   UNL     1       1.406   2.910  20.970  0.00  0.00    +0.000 C 
BRANCH  18  20
ATOM     19  C   UNL     1       2.196   5.276  20.843  0.00  0.00    +0.000 C 
ATOM     20  C   UNL     1       1.002   4.354  20.698  0.00  0.00    +0.000 C 
ENDBRANCH  18  20
ENDBRANCH  17  18
ENDBRANCH  16  17
ENDBRANCH  15  16
ENDBRANCH  14  15
ENDBRANCH  13  14
ENDBRANCH   1  13
TORSDOF 10
ENDMDL
MODEL 8
REMARK VINA RESULT:      -5.8      2.237      6.479
REMARK  Name = 
REMARK  11 active torsions:
REMARK  status: ('A' for Active; 'I' for Inactive)
REMARK    1  A    between atoms: C_1  and  C_2
REMARK    2  A    between atoms: C_2  and  C_3
REMARK    3  A    between atoms: C_3  and  C_4
REMARK    4  A    between atoms: C_4  and  C_5
REMARK    5  A    between atoms: C_5  and  C_6
REMARK    6  A    between atoms: C_6  and  C_7
REMARK    7  A    between atoms: C_7  and  C_8
REMARK    8  A    between atoms: C_8  and  N_9
REMARK    9  A    between atoms: N_9  and  C_10
REMARK   10  A    between atoms: C_12  and  C_13
REMARK   11  A    between atoms: C_17  and  C_18
REMARK                            x       y       z     vdW  Elec       q    Type
REMARK                         _______ _______ _______ _____ _____    ______ ____
ROOT
ATOM      1  N   UNL     1       6.149   3.673  16.744  0.00  0.00    +0.000 N 
ATOM      2  H   UNL     1       6.204   2.696  16.475  0.00  0.00    +0.000 HD
ENDROOT
BRANCH   1   3
ATOM      3  C   UNL     1       5.181   4.071  17.652  0.00  0.00    +0.000 A 
ATOM      4  N   UNL     1       3.909   3.620  17.501  0.00  0.00    +0.000 NA
ATOM      5  C   UNL     1       2.990   4.054  18.406  0.00  0.00    +0.000 A 
ATOM      6  C   UNL     1       3.308   4.938  19.423  0.00  0.00    +0.000 A 
ATOM      7  N   UNL     1       4.556   5.422  19.590  0.00  0.00    +0.000 NA
ATOM      8  C   UNL     1       5.474   4.975  18.688  0.00  0.00    +0.000 A 
BRANCH   5   9
ATOM      9  C   UNL     1       1.667   3.515  18.305  0.00  0.00    +0.000 C 
ATOM     10  N   UNL     1       0.585   3.095  18.281  0.00  0.00    +0.000 NA
ENDBRANCH   5   9
BRANCH   8  11
ATOM     11  C   UNL     1       6.792   5.523  18.836  0.00  0.00    +0.000 C 
ATOM     12  N   UNL     1       7.868   5.917  18.971  0.00  0.00    +0.000 NA
ENDBRANCH   8  11
ENDBRANCH   1   3
BRANCH   1  13
ATOM     13  C   UNL     1       6.902   4.645  15.979  0.00  0.00    +0.000 C 
BRANCH  13  14
ATOM     14  C   UNL     1       6.018   5.225  14.876  0.00  0.00    +0.000 C 
BRANCH  14  15
ATOM     15  C   UNL     1       5.341   4.113  14.083  0.00  0.00    +0.000 C 
BRANCH  15  16
ATOM     16  C   UNL     1       6.256   3.592  12.981  0.00  0.00    +0.000 C 
BRANCH  16  17
ATOM     17  C   UNL     1       5.443   2.883  11.905  0.00  0.00    +0.000 C 
BRANCH  17  18
ATOM     18  C   UNL     1       4.140   3.625  11.646  0.00  0.00    +0.000 C 
BRANCH  18  20
ATOM     19  C   UNL     1       2.865   4.266   9.596  0.00  0.00    +0.000 C 
ATOM     20  C   UNL     1       3.472   3.116  10.375  0.00  0.00    +0.000 C 
ENDBRANCH  18  20
ENDBRANCH  17  18
ENDBRANCH  16  17
ENDBRANCH  15  16
ENDBRANCH  14  15
ENDBRANCH  13  14
ENDBRANCH   1  13
TORSDOF 10
ENDMDL
MODEL 9
REMARK VINA RESULT:      -5.7      1.214      1.533
REMARK  Name = 
REMARK  11 active torsions:
REMARK  status: ('A' for Active; 'I' for Inactive)
REMARK    1  A    between atoms: C_1  and  C_2
REMARK    2  A    between atoms: C_2  and  C_3
REMARK    3  A    between atoms: C_3  and  C_4
REMARK    4  A    between atoms: C_4  and  C_5
REMARK    5  A    between atoms: C_5  and  C_6
REMARK    6  A    between atoms: C_6  and  C_7
REMARK    7  A    between atoms: C_7  and  C_8
REMARK    8  A    between atoms: C_8  and  N_9
REMARK    9  A    between atoms: N_9  and  C_10
REMARK   10  A    between atoms: C_12  and  C_13
REMARK   11  A    between atoms: C_17  and  C_18
REMARK                            x       y       z     vdW  Elec       q    Type
REMARK                         _______ _______ _______ _____ _____    ______ ____
ROOT
ATOM      1  N   UNL     1       5.598   3.938  17.814  0.00  0.00    +0.000 N 
ATOM      2  H   UNL     1       6.013   3.143  18.289  0.00  0.00    +0.000 HD
ENDROOT
BRANCH   1   3
ATOM      3  C   UNL     1       6.129   4.357  16.604  0.00  0.00    +0.000 A 
ATOM      4  N   UNL     1       5.772   3.707  15.466  0.00  0.00    +0.000 NA
ATOM      5  C   UNL     1       6.334   4.143  14.306  0.00  0.00    +0.000 A 
ATOM      6  C   UNL     1       7.252   5.179  14.268  0.00  0.00    +0.000 A 
ATOM      7  N   UNL     1       7.644   5.833  15.381  0.00  0.00    +0.000 NA
ATOM      8  C   UNL     1       7.069   5.399  16.538  0.00  0.00    +0.000 A 
BRANCH   5   9
ATOM      9  C   UNL     1       5.897   3.520  13.093  0.00  0.00    +0.000 C 
ATOM     10  N   UNL     1       5.506   2.979  12.143  0.00  0.00    +0.000 NA
ENDBRANCH   5   9
BRANCH   8  11
ATOM     11  C   UNL     1       7.518   6.064  17.728  0.00  0.00    +0.000 C 
ATOM     12  N   UNL     1       7.927   6.582  18.675  0.00  0.00    +0.000 NA
ENDBRANCH   8  11
ENDBRANCH   1   3
BRANCH   1  13
ATOM     13  C   UNL     1       4.648   4.757  18.538  0.00  0.00    +0.000 C 
BRANCH  13  14
ATOM     14  C   UNL     1       3.739   5.485  17.548  0.00  0.00    +0.000 C 
BRANCH  14  15
ATOM     15  C   UNL     1       2.335   5.644  18.121  0.00  0.00    +0.000 C 
BRANCH  15  16
ATOM     16  C   UNL     1       1.525   4.364  17.947  0.00  0.00    +0.000 C 
BRANCH  16  17
ATOM     17  C   UNL     1       1.151   3.783  19.306  0.00  0.00    +0.000 C 
BRANCH  17  18
ATOM     18  C   UNL     1       1.606   2.334  19.409  0.00  0.00    +0.000 C 
BRANCH  18  20
ATOM     19  C   UNL     1       3.635   1.218  18.472  0.00  0.00    +0.000 C 
ATOM     20  C   UNL     1       2.324   1.902  18.136  0.00  0.00    +0.000 C 
ENDBRANCH  18  20
ENDBRANCH  17  18
ENDBRANCH  16  17
ENDBRANCH  15  16
ENDBRANCH  14  15
ENDBRANCH  13  14
ENDBRANCH   1  13
TORSDOF 10
ENDMDL
