MODEL 1
REMARK VINA RESULT:      -8.3      0.000      0.000
REMARK  Name = 
REMARK  7 active torsions:
REMARK  status: ('A' for Active; 'I' for Inactive)
REMARK    1  A    between atoms: C_1  and  O_2
REMARK    2  A    between atoms: O_2  and  C_3
REMARK    3  A    between atoms: C_6  and  C_7
REMARK    4  A    between atoms: C_7  and  C_8
REMARK    5  A    between atoms: C_7  and  O_9
REMARK    6  A    between atoms: C_7  and  C_10
REMARK    7  A    between atoms: C_12  and  C_13
REMARK                            x       y       z     vdW  Elec       q    Type
REMARK                         _______ _______ _______ _____ _____    ______ ____
ROOT
ATOM      1  C   UNL     1       3.316   4.272  19.351  0.00  0.00    +0.000 A 
ATOM      2  N   UNL     1       3.116   5.478  18.841  0.00  0.00    +0.000 NA
ATOM      3  C   UNL     1       2.285   6.223  19.664  0.00  0.00    +0.000 A 
ATOM      4  C   UNL     1       1.799   5.543  20.760  0.00  0.00    +0.000 A 
ATOM      5  S   UNL     1       2.435   3.958  20.803  0.00  0.00    +0.000 S 
ENDROOT
BRANCH   3   6
ATOM      6  C   UNL     1       1.944   7.606  19.352  0.00  0.00    +0.000 A 
ATOM      7  C   UNL     1       2.228   8.158  18.092  0.00  0.00    +0.000 A 
ATOM      8  C   UNL     1       1.924   9.494  17.818  0.00  0.00    +0.000 A 
ATOM      9  C   UNL     1       1.332  10.280  18.800  0.00  0.00    +0.000 A 
ATOM     10  F   UNL     1       1.064  11.563  18.521  0.00  0.00    +0.000 F 
ATOM     11  C   UNL     1       1.026   9.741  20.048  0.00  0.00    +0.000 A 
ATOM     12 CL   UNL     1       0.293  10.714  21.263  0.00  0.00    +0.000 Cl
ATOM     13  C   UNL     1       1.323   8.404  20.323  0.00  0.00    +0.000 A 
ENDBRANCH   3   6
BRANCH   1  14
ATOM     14  C   UNL     1       4.242   3.224  18.727  0.00  0.00    +0.000 C 
ATOM     15  C   UNL     1       3.405   2.041  18.213  0.00  0.00    +0.000 C 
BRANCH  14  19
ATOM     16  C   UNL     1       6.829   5.096  15.749  0.00  0.00    +0.000 A 
ATOM     17  C   UNL     1       5.613   4.532  15.367  0.00  0.00    +0.000 A 
ATOM     18  C   UNL     1       4.775   3.933  16.312  0.00  0.00    +0.000 A 
ATOM     19  C   UNL     1       5.149   3.857  17.663  0.00  0.00    +0.000 A 
ATOM     20  C   UNL     1       6.380   4.434  18.031  0.00  0.00    +0.000 A 
ATOM     21  C   UNL     1       7.216   5.039  17.085  0.00  0.00    +0.000 A 
BRANCH  16  23
ATOM     22  C   UNL     1       7.446   4.995  13.471  0.00  0.00    +0.000 C 
ATOM     23  O   UNL     1       7.559   5.646  14.732  0.00  0.00    +0.000 OA
ENDBRANCH  16  23
ENDBRANCH  14  19
BRANCH  14  24
ATOM     24  O   UNL     1       5.082   2.651  19.752  0.00  0.00    +0.000 OA
ATOM     25  H   UNL     1       4.951   3.193  20.549  0.00  0.00    +0.000 HD
ENDBRANCH  14  24
ENDBRANCH   1  14
TORSDOF 5
ENDMDL
MODEL 2
REMARK VINA RESULT:      -8.0      4.898      6.560
REMARK  Name = 
REMARK  7 active torsions:
REMARK  status: ('A' for Active; 'I' for Inactive)
REMARK    1  A    between atoms: C_1  and  O_2
REMARK    2  A    between atoms: O_2  and  C_3
REMARK    3  A    between atoms: C_6  and  C_7
REMARK    4  A    between atoms: C_7  and  C_8
REMARK    5  A    between atoms: C_7  and  O_9
REMARK    6  A    between atoms: C_7  and  C_10
REMARK    7  A    between atoms: C_12  and  C_13
REMARK                            x       y       z     vdW  Elec       q    Type
REMARK                         _______ _______ _______ _____ _____    ______ ____
ROOT
ATOM      1  C   UNL     1       6.741   6.660  17.108  0.00  0.00    +0.000 A 
ATOM      2  N   UNL     1       6.984   7.962  17.086  0.00  0.00    +0.000 NA
ATOM      3  C   UNL     1       7.928   8.297  18.046  0.00  0.00    +0.000 A 
ATOM      4  C   UNL     1       8.339   7.249  18.842  0.00  0.00    +0.000 A 
ATOM      5  S   UNL     1       7.578   5.799  18.350  0.00  0.00    +0.000 S 
ENDROOT
BRANCH   3   6
ATOM      6  C   UNL     1       8.407   9.665  18.198  0.00  0.00    +0.000 A 
ATOM      7  C   UNL     1       7.911  10.703  17.392  0.00  0.00    +0.000 A 
ATOM      8  C   UNL     1       8.403  12.004  17.528  0.00  0.00    +0.000 A 
ATOM      9  C   UNL     1       9.387  12.272  18.473  0.00  0.00    +0.000 A 
ATOM     10  F   UNL     1       9.855  13.524  18.576  0.00  0.00    +0.000 F 
ATOM     11  C   UNL     1       9.874  11.257  19.294  0.00  0.00    +0.000 A 
ATOM     12 CL   UNL     1      11.092  11.590  20.464  0.00  0.00    +0.000 Cl
ATOM     13  C   UNL     1       9.380   9.957  19.165  0.00  0.00    +0.000 A 
ENDBRANCH   3   6
BRANCH   1  14
ATOM     14  C   UNL     1       5.801   5.951  16.129  0.00  0.00    +0.000 C 
ATOM     15  C   UNL     1       6.601   4.941  15.289  0.00  0.00    +0.000 C 
BRANCH  14  19
ATOM     16  C   UNL     1       2.363   4.176  18.154  0.00  0.00    +0.000 A 
ATOM     17  C   UNL     1       2.634   5.536  18.293  0.00  0.00    +0.000 A 
ATOM     18  C   UNL     1       3.730   6.116  17.647  0.00  0.00    +0.000 A 
ATOM     19  C   UNL     1       4.602   5.339  16.867  0.00  0.00    +0.000 A 
ATOM     20  C   UNL     1       4.311   3.967  16.736  0.00  0.00    +0.000 A 
ATOM     21  C   UNL     1       3.210   3.388  17.380  0.00  0.00    +0.000 A 
BRANCH  16  23
ATOM     22  C   UNL     1       1.132   4.218  20.170  0.00  0.00    +0.000 C 
ATOM     23  O   UNL     1       1.269   3.728  18.841  0.00  0.00    +0.000 OA
ENDBRANCH  16  23
ENDBRANCH  14  19
BRANCH  14  24
ATOM     24  O   UNL     1       5.299   6.903  15.166  0.00  0.00    +0.000 OA
ATOM     25  H   UNL     1       5.124   7.723  15.657  0.00  0.00    +0.000 HD
ENDBRANCH  14  24
ENDBRANCH   1  14
TORSDOF 5
ENDMDL
MODEL 3
REMARK VINA RESULT:      -7.9      4.897      6.492
REMARK  Name = 
REMARK  7 active torsions:
REMARK  status: ('A' for Active; 'I' for Inactive)
REMARK    1  A    between atoms: C_1  and  O_2
REMARK    2  A    between atoms: O_2  and  C_3
REMARK    3  A    between atoms: C_6  and  C_7
REMARK    4  A    between atoms: C_7  and  C_8
REMARK    5  A    between atoms: C_7  and  O_9
REMARK    6  A    between atoms: C_7  and  C_10
REMARK    7  A    between atoms: C_12  and  C_13
REMARK                            x       y       z     vdW  Elec       q    Type
REMARK                         _______ _______ _______ _____ _____    ______ ____
ROOT
ATOM      1  C   UNL     1       6.758   6.625  17.132  0.00  0.00    +0.000 A 
ATOM      2  N   UNL     1       6.996   7.928  17.103  0.00  0.00    +0.000 NA
ATOM      3  C   UNL     1       7.925   8.275  18.073  0.00  0.00    +0.000 A 
ATOM      4  C   UNL     1       8.329   7.236  18.884  0.00  0.00    +0.000 A 
ATOM      5  S   UNL     1       7.581   5.779  18.393  0.00  0.00    +0.000 S 
ENDROOT
BRANCH   3   6
ATOM      6  C   UNL     1       8.396   9.647  18.220  0.00  0.00    +0.000 A 
ATOM      7  C   UNL     1       7.902  10.677  17.403  0.00  0.00    +0.000 A 
ATOM      8  C   UNL     1       8.386  11.982  17.535  0.00  0.00    +0.000 A 
ATOM      9  C   UNL     1       9.361  12.260  18.486  0.00  0.00    +0.000 A 
ATOM     10  F   UNL     1       9.822  13.515  18.584  0.00  0.00    +0.000 F 
ATOM     11  C   UNL     1       9.847  11.253  19.317  0.00  0.00    +0.000 A 
ATOM     12 CL   UNL     1      11.053  11.599  20.494  0.00  0.00    +0.000 Cl
ATOM     13  C   UNL     1       9.360   9.950  19.192  0.00  0.00    +0.000 A 
ENDBRANCH   3   6
BRANCH   1  14
ATOM     14  C   UNL     1       5.835   5.903  16.147  0.00  0.00    +0.000 C 
ATOM     15  C   UNL     1       6.632   4.828  15.390  0.00  0.00    +0.000 C 
BRANCH  14  19
ATOM     16  C   UNL     1       2.304   4.420  18.244  0.00  0.00    +0.000 A 
ATOM     17  C   UNL     1       3.077   3.555  17.473  0.00  0.00    +0.000 A 
ATOM     18  C   UNL     1       4.211   4.018  16.799  0.00  0.00    +0.000 A 
ATOM     19  C   UNL     1       4.584   5.370  16.858  0.00  0.00    +0.000 A 
ATOM     20  C   UNL     1       3.792   6.230  17.645  0.00  0.00    +0.000 A 
ATOM     21  C   UNL     1       2.659   5.764  18.323  0.00  0.00    +0.000 A 
BRANCH  16  23
ATOM     22  C   UNL     1       1.263   2.433  18.984  0.00  0.00    +0.000 C 
ATOM     23  O   UNL     1       1.218   3.849  18.847  0.00  0.00    +0.000 OA
ENDBRANCH  16  23
ENDBRANCH  14  19
BRANCH  14  24
ATOM     24  O   UNL     1       5.410   6.825  15.120  0.00  0.00    +0.000 OA
ATOM     25  H   UNL     1       6.192   7.349  14.880  0.00  0.00    +0.000 HD
ENDBRANCH  14  24
ENDBRANCH   1  14
TORSDOF 5
ENDMDL
MODEL 4
REMARK VINA RESULT:      -7.8      4.654      6.422
REMARK  Name = 
REMARK  7 active torsions:
REMARK  status: ('A' for Active; 'I' for Inactive)
REMARK    1  A    between atoms: C_1  and  O_2
REMARK    2  A    between atoms: O_2  and  C_3
REMARK    3  A    between atoms: C_6  and  C_7
REMARK    4  A    between atoms: C_7  and  C_8
REMARK    5  A    between atoms: C_7  and  O_9
REMARK    6  A    between atoms: C_7  and  C_10
REMARK    7  A    between atoms: C_12  and  C_13
REMARK                            x       y       z     vdW  Elec       q    Type
REMARK                         _______ _______ _______ _____ _____    ______ ____
ROOT
ATOM      1  C   UNL     1       6.672   6.508  17.103  0.00  0.00    +0.000 A 
ATOM      2  N   UNL     1       6.956   7.801  17.141  0.00  0.00    +0.000 NA
ATOM      3  C   UNL     1       7.919   8.060  18.105  0.00  0.00    +0.000 A 
ATOM      4  C   UNL     1       8.303   6.964  18.847  0.00  0.00    +0.000 A 
ATOM      5  S   UNL     1       7.492   5.563  18.295  0.00  0.00    +0.000 S 
ENDROOT
BRANCH   3   6
ATOM      6  C   UNL     1       8.443   9.404  18.317  0.00  0.00    +0.000 A 
ATOM      7  C   UNL     1       9.480   9.644  19.234  0.00  0.00    +0.000 A 
ATOM      8  C   UNL     1       9.951  10.942  19.449  0.00  0.00    +0.000 A 
ATOM      9  C   UNL     1       9.392  12.002  18.744  0.00  0.00    +0.000 A 
ATOM     10  F   UNL     1       9.849  13.240  18.978  0.00  0.00    +0.000 F 
ATOM     11  C   UNL     1       8.377  11.777  17.817  0.00  0.00    +0.000 A 
ATOM     12 CL   UNL     1       7.685  13.090  16.945  0.00  0.00    +0.000 Cl
ATOM     13  C   UNL     1       7.908  10.481  17.595  0.00  0.00    +0.000 A 
ENDBRANCH   3   6
BRANCH   1  14
ATOM     14  C   UNL     1       5.700   5.876  16.102  0.00  0.00    +0.000 C 
ATOM     15  C   UNL     1       6.448   4.841  15.246  0.00  0.00    +0.000 C 
BRANCH  14  19
ATOM     16  C   UNL     1       2.204   4.328  18.210  0.00  0.00    +0.000 A 
ATOM     17  C   UNL     1       3.017   3.468  17.475  0.00  0.00    +0.000 A 
ATOM     18  C   UNL     1       4.142   3.952  16.799  0.00  0.00    +0.000 A 
ATOM     19  C   UNL     1       4.462   5.318  16.818  0.00  0.00    +0.000 A 
ATOM     20  C   UNL     1       3.630   6.173  17.567  0.00  0.00    +0.000 A 
ATOM     21  C   UNL     1       2.507   5.686  18.249  0.00  0.00    +0.000 A 
BRANCH  16  23
ATOM     22  C   UNL     1       1.199   3.654  20.239  0.00  0.00    +0.000 C 
ATOM     23  O   UNL     1       1.133   3.735  18.820  0.00  0.00    +0.000 OA
ENDBRANCH  16  23
ENDBRANCH  14  19
BRANCH  14  24
ATOM     24  O   UNL     1       5.262   6.876  15.158  0.00  0.00    +0.000 OA
ATOM     25  H   UNL     1       5.407   6.501  14.273  0.00  0.00    +0.000 HD
ENDBRANCH  14  24
ENDBRANCH   1  14
TORSDOF 5
ENDMDL
MODEL 5
REMARK VINA RESULT:      -7.7      1.848      2.253
REMARK  Name = 
REMARK  7 active torsions:
REMARK  status: ('A' for Active; 'I' for Inactive)
REMARK    1  A    between atoms: C_1  and  O_2
REMARK    2  A    between atoms: O_2  and  C_3
REMARK    3  A    between atoms: C_6  and  C_7
REMARK    4  A    between atoms: C_7  and  C_8
REMARK    5  A    between atoms: C_7  and  O_9
REMARK    6  A    between atoms: C_7  and  C_10
REMARK    7  A    between atoms: C_12  and  C_13
REMARK                            x       y       z     vdW  Elec       q    Type
REMARK                         _______ _______ _______ _____ _____    ______ ____
ROOT
ATOM      1  C   UNL     1       3.443   4.718  19.421  0.00  0.00    +0.000 A 
ATOM      2  N   UNL     1       3.108   5.998  19.368  0.00  0.00    +0.000 NA
ATOM      3  C   UNL     1       2.027   6.253  20.200  0.00  0.00    +0.000 A 
ATOM      4  C   UNL     1       1.503   5.141  20.822  0.00  0.00    +0.000 A 
ATOM      5  S   UNL     1       2.410   3.751  20.412  0.00  0.00    +0.000 S 
ENDROOT
BRANCH   3   6
ATOM      6  C   UNL     1       1.490   7.599  20.360  0.00  0.00    +0.000 A 
ATOM      7  C   UNL     1       1.555   8.537  19.316  0.00  0.00    +0.000 A 
ATOM      8  C   UNL     1       1.063   9.833  19.494  0.00  0.00    +0.000 A 
ATOM      9  C   UNL     1       0.502  10.193  20.714  0.00  0.00    +0.000 A 
ATOM     10  F   UNL     1       0.051  11.446  20.868  0.00  0.00    +0.000 F 
ATOM     11  C   UNL     1       0.412   9.269  21.752  0.00  0.00    +0.000 A 
ATOM     12 CL   UNL     1      -0.284   9.715  23.261  0.00  0.00    +0.000 Cl
ATOM     13  C   UNL     1       0.896   7.971  21.575  0.00  0.00    +0.000 A 
ENDBRANCH   3   6
BRANCH   1  14
ATOM     14  C   UNL     1       4.639   4.117  18.676  0.00  0.00    +0.000 C 
ATOM     15  C   UNL     1       4.135   3.271  17.495  0.00  0.00    +0.000 C 
BRANCH  14  19
ATOM     16  C   UNL     1       7.492   7.252  17.629  0.00  0.00    +0.000 A 
ATOM     17  C   UNL     1       6.350   7.056  16.855  0.00  0.00    +0.000 A 
ATOM     18  C   UNL     1       5.428   6.057  17.182  0.00  0.00    +0.000 A 
ATOM     19  C   UNL     1       5.642   5.208  18.280  0.00  0.00    +0.000 A 
ATOM     20  C   UNL     1       6.801   5.423  19.052  0.00  0.00    +0.000 A 
ATOM     21  C   UNL     1       7.721   6.427  18.726  0.00  0.00    +0.000 A 
BRANCH  16  23
ATOM     22  C   UNL     1       8.405   9.388  18.059  0.00  0.00    +0.000 C 
ATOM     23  O   UNL     1       8.318   8.255  17.202  0.00  0.00    +0.000 OA
ENDBRANCH  16  23
ENDBRANCH  14  19
BRANCH  14  24
ATOM     24  O   UNL     1       5.315   3.173  19.533  0.00  0.00    +0.000 OA
ATOM     25  H   UNL     1       6.268   3.328  19.415  0.00  0.00    +0.000 HD
ENDBRANCH  14  24
ENDBRANCH   1  14
TORSDOF 5
ENDMDL
MODEL 6
REMARK VINA RESULT:      -7.7      4.354      7.516
REMARK  Name = 
REMARK  7 active torsions:
REMARK  status: ('A' for Active; 'I' for Inactive)
REMARK    1  A    between atoms: C_1  and  O_2
REMARK    2  A    between atoms: O_2  and  C_3
REMARK    3  A    between atoms: C_6  and  C_7
REMARK    4  A    between atoms: C_7  and  C_8
REMARK    5  A    between atoms: C_7  and  O_9
REMARK    6  A    between atoms: C_7  and  C_10
REMARK    7  A    between atoms: C_12  and  C_13
REMARK                            x       y       z     vdW  Elec       q    Type
REMARK                         _______ _______ _______ _____ _____    ______ ____
ROOT
ATOM      1  C   UNL     1       4.283   4.552  18.025  0.00  0.00    +0.000 A 
ATOM      2  N   UNL     1       4.454   4.504  16.713  0.00  0.00    +0.000 NA
ATOM      3  C   UNL     1       5.803   4.565  16.395  0.00  0.00    +0.000 A 
ATOM      4  C   UNL     1       6.643   4.736  17.474  0.00  0.00    +0.000 A 
ATOM      5  S   UNL     1       5.742   4.763  18.927  0.00  0.00    +0.000 S 
ENDROOT
BRANCH   3   6
ATOM      6  C   UNL     1       6.265   4.483  15.015  0.00  0.00    +0.000 A 
ATOM      7  C   UNL     1       7.395   5.197  14.583  0.00  0.00    +0.000 A 
ATOM      8  C   UNL     1       7.808   5.133  13.249  0.00  0.00    +0.000 A 
ATOM      9  C   UNL     1       7.096   4.352  12.346  0.00  0.00    +0.000 A 
ATOM     10  F   UNL     1       7.500   4.318  11.068  0.00  0.00    +0.000 F 
ATOM     11  C   UNL     1       5.985   3.623  12.763  0.00  0.00    +0.000 A 
ATOM     12 CL   UNL     1       5.105   2.655  11.645  0.00  0.00    +0.000 Cl
ATOM     13  C   UNL     1       5.574   3.679  14.097  0.00  0.00    +0.000 A 
ENDBRANCH   3   6
BRANCH   1  14
ATOM     14  C   UNL     1       2.920   4.435  18.714  0.00  0.00    +0.000 C 
ATOM     15  C   UNL     1       3.003   3.394  19.842  0.00  0.00    +0.000 C 
BRANCH  14  19
ATOM     16  C   UNL     1       1.564   8.386  19.986  0.00  0.00    +0.000 A 
ATOM     17  C   UNL     1       1.451   7.295  20.846  0.00  0.00    +0.000 A 
ATOM     18  C   UNL     1       1.885   6.026  20.451  0.00  0.00    +0.000 A 
ATOM     19  C   UNL     1       2.417   5.811  19.169  0.00  0.00    +0.000 A 
ATOM     20  C   UNL     1       2.525   6.926  18.315  0.00  0.00    +0.000 A 
ATOM     21  C   UNL     1       2.095   8.198  18.714  0.00  0.00    +0.000 A 
BRANCH  16  23
ATOM     22  C   UNL     1       0.440   9.491  21.746  0.00  0.00    +0.000 C 
ATOM     23  O   UNL     1       1.099   9.570  20.487  0.00  0.00    +0.000 OA
ENDBRANCH  16  23
ENDBRANCH  14  19
BRANCH  14  24
ATOM     24  O   UNL     1       1.957   3.888  17.788  0.00  0.00    +0.000 OA
ATOM     25  H   UNL     1       2.056   2.921  17.829  0.00  0.00    +0.000 HD
ENDBRANCH  14  24
ENDBRANCH   1  14
TORSDOF 5
ENDMDL
MODEL 7
REMARK VINA RESULT:      -7.6      2.416      3.193
REMARK  Name = 
REMARK  7 active torsions:
REMARK  status: ('A' for Active; 'I' for Inactive)
REMARK    1  A    between atoms: C_1  and  O_2
REMARK    2  A    between atoms: O_2  and  C_3
REMARK    3  A    between atoms: C_6  and  C_7
REMARK    4  A    between atoms: C_7  and  C_8
REMARK    5  A    between atoms: C_7  and  O_9
REMARK    6  A    between atoms: C_7  and  C_10
REMARK    7  A    between atoms: C_12  and  C_13
REMARK                            x       y       z     vdW  Elec       q    Type
REMARK                         _______ _______ _______ _____ _____    ______ ____
ROOT
ATOM      1  C   UNL     1       2.319   6.687  19.456  0.00  0.00    +0.000 A 
ATOM      2  N   UNL     1       1.674   7.279  20.450  0.00  0.00    +0.000 NA
ATOM      3  C   UNL     1       1.317   8.572  20.096  0.00  0.00    +0.000 A 
ATOM      4  C   UNL     1       1.764   8.975  18.856  0.00  0.00    +0.000 A 
ATOM      5  S   UNL     1       2.598   7.699  18.084  0.00  0.00    +0.000 S 
ENDROOT
BRANCH   3   6
ATOM      6  C   UNL     1       0.554   9.426  20.999  0.00  0.00    +0.000 A 
ATOM      7  C   UNL     1       0.336   9.057  22.337  0.00  0.00    +0.000 A 
ATOM      8  C   UNL     1      -0.424   9.871  23.182  0.00  0.00    +0.000 A 
ATOM      9  C   UNL     1      -0.962  11.056  22.694  0.00  0.00    +0.000 A 
ATOM     10  F   UNL     1      -1.700  11.813  23.518  0.00  0.00    +0.000 F 
ATOM     11  C   UNL     1      -0.737  11.445  21.375  0.00  0.00    +0.000 A 
ATOM     12 CL   UNL     1      -1.403  12.913  20.772  0.00  0.00    +0.000 Cl
ATOM     13  C   UNL     1       0.027  10.638  20.530  0.00  0.00    +0.000 A 
ENDBRANCH   3   6
BRANCH   1  14
ATOM     14  C   UNL     1       2.791   5.230  19.493  0.00  0.00    +0.000 C 
ATOM     15  C   UNL     1       1.623   4.302  19.122  0.00  0.00    +0.000 C 
BRANCH  14  19
ATOM     16  C   UNL     1       6.372   4.765  17.037  0.00  0.00    +0.000 A 
ATOM     17  C   UNL     1       5.125   4.390  16.539  0.00  0.00    +0.000 A 
ATOM     18  C   UNL     1       3.972   4.537  17.315  0.00  0.00    +0.000 A 
ATOM     19  C   UNL     1       4.042   5.038  18.624  0.00  0.00    +0.000 A 
ATOM     20  C   UNL     1       5.310   5.414  19.111  0.00  0.00    +0.000 A 
ATOM     21  C   UNL     1       6.464   5.271  18.330  0.00  0.00    +0.000 A 
BRANCH  16  23
ATOM     22  C   UNL     1       7.144   4.774  14.805  0.00  0.00    +0.000 C 
ATOM     23  O   UNL     1       7.422   4.566  16.185  0.00  0.00    +0.000 OA
ENDBRANCH  16  23
ENDBRANCH  14  19
BRANCH  14  24
ATOM     24  O   UNL     1       3.125   4.865  20.849  0.00  0.00    +0.000 OA
ATOM     25  H   UNL     1       2.470   4.202  21.124  0.00  0.00    +0.000 HD
ENDBRANCH  14  24
ENDBRANCH   1  14
TORSDOF 5
ENDMDL
MODEL 8
REMARK VINA RESULT:      -7.6      4.364      7.432
REMARK  Name = 
REMARK  7 active torsions:
REMARK  status: ('A' for Active; 'I' for Inactive)
REMARK    1  A    between atoms: C_1  and  O_2
REMARK    2  A    between atoms: O_2  and  C_3
REMARK    3  A    between atoms: C_6  and  C_7
REMARK    4  A    between atoms: C_7  and  C_8
REMARK    5  A    between atoms: C_7  and  O_9
REMARK    6  A    between atoms: C_7  and  C_10
REMARK    7  A    between atoms: C_12  and  C_13
REMARK                            x       y       z     vdW  Elec       q    Type
REMARK                         _______ _______ _______ _____ _____    ______ ____
ROOT
ATOM      1  C   UNL     1       4.321   4.655  18.003  0.00  0.00    +0.000 A 
ATOM      2  N   UNL     1       4.486   4.597  16.691  0.00  0.00    +0.000 NA
ATOM      3  C   UNL     1       5.835   4.624  16.369  0.00  0.00    +0.000 A 
ATOM      4  C   UNL     1       6.683   4.778  17.445  0.00  0.00    +0.000 A 
ATOM      5  S   UNL     1       5.787   4.833  18.900  0.00  0.00    +0.000 S 
ENDROOT
BRANCH   3   6
ATOM      6  C   UNL     1       6.291   4.525  14.987  0.00  0.00    +0.000 A 
ATOM      7  C   UNL     1       7.396   5.262  14.532  0.00  0.00    +0.000 A 
ATOM      8  C   UNL     1       7.803   5.180  13.197  0.00  0.00    +0.000 A 
ATOM      9  C   UNL     1       7.108   4.359  12.316  0.00  0.00    +0.000 A 
ATOM     10  F   UNL     1       7.506   4.308  11.037  0.00  0.00    +0.000 F 
ATOM     11  C   UNL     1       6.022   3.607  12.757  0.00  0.00    +0.000 A 
ATOM     12 CL   UNL     1       5.163   2.590  11.666  0.00  0.00    +0.000 Cl
ATOM     13  C   UNL     1       5.617   3.681  14.092  0.00  0.00    +0.000 A 
ENDBRANCH   3   6
BRANCH   1  14
ATOM     14  C   UNL     1       2.957   4.575  18.697  0.00  0.00    +0.000 C 
ATOM     15  C   UNL     1       3.027   3.562  19.851  0.00  0.00    +0.000 C 
BRANCH  14  19
ATOM     16  C   UNL     1       1.509   8.509  19.920  0.00  0.00    +0.000 A 
ATOM     17  C   UNL     1       2.046   8.323  18.648  0.00  0.00    +0.000 A 
ATOM     18  C   UNL     1       2.509   7.068  18.244  0.00  0.00    +0.000 A 
ATOM     19  C   UNL     1       2.475   5.970  19.118  0.00  0.00    +0.000 A 
ATOM     20  C   UNL     1       1.927   6.176  20.400  0.00  0.00    +0.000 A 
ATOM     21  C   UNL     1       1.458   7.432  20.801  0.00  0.00    +0.000 A 
BRANCH  16  23
ATOM     22  C   UNL     1       0.573  10.514  19.095  0.00  0.00    +0.000 C 
ATOM     23  O   UNL     1       1.097   9.783  20.197  0.00  0.00    +0.000 OA
ENDBRANCH  16  23
ENDBRANCH  14  19
BRANCH  14  24
ATOM     24  O   UNL     1       1.985   4.019  17.786  0.00  0.00    +0.000 OA
ATOM     25  H   UNL     1       2.358   3.181  17.464  0.00  0.00    +0.000 HD
ENDBRANCH  14  24
ENDBRANCH   1  14
TORSDOF 5
ENDMDL
MODEL 9
REMARK VINA RESULT:      -7.6      1.979      2.848
REMARK  Name = 
REMARK  7 active torsions:
REMARK  status: ('A' for Active; 'I' for Inactive)
REMARK    1  A    between atoms: C_1  and  O_2
REMARK    2  A    between atoms: O_2  and  C_3
REMARK    3  A    between atoms: C_6  and  C_7
REMARK    4  A    between atoms: C_7  and  C_8
REMARK    5  A    between atoms: C_7  and  O_9
REMARK    6  A    between atoms: C_7  and  C_10
REMARK    7  A    between atoms: C_12  and  C_13
REMARK                            x       y       z     vdW  Elec       q    Type
REMARK                         _______ _______ _______ _____ _____    ______ ____
ROOT
ATOM      1  C   UNL     1       5.289   5.645  17.747  0.00  0.00    +0.000 A 
ATOM      2  N   UNL     1       4.532   6.731  17.768  0.00  0.00    +0.000 NA
ATOM      3  C   UNL     1       3.430   6.541  18.589  0.00  0.00    +0.000 A 
ATOM      4  C   UNL     1       3.323   5.276  19.127  0.00  0.00    +0.000 A 
ATOM      5  S   UNL     1       4.654   4.316  18.649  0.00  0.00    +0.000 S 
ENDROOT
BRANCH   3   6
ATOM      6  C   UNL     1       2.461   7.605  18.822  0.00  0.00    +0.000 A 
ATOM      7  C   UNL     1       2.066   8.468  17.787  0.00  0.00    +0.000 A 
ATOM      8  C   UNL     1       1.159   9.503  18.033  0.00  0.00    +0.000 A 
ATOM      9  C   UNL     1       0.641   9.674  19.312  0.00  0.00    +0.000 A 
ATOM     10  F   UNL     1      -0.214  10.682  19.529  0.00  0.00    +0.000 F 
ATOM     11  C   UNL     1       1.008   8.813  20.344  0.00  0.00    +0.000 A 
ATOM     12 CL   UNL     1       0.367   9.025  21.927  0.00  0.00    +0.000 Cl
ATOM     13  C   UNL     1       1.909   7.774  20.100  0.00  0.00    +0.000 A 
ENDBRANCH   3   6
BRANCH   1  14
ATOM     14  C   UNL     1       6.619   5.545  16.993  0.00  0.00    +0.000 C 
ATOM     15  C   UNL     1       7.650   4.813  17.868  0.00  0.00    +0.000 C 
BRANCH  14  19
ATOM     16  C   UNL     1       6.061   3.840  13.012  0.00  0.00    +0.000 A 
ATOM     17  C   UNL     1       5.095   3.651  13.998  0.00  0.00    +0.000 A 
ATOM     18  C   UNL     1       5.261   4.195  15.275  0.00  0.00    +0.000 A 
ATOM     19  C   UNL     1       6.417   4.919  15.607  0.00  0.00    +0.000 A 
ATOM     20  C   UNL     1       7.383   5.101  14.597  0.00  0.00    +0.000 A 
ATOM     21  C   UNL     1       7.213   4.560  13.317  0.00  0.00    +0.000 A 
BRANCH  16  23
ATOM     22  C   UNL     1       4.408   3.169  11.465  0.00  0.00    +0.000 C 
ATOM     23  O   UNL     1       5.786   3.253  11.808  0.00  0.00    +0.000 OA
ENDBRANCH  16  23
ENDBRANCH  14  19
BRANCH  14  24
ATOM     24  O   UNL     1       7.172   6.867  16.814  0.00  0.00    +0.000 OA
ATOM     25  H   UNL     1       6.548   7.351  16.247  0.00  0.00    +0.000 HD
ENDBRANCH  14  24
ENDBRANCH   1  14
TORSDOF 5
ENDMDL
