MODEL 1
REMARK VINA RESULT:      -8.0      0.000      0.000
REMARK  Name = 
REMARK  4 active torsions:
REMARK  status: ('A' for Active; 'I' for Inactive)
REMARK    1  A    between atoms: C_1  and  C_2
REMARK    2  A    between atoms: C_7  and  C_8
REMARK    3  A    between atoms: C_10  and  C_11
REMARK    4  A    between atoms: N_16  and  C_17
REMARK                            x       y       z     vdW  Elec       q    Type
REMARK                         _______ _______ _______ _____ _____    ______ ____
ROOT
ATOM      1  C   UNL     1      -2.697  10.783  15.774  0.00  0.00    +0.000 C 
ATOM      2  C   UNL     1      -2.133  10.761  17.141  0.00  0.00    +0.000 A 
ATOM      3  C   UNL     1      -1.195   9.925  17.715  0.00  0.00    +0.000 A 
ATOM      4  N   UNL     1      -1.047  10.368  19.007  0.00  0.00    +0.000 N 
ATOM      5  C   UNL     1      -1.895  11.450  19.158  0.00  0.00    +0.000 A 
ATOM      6  N   UNL     1      -2.556  11.698  18.050  0.00  0.00    +0.000 NA
ATOM      7  C   UNL     1      -1.936  12.100  20.409  0.00  0.00    +0.000 A 
ATOM      8  C   UNL     1      -1.168  11.690  21.449  0.00  0.00    +0.000 A 
ATOM      9  C   UNL     1      -1.166  12.339  22.816  0.00  0.00    +0.000 C 
ATOM     10  C   UNL     1      -0.270  10.537  21.250  0.00  0.00    +0.000 A 
ATOM     11  C   UNL     1       0.570  10.029  22.219  0.00  0.00    +0.000 A 
ATOM     12  N   UNL     1       1.395   8.985  22.024  0.00  0.00    +0.000 NA
ATOM     13  C   UNL     1       1.371   8.402  20.816  0.00  0.00    +0.000 A 
ATOM     14  N   UNL     1       2.255   7.336  20.661  0.00  0.00    +0.000 N 
ATOM     15  N   UNL     1       0.588   8.806  19.800  0.00  0.00    +0.000 NA
ATOM     16  C   UNL     1      -0.208   9.870  20.036  0.00  0.00    +0.000 A 
ATOM     17  H   UNL     1       2.663   7.159  21.574  0.00  0.00    +0.000 HD
ENDROOT
BRANCH  14  18
ATOM     18  C   UNL     1       2.026   6.155  19.940  0.00  0.00    +0.000 A 
ATOM     19  C   UNL     1       1.373   5.098  20.583  0.00  0.00    +0.000 A 
ATOM     20  C   UNL     1       1.113   3.905  19.906  0.00  0.00    +0.000 A 
ATOM     21  C   UNL     1       1.479   3.771  18.568  0.00  0.00    +0.000 A 
ATOM     22  C   UNL     1       2.090   4.830  17.904  0.00  0.00    +0.000 A 
ATOM     23  C   UNL     1       2.357   6.018  18.586  0.00  0.00    +0.000 A 
ENDBRANCH  14  18
BRANCH   7  24
ATOM     24  C   UNL     1      -2.853  13.287  20.655  0.00  0.00    +0.000 C 
ATOM     25  N   UNL     1      -3.614  14.271  20.860  0.00  0.00    +0.000 NA
ENDBRANCH   7  24
TORSDOF 2
ENDMDL
MODEL 2
REMARK VINA RESULT:      -7.6      0.190      1.002
REMARK  Name = 
REMARK  4 active torsions:
REMARK  status: ('A' for Active; 'I' for Inactive)
REMARK    1  A    between atoms: C_1  and  C_2
REMARK    2  A    between atoms: C_7  and  C_8
REMARK    3  A    between atoms: C_10  and  C_11
REMARK    4  A    between atoms: N_16  and  C_17
REMARK                            x       y       z     vdW  Elec       q    Type
REMARK                         _______ _______ _______ _____ _____    ______ ____
ROOT
ATOM      1  C   UNL     1      -2.957  10.592  15.842  0.00  0.00    +0.000 C 
ATOM      2  C   UNL     1      -2.287  10.633  17.160  0.00  0.00    +0.000 A 
ATOM      3  C   UNL     1      -1.323   9.809  17.705  0.00  0.00    +0.000 A 
ATOM      4  N   UNL     1      -1.065  10.318  18.955  0.00  0.00    +0.000 N 
ATOM      5  C   UNL     1      -1.880  11.425  19.110  0.00  0.00    +0.000 A 
ATOM      6  N   UNL     1      -2.621  11.627  18.045  0.00  0.00    +0.000 NA
ATOM      7  C   UNL     1      -1.810  12.144  20.322  0.00  0.00    +0.000 A 
ATOM      8  C   UNL     1      -0.970  11.774  21.321  0.00  0.00    +0.000 A 
ATOM      9  C   UNL     1      -0.849  12.496  22.646  0.00  0.00    +0.000 C 
ATOM     10  C   UNL     1      -0.111  10.592  21.118  0.00  0.00    +0.000 A 
ATOM     11  C   UNL     1       0.793  10.119  22.046  0.00  0.00    +0.000 A 
ATOM     12  N   UNL     1       1.581   9.047  21.846  0.00  0.00    +0.000 NA
ATOM     13  C   UNL     1       1.452   8.400  20.679  0.00  0.00    +0.000 A 
ATOM     14  N   UNL     1       2.302   7.308  20.515  0.00  0.00    +0.000 N 
ATOM     15  N   UNL     1       0.599   8.765  19.705  0.00  0.00    +0.000 NA
ATOM     16  C   UNL     1      -0.157   9.859  19.942  0.00  0.00    +0.000 A 
ATOM     17  H   UNL     1       2.777   7.171  21.402  0.00  0.00    +0.000 HD
ENDROOT
BRANCH  14  18
ATOM     18  C   UNL     1       1.995   6.095  19.882  0.00  0.00    +0.000 A 
ATOM     19  C   UNL     1       2.397   5.916  18.553  0.00  0.00    +0.000 A 
ATOM     20  C   UNL     1       2.124   4.723  17.882  0.00  0.00    +0.000 A 
ATOM     21  C   UNL     1       1.471   3.686  18.544  0.00  0.00    +0.000 A 
ATOM     22  C   UNL     1       1.105   3.835  19.878  0.00  0.00    +0.000 A 
ATOM     23  C   UNL     1       1.370   5.031  20.545  0.00  0.00    +0.000 A 
ENDBRANCH  14  18
BRANCH   7  24
ATOM     24  C   UNL     1      -2.683  13.362  20.572  0.00  0.00    +0.000 C 
ATOM     25  N   UNL     1      -3.408  14.373  20.779  0.00  0.00    +0.000 NA
ENDBRANCH   7  24
TORSDOF 2
ENDMDL
MODEL 3
REMARK VINA RESULT:      -6.8      2.139      3.459
REMARK  Name = 
REMARK  4 active torsions:
REMARK  status: ('A' for Active; 'I' for Inactive)
REMARK    1  A    between atoms: C_1  and  C_2
REMARK    2  A    between atoms: C_7  and  C_8
REMARK    3  A    between atoms: C_10  and  C_11
REMARK    4  A    between atoms: N_16  and  C_17
REMARK                            x       y       z     vdW  Elec       q    Type
REMARK                         _______ _______ _______ _____ _____    ______ ____
ROOT
ATOM      1  C   UNL     1      -3.667   9.976  13.822  0.00  0.00    +0.000 C 
ATOM      2  C   UNL     1      -3.518  10.444  15.217  0.00  0.00    +0.000 A 
ATOM      3  C   UNL     1      -2.468  10.311  16.104  0.00  0.00    +0.000 A 
ATOM      4  N   UNL     1      -2.874  10.942  17.255  0.00  0.00    +0.000 N 
ATOM      5  C   UNL     1      -4.146  11.430  17.015  0.00  0.00    +0.000 A 
ATOM      6  N   UNL     1      -4.549  11.138  15.799  0.00  0.00    +0.000 NA
ATOM      7  C   UNL     1      -4.801  12.131  18.049  0.00  0.00    +0.000 A 
ATOM      8  C   UNL     1      -4.213  12.333  19.255  0.00  0.00    +0.000 A 
ATOM      9  C   UNL     1      -4.860  13.071  20.406  0.00  0.00    +0.000 C 
ATOM     10  C   UNL     1      -2.854  11.805  19.473  0.00  0.00    +0.000 A 
ATOM     11  C   UNL     1      -2.141  11.951  20.644  0.00  0.00    +0.000 A 
ATOM     12  N   UNL     1      -0.896  11.476  20.829  0.00  0.00    +0.000 NA
ATOM     13  C   UNL     1      -0.338  10.805  19.812  0.00  0.00    +0.000 A 
ATOM     14  N   UNL     1       0.957  10.348  20.048  0.00  0.00    +0.000 N 
ATOM     15  N   UNL     1      -0.941  10.593  18.628  0.00  0.00    +0.000 NA
ATOM     16  C   UNL     1      -2.182  11.105  18.482  0.00  0.00    +0.000 A 
ATOM     17  H   UNL     1       1.161  10.540  21.024  0.00  0.00    +0.000 HD
ENDROOT
BRANCH  14  18
ATOM     18  C   UNL     1       1.510   9.134  19.616  0.00  0.00    +0.000 A 
ATOM     19  C   UNL     1       2.034   9.064  18.320  0.00  0.00    +0.000 A 
ATOM     20  C   UNL     1       2.603   7.881  17.847  0.00  0.00    +0.000 A 
ATOM     21  C   UNL     1       2.680   6.765  18.676  0.00  0.00    +0.000 A 
ATOM     22  C   UNL     1       2.203   6.834  19.982  0.00  0.00    +0.000 A 
ATOM     23  C   UNL     1       1.625   8.015  20.450  0.00  0.00    +0.000 A 
ENDBRANCH  14  18
BRANCH   7  24
ATOM     24  C   UNL     1      -6.204  12.684  17.865  0.00  0.00    +0.000 C 
ATOM     25  N   UNL     1      -7.369  13.143  17.712  0.00  0.00    +0.000 NA
ENDBRANCH   7  24
TORSDOF 2
ENDMDL
MODEL 4
REMARK VINA RESULT:      -6.8      2.077      3.269
REMARK  Name = 
REMARK  4 active torsions:
REMARK  status: ('A' for Active; 'I' for Inactive)
REMARK    1  A    between atoms: C_1  and  C_2
REMARK    2  A    between atoms: C_7  and  C_8
REMARK    3  A    between atoms: C_10  and  C_11
REMARK    4  A    between atoms: N_16  and  C_17
REMARK                            x       y       z     vdW  Elec       q    Type
REMARK                         _______ _______ _______ _____ _____    ______ ____
ROOT
ATOM      1  C   UNL     1      -3.465   9.654  13.607  0.00  0.00    +0.000 C 
ATOM      2  C   UNL     1      -3.331  10.149  14.995  0.00  0.00    +0.000 A 
ATOM      3  C   UNL     1      -2.291  10.031  15.896  0.00  0.00    +0.000 A 
ATOM      4  N   UNL     1      -2.710  10.686  17.030  0.00  0.00    +0.000 N 
ATOM      5  C   UNL     1      -3.977  11.172  16.765  0.00  0.00    +0.000 A 
ATOM      6  N   UNL     1      -4.367  10.857  15.550  0.00  0.00    +0.000 NA
ATOM      7  C   UNL     1      -4.642  11.896  17.777  0.00  0.00    +0.000 A 
ATOM      8  C   UNL     1      -4.067  12.120  18.986  0.00  0.00    +0.000 A 
ATOM      9  C   UNL     1      -4.726  12.882  20.115  0.00  0.00    +0.000 C 
ATOM     10  C   UNL     1      -2.712  11.592  19.230  0.00  0.00    +0.000 A 
ATOM     11  C   UNL     1      -2.013  11.760  20.406  0.00  0.00    +0.000 A 
ATOM     12  N   UNL     1      -0.772  11.286  20.616  0.00  0.00    +0.000 NA
ATOM     13  C   UNL     1      -0.204  10.593  19.618  0.00  0.00    +0.000 A 
ATOM     14  N   UNL     1       1.087  10.138  19.879  0.00  0.00    +0.000 N 
ATOM     15  N   UNL     1      -0.794  10.359  18.432  0.00  0.00    +0.000 NA
ATOM     16  C   UNL     1      -2.031  10.872  18.261  0.00  0.00    +0.000 A 
ATOM     17  H   UNL     1       1.280  10.348  20.853  0.00  0.00    +0.000 HD
ENDROOT
BRANCH  14  18
ATOM     18  C   UNL     1       1.641   8.914  19.477  0.00  0.00    +0.000 A 
ATOM     19  C   UNL     1       1.631   7.848  20.383  0.00  0.00    +0.000 A 
ATOM     20  C   UNL     1       2.162   6.607  20.028  0.00  0.00    +0.000 A 
ATOM     21  C   UNL     1       2.683   6.413  18.750  0.00  0.00    +0.000 A 
ATOM     22  C   UNL     1       2.660   7.452  17.825  0.00  0.00    +0.000 A 
ATOM     23  C   UNL     1       2.137   8.695  18.186  0.00  0.00    +0.000 A 
ENDBRANCH  14  18
BRANCH   7  24
ATOM     24  C   UNL     1      -6.042  12.449  17.566  0.00  0.00    +0.000 C 
ATOM     25  N   UNL     1      -7.203  12.908  17.390  0.00  0.00    +0.000 NA
ENDBRANCH   7  24
TORSDOF 2
ENDMDL
MODEL 5
REMARK VINA RESULT:      -6.7      2.983      7.777
REMARK  Name = 
REMARK  4 active torsions:
REMARK  status: ('A' for Active; 'I' for Inactive)
REMARK    1  A    between atoms: C_1  and  C_2
REMARK    2  A    between atoms: C_7  and  C_8
REMARK    3  A    between atoms: C_10  and  C_11
REMARK    4  A    between atoms: N_16  and  C_17
REMARK                            x       y       z     vdW  Elec       q    Type
REMARK                         _______ _______ _______ _____ _____    ______ ____
ROOT
ATOM      1  C   UNL     1       5.689   6.098  15.465  0.00  0.00    +0.000 C 
ATOM      2  C   UNL     1       4.841   6.053  16.676  0.00  0.00    +0.000 A 
ATOM      3  C   UNL     1       4.003   7.005  17.223  0.00  0.00    +0.000 A 
ATOM      4  N   UNL     1       3.464   6.421  18.345  0.00  0.00    +0.000 N 
ATOM      5  C   UNL     1       3.995   5.146  18.425  0.00  0.00    +0.000 A 
ATOM      6  N   UNL     1       4.825   4.910  17.434  0.00  0.00    +0.000 NA
ATOM      7  C   UNL     1       3.599   4.323  19.499  0.00  0.00    +0.000 A 
ATOM      8  C   UNL     1       2.719   4.752  20.439  0.00  0.00    +0.000 A 
ATOM      9  C   UNL     1       2.257   3.922  21.617  0.00  0.00    +0.000 C 
ATOM     10  C   UNL     1       2.168   6.114  20.317  0.00  0.00    +0.000 A 
ATOM     11  C   UNL     1       1.259   6.667  21.194  0.00  0.00    +0.000 A 
ATOM     12  N   UNL     1       0.753   7.907  21.068  0.00  0.00    +0.000 NA
ATOM     13  C   UNL     1       1.184   8.643  20.034  0.00  0.00    +0.000 A 
ATOM     14  N   UNL     1       0.617   9.912  19.939  0.00  0.00    +0.000 N 
ATOM     15  N   UNL     1       2.074   8.212  19.121  0.00  0.00    +0.000 NA
ATOM     16  C   UNL     1       2.539   6.954  19.278  0.00  0.00    +0.000 A 
ATOM     17  H   UNL     1       0.057  10.046  20.775  0.00  0.00    +0.000 HD
ENDROOT
BRANCH  14  18
ATOM     18  C   UNL     1       1.262  11.090  19.534  0.00  0.00    +0.000 A 
ATOM     19  C   UNL     1       1.366  12.142  20.451  0.00  0.00    +0.000 A 
ATOM     20  C   UNL     1       2.007  13.331  20.099  0.00  0.00    +0.000 A 
ATOM     21  C   UNL     1       2.576  13.467  18.835  0.00  0.00    +0.000 A 
ATOM     22  C   UNL     1       2.518  12.413  17.929  0.00  0.00    +0.000 A 
ATOM     23  C   UNL     1       1.868  11.228  18.279  0.00  0.00    +0.000 A 
ENDBRANCH  14  18
BRANCH   7  24
ATOM     24  C   UNL     1       4.150   2.915  19.663  0.00  0.00    +0.000 C 
ATOM     25  N   UNL     1       4.607   1.748  19.798  0.00  0.00    +0.000 NA
ENDBRANCH   7  24
TORSDOF 2
ENDMDL
MODEL 6
REMARK VINA RESULT:      -6.1      2.582      2.942
REMARK  Name = 
REMARK  4 active torsions:
REMARK  status: ('A' for Active; 'I' for Inactive)
REMARK    1  A    between atoms: C_1  and  C_2
REMARK    2  A    between atoms: C_7  and  C_8
REMARK    3  A    between atoms: C_10  and  C_11
REMARK    4  A    between atoms: N_16  and  C_17
REMARK                            x       y       z     vdW  Elec       q    Type
REMARK                         _______ _______ _______ _____ _____    ______ ____
ROOT
ATOM      1  C   UNL     1       2.471  14.698  18.158  0.00  0.00    +0.000 C 
ATOM      2  C   UNL     1       1.694  13.946  19.168  0.00  0.00    +0.000 A 
ATOM      3  C   UNL     1       1.765  12.623  19.555  0.00  0.00    +0.000 A 
ATOM      4  N   UNL     1       0.813  12.473  20.535  0.00  0.00    +0.000 N 
ATOM      5  C   UNL     1       0.211  13.707  20.698  0.00  0.00    +0.000 A 
ATOM      6  N   UNL     1       0.725  14.602  19.885  0.00  0.00    +0.000 NA
ATOM      7  C   UNL     1      -0.815  13.830  21.658  0.00  0.00    +0.000 A 
ATOM      8  C   UNL     1      -1.214  12.775  22.412  0.00  0.00    +0.000 A 
ATOM      9  C   UNL     1      -2.310  12.837  23.454  0.00  0.00    +0.000 C 
ATOM     10  C   UNL     1      -0.545  11.476  22.215  0.00  0.00    +0.000 A 
ATOM     11  C   UNL     1      -0.845  10.331  22.923  0.00  0.00    +0.000 A 
ATOM     12  N   UNL     1      -0.221   9.153  22.745  0.00  0.00    +0.000 NA
ATOM     13  C   UNL     1       0.734   9.101  21.805  0.00  0.00    +0.000 A 
ATOM     14  N   UNL     1       1.361   7.864  21.671  0.00  0.00    +0.000 N 
ATOM     15  N   UNL     1       1.104  10.150  21.048  0.00  0.00    +0.000 NA
ATOM     16  C   UNL     1       0.463  11.317  21.277  0.00  0.00    +0.000 A 
ATOM     17  H   UNL     1       0.858   7.215  22.269  0.00  0.00    +0.000 HD
ENDROOT
BRANCH  14  18
ATOM     18  C   UNL     1       1.791   7.267  20.478  0.00  0.00    +0.000 A 
ATOM     19  C   UNL     1       1.892   5.872  20.429  0.00  0.00    +0.000 A 
ATOM     20  C   UNL     1       2.306   5.230  19.261  0.00  0.00    +0.000 A 
ATOM     21  C   UNL     1       2.595   5.976  18.121  0.00  0.00    +0.000 A 
ATOM     22  C   UNL     1       2.457   7.361  18.143  0.00  0.00    +0.000 A 
ATOM     23  C   UNL     1       2.051   8.001  19.314  0.00  0.00    +0.000 A 
ENDBRANCH  14  18
BRANCH   7  24
ATOM     24  C   UNL     1      -1.533  15.150  21.885  0.00  0.00    +0.000 C 
ATOM     25  N   UNL     1      -2.128  16.246  22.073  0.00  0.00    +0.000 NA
ENDBRANCH   7  24
TORSDOF 2
ENDMDL
MODEL 7
REMARK VINA RESULT:      -5.9      3.024      8.006
REMARK  Name = 
REMARK  4 active torsions:
REMARK  status: ('A' for Active; 'I' for Inactive)
REMARK    1  A    between atoms: C_1  and  C_2
REMARK    2  A    between atoms: C_7  and  C_8
REMARK    3  A    between atoms: C_10  and  C_11
REMARK    4  A    between atoms: N_16  and  C_17
REMARK                            x       y       z     vdW  Elec       q    Type
REMARK                         _______ _______ _______ _____ _____    ______ ____
ROOT
ATOM      1  C   UNL     1      -3.573  10.092  14.842  0.00  0.00    +0.000 C 
ATOM      2  C   UNL     1      -3.068  10.508  16.168  0.00  0.00    +0.000 A 
ATOM      3  C   UNL     1      -3.653  11.280  17.152  0.00  0.00    +0.000 A 
ATOM      4  N   UNL     1      -2.734  11.336  18.173  0.00  0.00    +0.000 N 
ATOM      5  C   UNL     1      -1.639  10.597  17.765  0.00  0.00    +0.000 A 
ATOM      6  N   UNL     1      -1.820  10.095  16.564  0.00  0.00    +0.000 NA
ATOM      7  C   UNL     1      -0.539  10.491  18.641  0.00  0.00    +0.000 A 
ATOM      8  C   UNL     1      -0.537  11.091  19.858  0.00  0.00    +0.000 A 
ATOM      9  C   UNL     1       0.610  11.021  20.842  0.00  0.00    +0.000 C 
ATOM     10  C   UNL     1      -1.725  11.865  20.262  0.00  0.00    +0.000 A 
ATOM     11  C   UNL     1      -1.857  12.512  21.473  0.00  0.00    +0.000 A 
ATOM     12  N   UNL     1      -2.950  13.206  21.838  0.00  0.00    +0.000 NA
ATOM     13  C   UNL     1      -3.953  13.281  20.951  0.00  0.00    +0.000 A 
ATOM     14  N   UNL     1      -5.068  13.996  21.384  0.00  0.00    +0.000 N 
ATOM     15  N   UNL     1      -3.932  12.699  19.739  0.00  0.00    +0.000 NA
ATOM     16  C   UNL     1      -2.823  11.996  19.425  0.00  0.00    +0.000 A 
ATOM     17  H   UNL     1      -4.819  14.414  22.275  0.00  0.00    +0.000 HD
ENDROOT
BRANCH  14  18
ATOM     18  C   UNL     1      -5.877  14.838  20.607  0.00  0.00    +0.000 A 
ATOM     19  C   UNL     1      -5.355  16.068  20.193  0.00  0.00    +0.000 A 
ATOM     20  C   UNL     1      -6.118  16.937  19.410  0.00  0.00    +0.000 A 
ATOM     21  C   UNL     1      -7.400  16.569  19.010  0.00  0.00    +0.000 A 
ATOM     22  C   UNL     1      -7.915  15.329  19.379  0.00  0.00    +0.000 A 
ATOM     23  C   UNL     1      -7.154  14.467  20.169  0.00  0.00    +0.000 A 
ENDBRANCH  14  18
BRANCH   7  24
ATOM     24  C   UNL     1       0.706   9.708  18.257  0.00  0.00    +0.000 C 
ATOM     25  N   UNL     1       1.739   9.058  17.939  0.00  0.00    +0.000 NA
ENDBRANCH   7  24
TORSDOF 2
ENDMDL
MODEL 8
REMARK VINA RESULT:      -5.9      2.726      4.054
REMARK  Name = 
REMARK  4 active torsions:
REMARK  status: ('A' for Active; 'I' for Inactive)
REMARK    1  A    between atoms: C_1  and  C_2
REMARK    2  A    between atoms: C_7  and  C_8
REMARK    3  A    between atoms: C_10  and  C_11
REMARK    4  A    between atoms: N_16  and  C_17
REMARK                            x       y       z     vdW  Elec       q    Type
REMARK                         _______ _______ _______ _____ _____    ______ ____
ROOT
ATOM      1  C   UNL     1      -6.008  11.942  17.474  0.00  0.00    +0.000 C 
ATOM      2  C   UNL     1      -5.253  12.116  18.734  0.00  0.00    +0.000 A 
ATOM      3  C   UNL     1      -3.911  11.944  19.011  0.00  0.00    +0.000 A 
ATOM      4  N   UNL     1      -3.767  12.249  20.343  0.00  0.00    +0.000 N 
ATOM      5  C   UNL     1      -5.022  12.594  20.812  0.00  0.00    +0.000 A 
ATOM      6  N   UNL     1      -5.925  12.517  19.861  0.00  0.00    +0.000 NA
ATOM      7  C   UNL     1      -5.153  12.957  22.168  0.00  0.00    +0.000 A 
ATOM      8  C   UNL     1      -4.087  12.976  23.007  0.00  0.00    +0.000 A 
ATOM      9  C   UNL     1      -4.159  13.350  24.471  0.00  0.00    +0.000 C 
ATOM     10  C   UNL     1      -2.763  12.609  22.471  0.00  0.00    +0.000 A 
ATOM     11  C   UNL     1      -1.600  12.599  23.211  0.00  0.00    +0.000 A 
ATOM     12  N   UNL     1      -0.395  12.274  22.710  0.00  0.00    +0.000 NA
ATOM     13  C   UNL     1      -0.342  11.922  21.417  0.00  0.00    +0.000 A 
ATOM     14  N   UNL     1       0.931  11.612  20.943  0.00  0.00    +0.000 N 
ATOM     15  N   UNL     1      -1.412  11.887  20.602  0.00  0.00    +0.000 NA
ATOM     16  C   UNL     1      -2.597  12.240  21.144  0.00  0.00    +0.000 A 
ATOM     17  H   UNL     1       1.551  11.616  21.746  0.00  0.00    +0.000 HD
ENDROOT
BRANCH  14  18
ATOM     18  C   UNL     1       1.260  10.609  20.020  0.00  0.00    +0.000 A 
ATOM     19  C   UNL     1       1.254   9.278  20.450  0.00  0.00    +0.000 A 
ATOM     20  C   UNL     1       1.565   8.243  19.567  0.00  0.00    +0.000 A 
ATOM     21  C   UNL     1       1.857   8.529  18.235  0.00  0.00    +0.000 A 
ATOM     22  C   UNL     1       1.824   9.845  17.783  0.00  0.00    +0.000 A 
ATOM     23  C   UNL     1       1.522  10.878  18.670  0.00  0.00    +0.000 A 
ENDBRANCH  14  18
BRANCH   7  24
ATOM     24  C   UNL     1      -6.502  13.335  22.760  0.00  0.00    +0.000 C 
ATOM     25  N   UNL     1      -7.620  13.648  23.250  0.00  0.00    +0.000 NA
ENDBRANCH   7  24
TORSDOF 2
ENDMDL
MODEL 9
REMARK VINA RESULT:      -5.9      3.523      7.437
REMARK  Name = 
REMARK  4 active torsions:
REMARK  status: ('A' for Active; 'I' for Inactive)
REMARK    1  A    between atoms: C_1  and  C_2
REMARK    2  A    between atoms: C_7  and  C_8
REMARK    3  A    between atoms: C_10  and  C_11
REMARK    4  A    between atoms: N_16  and  C_17
REMARK                            x       y       z     vdW  Elec       q    Type
REMARK                         _______ _______ _______ _____ _____    ______ ____
ROOT
ATOM      1  C   UNL     1      -7.069  12.836  18.216  0.00  0.00    +0.000 C 
ATOM      2  C   UNL     1      -5.674  12.448  18.520  0.00  0.00    +0.000 A 
ATOM      3  C   UNL     1      -4.895  12.690  19.634  0.00  0.00    +0.000 A 
ATOM      4  N   UNL     1      -3.685  12.093  19.375  0.00  0.00    +0.000 N 
ATOM      5  C   UNL     1      -3.785  11.516  18.122  0.00  0.00    +0.000 A 
ATOM      6  N   UNL     1      -4.970  11.721  17.594  0.00  0.00    +0.000 NA
ATOM      7  C   UNL     1      -2.664  10.828  17.611  0.00  0.00    +0.000 A 
ATOM      8  C   UNL     1      -1.510  10.724  18.316  0.00  0.00    +0.000 A 
ATOM      9  C   UNL     1      -0.272  10.005  17.825  0.00  0.00    +0.000 C 
ATOM     10  C   UNL     1      -1.442  11.345  19.651  0.00  0.00    +0.000 A 
ATOM     11  C   UNL     1      -0.337  11.302  20.474  0.00  0.00    +0.000 A 
ATOM     12  N   UNL     1      -0.289  11.862  21.696  0.00  0.00    +0.000 NA
ATOM     13  C   UNL     1      -1.382  12.515  22.115  0.00  0.00    +0.000 A 
ATOM     14  N   UNL     1      -1.287  13.062  23.393  0.00  0.00    +0.000 N 
ATOM     15  N   UNL     1      -2.513  12.630  21.396  0.00  0.00    +0.000 NA
ATOM     16  C   UNL     1      -2.522  12.034  20.184  0.00  0.00    +0.000 A 
ATOM     17  H   UNL     1      -0.326  12.932  23.696  0.00  0.00    +0.000 HD
ENDROOT
BRANCH  14  18
ATOM     18  C   UNL     1      -1.822  14.285  23.823  0.00  0.00    +0.000 A 
ATOM     19  C   UNL     1      -1.172  15.466  23.449  0.00  0.00    +0.000 A 
ATOM     20  C   UNL     1      -1.670  16.708  23.844  0.00  0.00    +0.000 A 
ATOM     21  C   UNL     1      -2.841  16.782  24.594  0.00  0.00    +0.000 A 
ATOM     22  C   UNL     1      -3.522  15.617  24.936  0.00  0.00    +0.000 A 
ATOM     23  C   UNL     1      -3.017  14.376  24.548  0.00  0.00    +0.000 A 
ENDBRANCH  14  18
BRANCH   7  24
ATOM     24  C   UNL     1      -2.693  10.180  16.236  0.00  0.00    +0.000 C 
ATOM     25  N   UNL     1      -2.717   9.643  15.096  0.00  0.00    +0.000 NA
ENDBRANCH   7  24
TORSDOF 2
ENDMDL
