MODEL 1
REMARK VINA RESULT:      -7.8      0.000      0.000
REMARK  Name = 
REMARK  7 active torsions:
REMARK  status: ('A' for Active; 'I' for Inactive)
REMARK    1  A    between atoms: C_1  and  C_2
REMARK    2  A    between atoms: C_4  and  C_5
REMARK    3  A    between atoms: C_8  and  C_9
REMARK    4  A    between atoms: C_9  and  O_10
REMARK    5  A    between atoms: O_10  and  C_11
REMARK    6  A    between atoms: C_11  and  C_13
REMARK    7  A    between atoms: C_16  and  O_17
REMARK                            x       y       z     vdW  Elec       q    Type
REMARK                         _______ _______ _______ _____ _____    ______ ____
ROOT
ATOM      1  C   UNL     1       3.484   1.915  18.449  0.00  0.00    +0.000 C 
ENDROOT
BRANCH   1   9
ATOM      2  C   UNL     1       8.281   7.365  18.672  0.00  0.00    +0.000 C 
ATOM      3  C   UNL     1       7.351   6.304  18.134  0.00  0.00    +0.000 A 
ATOM      4  C   UNL     1       7.264   6.191  16.644  0.00  0.00    +0.000 A 
ATOM      5  C   UNL     1       6.439   5.246  16.162  0.00  0.00    +0.000 A 
ATOM      6  C   UNL     1       6.266   5.032  14.689  0.00  0.00    +0.000 C 
ATOM      7  N   UNL     1       5.740   4.455  17.079  0.00  0.00    +0.000 N 
ATOM      8  C   UNL     1       4.848   3.436  16.874  0.00  0.00    +0.000 A 
ATOM      9  C   UNL     1       4.464   3.000  18.124  0.00  0.00    +0.000 A 
ATOM     10  N   UNL     1       5.095   3.748  19.095  0.00  0.00    +0.000 NA
ATOM     11  C   UNL     1       5.865   4.612  18.461  0.00  0.00    +0.000 A 
ATOM     12  N   UNL     1       6.697   5.567  18.982  0.00  0.00    +0.000 NA
ENDBRANCH   1   9
BRANCH   1  13
ATOM     13  O   UNL     1       2.233   2.047  17.747  0.00  0.00    +0.000 OA
BRANCH  13  14
ATOM     14  C   UNL     1       1.228   2.549  18.501  0.00  0.00    +0.000 C 
ATOM     15  O   UNL     1       0.194   1.967  18.800  0.00  0.00    +0.000 OA
BRANCH  14  16
ATOM     16  C   UNL     1       1.511   3.932  18.958  0.00  0.00    +0.000 A 
ATOM     17  C   UNL     1       1.445   4.202  20.336  0.00  0.00    +0.000 A 
ATOM     18  C   UNL     1       1.707   5.486  20.821  0.00  0.00    +0.000 A 
ATOM     19  C   UNL     1       2.023   6.499  19.922  0.00  0.00    +0.000 A 
ATOM     20  C   UNL     1       2.080   6.251  18.555  0.00  0.00    +0.000 A 
ATOM     21  C   UNL     1       1.828   4.965  18.069  0.00  0.00    +0.000 A 
BRANCH  19  22
ATOM     22  O   UNL     1       2.283   7.769  20.347  0.00  0.00    +0.000 OA
ATOM     23  H   UNL     1       2.524   7.741  21.286  0.00  0.00    +0.000 HD
ENDBRANCH  19  22
ENDBRANCH  14  16
ENDBRANCH  13  14
ENDBRANCH   1  13
TORSDOF 5
ENDMDL
MODEL 2
REMARK VINA RESULT:      -7.8      3.023      6.507
REMARK  Name = 
REMARK  7 active torsions:
REMARK  status: ('A' for Active; 'I' for Inactive)
REMARK    1  A    between atoms: C_1  and  C_2
REMARK    2  A    between atoms: C_4  and  C_5
REMARK    3  A    between atoms: C_8  and  C_9
REMARK    4  A    between atoms: C_9  and  O_10
REMARK    5  A    between atoms: O_10  and  C_11
REMARK    6  A    between atoms: C_11  and  C_13
REMARK    7  A    between atoms: C_16  and  O_17
REMARK                            x       y       z     vdW  Elec       q    Type
REMARK                         _______ _______ _______ _____ _____    ______ ____
ROOT
ATOM      1  C   UNL     1       7.487   4.973  18.372  0.00  0.00    +0.000 C 
ENDROOT
BRANCH   1   9
ATOM      2  C   UNL     1       1.148   2.725  21.113  0.00  0.00    +0.000 C 
ATOM      3  C   UNL     1       2.199   3.613  20.490  0.00  0.00    +0.000 A 
ATOM      4  C   UNL     1       1.777   5.012  20.166  0.00  0.00    +0.000 A 
ATOM      5  C   UNL     1       2.710   5.806  19.615  0.00  0.00    +0.000 A 
ATOM      6  C   UNL     1       2.413   7.228  19.246  0.00  0.00    +0.000 C 
ATOM      7  N   UNL     1       3.982   5.268  19.392  0.00  0.00    +0.000 N 
ATOM      8  C   UNL     1       5.105   5.837  18.853  0.00  0.00    +0.000 A 
ATOM      9  C   UNL     1       6.080   4.863  18.871  0.00  0.00    +0.000 A 
ATOM     10  N   UNL     1       5.566   3.697  19.398  0.00  0.00    +0.000 NA
ATOM     11  C   UNL     1       4.311   3.950  19.716  0.00  0.00    +0.000 A 
ATOM     12  N   UNL     1       3.381   3.117  20.279  0.00  0.00    +0.000 NA
ENDBRANCH   1   9
BRANCH   1  13
ATOM     13  O   UNL     1       7.654   4.489  17.025  0.00  0.00    +0.000 OA
BRANCH  13  14
ATOM     14  C   UNL     1       7.379   5.409  16.071  0.00  0.00    +0.000 C 
ATOM     15  O   UNL     1       7.553   6.616  16.166  0.00  0.00    +0.000 OA
BRANCH  14  16
ATOM     16  C   UNL     1       6.827   4.789  14.841  0.00  0.00    +0.000 A 
ATOM     17  C   UNL     1       5.578   4.151  14.923  0.00  0.00    +0.000 A 
ATOM     18  C   UNL     1       5.009   3.556  13.794  0.00  0.00    +0.000 A 
ATOM     19  C   UNL     1       5.700   3.592  12.588  0.00  0.00    +0.000 A 
ATOM     20  C   UNL     1       6.942   4.210  12.493  0.00  0.00    +0.000 A 
ATOM     21  C   UNL     1       7.509   4.814  13.619  0.00  0.00    +0.000 A 
BRANCH  19  22
ATOM     22  O   UNL     1       5.187   3.023  11.459  0.00  0.00    +0.000 OA
ATOM     23  H   UNL     1       5.904   2.899  10.818  0.00  0.00    +0.000 HD
ENDBRANCH  19  22
ENDBRANCH  14  16
ENDBRANCH  13  14
ENDBRANCH   1  13
TORSDOF 5
ENDMDL
MODEL 3
REMARK VINA RESULT:      -7.7      3.027      6.552
REMARK  Name = 
REMARK  7 active torsions:
REMARK  status: ('A' for Active; 'I' for Inactive)
REMARK    1  A    between atoms: C_1  and  C_2
REMARK    2  A    between atoms: C_4  and  C_5
REMARK    3  A    between atoms: C_8  and  C_9
REMARK    4  A    between atoms: C_9  and  O_10
REMARK    5  A    between atoms: O_10  and  C_11
REMARK    6  A    between atoms: C_11  and  C_13
REMARK    7  A    between atoms: C_16  and  O_17
REMARK                            x       y       z     vdW  Elec       q    Type
REMARK                         _______ _______ _______ _____ _____    ______ ____
ROOT
ATOM      1  C   UNL     1       7.513   4.998  18.424  0.00  0.00    +0.000 C 
ENDROOT
BRANCH   1   9
ATOM      2  C   UNL     1       1.121   2.740  21.030  0.00  0.00    +0.000 C 
ATOM      3  C   UNL     1       2.184   3.631  20.434  0.00  0.00    +0.000 A 
ATOM      4  C   UNL     1       1.771   5.034  20.114  0.00  0.00    +0.000 A 
ATOM      5  C   UNL     1       2.716   5.831  19.587  0.00  0.00    +0.000 A 
ATOM      6  C   UNL     1       2.429   7.257  19.225  0.00  0.00    +0.000 C 
ATOM      7  N   UNL     1       3.990   5.292  19.383  0.00  0.00    +0.000 N 
ATOM      8  C   UNL     1       5.124   5.863  18.869  0.00  0.00    +0.000 A 
ATOM      9  C   UNL     1       6.097   4.887  18.896  0.00  0.00    +0.000 A 
ATOM     10  N   UNL     1       5.571   3.718  19.404  0.00  0.00    +0.000 NA
ATOM     11  C   UNL     1       4.311   3.971  19.701  0.00  0.00    +0.000 A 
ATOM     12  N   UNL     1       3.369   3.135  20.240  0.00  0.00    +0.000 NA
ENDBRANCH   1   9
BRANCH   1  13
ATOM     13  O   UNL     1       7.704   4.523  17.077  0.00  0.00    +0.000 OA
BRANCH  13  14
ATOM     14  C   UNL     1       7.388   5.430  16.123  0.00  0.00    +0.000 C 
ATOM     15  O   UNL     1       7.558   6.640  16.197  0.00  0.00    +0.000 OA
BRANCH  14  16
ATOM     16  C   UNL     1       6.792   4.794  14.923  0.00  0.00    +0.000 A 
ATOM     17  C   UNL     1       7.513   4.845  13.718  0.00  0.00    +0.000 A 
ATOM     18  C   UNL     1       7.001   4.258  12.558  0.00  0.00    +0.000 A 
ATOM     19  C   UNL     1       5.761   3.629  12.608  0.00  0.00    +0.000 A 
ATOM     20  C   UNL     1       5.030   3.580  13.790  0.00  0.00    +0.000 A 
ATOM     21  C   UNL     1       5.545   4.159  14.953  0.00  0.00    +0.000 A 
BRANCH  19  22
ATOM     22  O   UNL     1       5.218   3.044  11.501  0.00  0.00    +0.000 OA
ATOM     23  H   UNL     1       4.643   3.687  11.057  0.00  0.00    +0.000 HD
ENDBRANCH  19  22
ENDBRANCH  14  16
ENDBRANCH  13  14
ENDBRANCH   1  13
TORSDOF 5
ENDMDL
MODEL 4
REMARK VINA RESULT:      -7.7      0.159      1.045
REMARK  Name = 
REMARK  7 active torsions:
REMARK  status: ('A' for Active; 'I' for Inactive)
REMARK    1  A    between atoms: C_1  and  C_2
REMARK    2  A    between atoms: C_4  and  C_5
REMARK    3  A    between atoms: C_8  and  C_9
REMARK    4  A    between atoms: C_9  and  O_10
REMARK    5  A    between atoms: O_10  and  C_11
REMARK    6  A    between atoms: C_11  and  C_13
REMARK    7  A    between atoms: C_16  and  O_17
REMARK                            x       y       z     vdW  Elec       q    Type
REMARK                         _______ _______ _______ _____ _____    ______ ____
ROOT
ATOM      1  C   UNL     1       3.392   1.944  18.138  0.00  0.00    +0.000 C 
ENDROOT
BRANCH   1   9
ATOM      2  C   UNL     1       8.246   7.323  18.651  0.00  0.00    +0.000 C 
ATOM      3  C   UNL     1       7.329   6.280  18.058  0.00  0.00    +0.000 A 
ATOM      4  C   UNL     1       7.315   6.183  16.564  0.00  0.00    +0.000 A 
ATOM      5  C   UNL     1       6.503   5.253  16.032  0.00  0.00    +0.000 A 
ATOM      6  C   UNL     1       6.400   5.055  14.551  0.00  0.00    +0.000 C 
ATOM      7  N   UNL     1       5.748   4.464  16.907  0.00  0.00    +0.000 N 
ATOM      8  C   UNL     1       4.854   3.460  16.648  0.00  0.00    +0.000 A 
ATOM      9  C   UNL     1       4.401   3.017  17.872  0.00  0.00    +0.000 A 
ATOM     10  N   UNL     1       4.994   3.749  18.881  0.00  0.00    +0.000 NA
ATOM     11  C   UNL     1       5.806   4.607  18.294  0.00  0.00    +0.000 A 
ATOM     12  N   UNL     1       6.624   5.546  18.865  0.00  0.00    +0.000 NA
ENDBRANCH   1   9
BRANCH   1  13
ATOM     13  O   UNL     1       2.106   2.212  17.547  0.00  0.00    +0.000 OA
BRANCH  13  14
ATOM     14  C   UNL     1       1.165   2.610  18.435  0.00  0.00    +0.000 C 
ATOM     15  O   UNL     1       0.179   1.968  18.774  0.00  0.00    +0.000 OA
BRANCH  14  16
ATOM     16  C   UNL     1       1.453   3.956  18.988  0.00  0.00    +0.000 A 
ATOM     17  C   UNL     1       1.783   4.985  18.090  0.00  0.00    +0.000 A 
ATOM     18  C   UNL     1       2.059   6.273  18.557  0.00  0.00    +0.000 A 
ATOM     19  C   UNL     1       2.015   6.523  19.924  0.00  0.00    +0.000 A 
ATOM     20  C   UNL     1       1.702   5.512  20.826  0.00  0.00    +0.000 A 
ATOM     21  C   UNL     1       1.416   4.225  20.361  0.00  0.00    +0.000 A 
BRANCH  19  22
ATOM     22  O   UNL     1       2.280   7.763  20.427  0.00  0.00    +0.000 OA
ATOM     23  H   UNL     1       1.544   8.033  20.998  0.00  0.00    +0.000 HD
ENDBRANCH  19  22
ENDBRANCH  14  16
ENDBRANCH  13  14
ENDBRANCH   1  13
TORSDOF 5
ENDMDL
MODEL 5
REMARK VINA RESULT:      -7.4      2.842      5.835
REMARK  Name = 
REMARK  7 active torsions:
REMARK  status: ('A' for Active; 'I' for Inactive)
REMARK    1  A    between atoms: C_1  and  C_2
REMARK    2  A    between atoms: C_4  and  C_5
REMARK    3  A    between atoms: C_8  and  C_9
REMARK    4  A    between atoms: C_9  and  O_10
REMARK    5  A    between atoms: O_10  and  C_11
REMARK    6  A    between atoms: C_11  and  C_13
REMARK    7  A    between atoms: C_16  and  O_17
REMARK                            x       y       z     vdW  Elec       q    Type
REMARK                         _______ _______ _______ _____ _____    ______ ____
ROOT
ATOM      1  C   UNL     1       4.897   4.228  15.373  0.00  0.00    +0.000 C 
ENDROOT
BRANCH   1   9
ATOM      2  C   UNL     1       1.529   2.676  21.618  0.00  0.00    +0.000 C 
ATOM      3  C   UNL     1       2.113   3.462  20.469  0.00  0.00    +0.000 A 
ATOM      4  C   UNL     1       1.969   4.951  20.543  0.00  0.00    +0.000 A 
ATOM      5  C   UNL     1       2.492   5.655  19.525  0.00  0.00    +0.000 A 
ATOM      6  C   UNL     1       2.415   7.150  19.483  0.00  0.00    +0.000 C 
ATOM      7  N   UNL     1       3.119   4.948  18.493  0.00  0.00    +0.000 N 
ATOM      8  C   UNL     1       3.726   5.399  17.351  0.00  0.00    +0.000 A 
ATOM      9  C   UNL     1       4.181   4.280  16.686  0.00  0.00    +0.000 A 
ATOM     10  N   UNL     1       3.846   3.146  17.397  0.00  0.00    +0.000 NA
ATOM     11  C   UNL     1       3.218   3.556  18.482  0.00  0.00    +0.000 A 
ATOM     12  N   UNL     1       2.695   2.812  19.506  0.00  0.00    +0.000 NA
ENDBRANCH   1   9
BRANCH   1  13
ATOM     13  O   UNL     1       5.481   5.489  14.991  0.00  0.00    +0.000 OA
BRANCH  13  14
ATOM     14  C   UNL     1       6.824   5.544  15.149  0.00  0.00    +0.000 C 
ATOM     15  O   UNL     1       7.654   5.545  14.250  0.00  0.00    +0.000 OA
BRANCH  14  16
ATOM     16  C   UNL     1       7.216   5.610  16.579  0.00  0.00    +0.000 A 
ATOM     17  C   UNL     1       7.574   4.414  17.224  0.00  0.00    +0.000 A 
ATOM     18  C   UNL     1       7.956   4.420  18.568  0.00  0.00    +0.000 A 
ATOM     19  C   UNL     1       7.967   5.624  19.265  0.00  0.00    +0.000 A 
ATOM     20  C   UNL     1       7.605   6.814  18.643  0.00  0.00    +0.000 A 
ATOM     21  C   UNL     1       7.231   6.811  17.296  0.00  0.00    +0.000 A 
BRANCH  19  22
ATOM     22  O   UNL     1       8.330   5.679  20.579  0.00  0.00    +0.000 OA
ATOM     23  H   UNL     1       8.438   6.608  20.835  0.00  0.00    +0.000 HD
ENDBRANCH  19  22
ENDBRANCH  14  16
ENDBRANCH  13  14
ENDBRANCH   1  13
TORSDOF 5
ENDMDL
MODEL 6
REMARK VINA RESULT:      -7.4      3.500      5.908
REMARK  Name = 
REMARK  7 active torsions:
REMARK  status: ('A' for Active; 'I' for Inactive)
REMARK    1  A    between atoms: C_1  and  C_2
REMARK    2  A    between atoms: C_4  and  C_5
REMARK    3  A    between atoms: C_8  and  C_9
REMARK    4  A    between atoms: C_9  and  O_10
REMARK    5  A    between atoms: O_10  and  C_11
REMARK    6  A    between atoms: C_11  and  C_13
REMARK    7  A    between atoms: C_16  and  O_17
REMARK                            x       y       z     vdW  Elec       q    Type
REMARK                         _______ _______ _______ _____ _____    ______ ____
ROOT
ATOM      1  C   UNL     1       3.515   6.504  17.779  0.00  0.00    +0.000 C 
ENDROOT
BRANCH   1   9
ATOM      2  C   UNL     1      -0.262   9.570  23.172  0.00  0.00    +0.000 C 
ATOM      3  C   UNL     1       0.343   9.333  21.809  0.00  0.00    +0.000 A 
ATOM      4  C   UNL     1       0.030  10.352  20.758  0.00  0.00    +0.000 A 
ATOM      5  C   UNL     1       0.570  10.147  19.545  0.00  0.00    +0.000 A 
ATOM      6  C   UNL     1       0.334  11.095  18.410  0.00  0.00    +0.000 C 
ATOM      7  N   UNL     1       1.369   9.013  19.366  0.00  0.00    +0.000 N 
ATOM      8  C   UNL     1       2.033   8.561  18.257  0.00  0.00    +0.000 A 
ATOM      9  C   UNL     1       2.671   7.399  18.633  0.00  0.00    +0.000 A 
ATOM     10  N   UNL     1       2.394   7.121  19.955  0.00  0.00    +0.000 NA
ATOM     11  C   UNL     1       1.621   8.097  20.389  0.00  0.00    +0.000 A 
ATOM     12  N   UNL     1       1.084   8.280  21.636  0.00  0.00    +0.000 NA
ENDBRANCH   1   9
BRANCH   1  13
ATOM     13  O   UNL     1       2.852   5.280  17.407  0.00  0.00    +0.000 OA
BRANCH  13  14
ATOM     14  C   UNL     1       3.448   4.164  17.888  0.00  0.00    +0.000 C 
ATOM     15  O   UNL     1       4.417   3.598  17.398  0.00  0.00    +0.000 OA
BRANCH  14  16
ATOM     16  C   UNL     1       2.792   3.668  19.123  0.00  0.00    +0.000 A 
ATOM     17  C   UNL     1       3.591   3.037  20.091  0.00  0.00    +0.000 A 
ATOM     18  C   UNL     1       3.026   2.556  21.275  0.00  0.00    +0.000 A 
ATOM     19  C   UNL     1       1.658   2.700  21.480  0.00  0.00    +0.000 A 
ATOM     20  C   UNL     1       0.852   3.312  20.527  0.00  0.00    +0.000 A 
ATOM     21  C   UNL     1       1.417   3.801  19.346  0.00  0.00    +0.000 A 
BRANCH  19  22
ATOM     22  O   UNL     1       1.060   2.244  22.618  0.00  0.00    +0.000 OA
ATOM     23  H   UNL     1       0.935   1.285  22.544  0.00  0.00    +0.000 HD
ENDBRANCH  19  22
ENDBRANCH  14  16
ENDBRANCH  13  14
ENDBRANCH   1  13
TORSDOF 5
ENDMDL
MODEL 7
REMARK VINA RESULT:      -7.3      4.574      6.575
REMARK  Name = 
REMARK  7 active torsions:
REMARK  status: ('A' for Active; 'I' for Inactive)
REMARK    1  A    between atoms: C_1  and  C_2
REMARK    2  A    between atoms: C_4  and  C_5
REMARK    3  A    between atoms: C_8  and  C_9
REMARK    4  A    between atoms: C_9  and  O_10
REMARK    5  A    between atoms: O_10  and  C_11
REMARK    6  A    between atoms: C_11  and  C_13
REMARK    7  A    between atoms: C_16  and  O_17
REMARK                            x       y       z     vdW  Elec       q    Type
REMARK                         _______ _______ _______ _____ _____    ______ ____
ROOT
ATOM      1  C   UNL     1       2.132   9.204  18.170  0.00  0.00    +0.000 C 
ENDROOT
BRANCH   1   9
ATOM      2  C   UNL     1       2.364   2.845  21.672  0.00  0.00    +0.000 C 
ATOM      3  C   UNL     1       2.565   3.894  20.606  0.00  0.00    +0.000 A 
ATOM      4  C   UNL     1       3.301   3.458  19.377  0.00  0.00    +0.000 A 
ATOM      5  C   UNL     1       3.478   4.389  18.423  0.00  0.00    +0.000 A 
ATOM      6  C   UNL     1       4.197   4.077  17.146  0.00  0.00    +0.000 C 
ATOM      7  N   UNL     1       2.969   5.671  18.655  0.00  0.00    +0.000 N 
ATOM      8  C   UNL     1       3.005   6.795  17.873  0.00  0.00    +0.000 A 
ATOM      9  C   UNL     1       2.349   7.780  18.579  0.00  0.00    +0.000 A 
ATOM     10  N   UNL     1       1.925   7.281  19.793  0.00  0.00    +0.000 NA
ATOM     11  C   UNL     1       2.292   6.014  19.827  0.00  0.00    +0.000 A 
ATOM     12  N   UNL     1       2.096   5.088  20.816  0.00  0.00    +0.000 NA
ENDBRANCH   1   9
BRANCH   1  13
ATOM     13  O   UNL     1       0.779   9.479  17.758  0.00  0.00    +0.000 OA
BRANCH  13  14
ATOM     14  C   UNL     1       0.083  10.247  18.629  0.00  0.00    +0.000 C 
ATOM     15  O   UNL     1       0.503  10.693  19.688  0.00  0.00    +0.000 OA
BRANCH  14  16
ATOM     16  C   UNL     1      -1.298  10.514  18.157  0.00  0.00    +0.000 A 
ATOM     17  C   UNL     1      -1.753   9.832  17.016  0.00  0.00    +0.000 A 
ATOM     18  C   UNL     1      -3.047  10.043  16.532  0.00  0.00    +0.000 A 
ATOM     19  C   UNL     1      -3.877  10.946  17.186  0.00  0.00    +0.000 A 
ATOM     20  C   UNL     1      -3.437  11.638  18.310  0.00  0.00    +0.000 A 
ATOM     21  C   UNL     1      -2.147  11.421  18.801  0.00  0.00    +0.000 A 
BRANCH  19  22
ATOM     22  O   UNL     1      -5.147  11.188  16.749  0.00  0.00    +0.000 OA
ATOM     23  H   UNL     1      -5.678  11.509  17.494  0.00  0.00    +0.000 HD
ENDBRANCH  19  22
ENDBRANCH  14  16
ENDBRANCH  13  14
ENDBRANCH   1  13
TORSDOF 5
ENDMDL
MODEL 8
REMARK VINA RESULT:      -7.2      1.669      2.868
REMARK  Name = 
REMARK  7 active torsions:
REMARK  status: ('A' for Active; 'I' for Inactive)
REMARK    1  A    between atoms: C_1  and  C_2
REMARK    2  A    between atoms: C_4  and  C_5
REMARK    3  A    between atoms: C_8  and  C_9
REMARK    4  A    between atoms: C_9  and  O_10
REMARK    5  A    between atoms: O_10  and  C_11
REMARK    6  A    between atoms: C_11  and  C_13
REMARK    7  A    between atoms: C_16  and  O_17
REMARK                            x       y       z     vdW  Elec       q    Type
REMARK                         _______ _______ _______ _____ _____    ______ ____
ROOT
ATOM      1  C   UNL     1       2.895   2.892  19.374  0.00  0.00    +0.000 C 
ENDROOT
BRANCH   1   9
ATOM      2  C   UNL     1       7.117   4.815  13.785  0.00  0.00    +0.000 C 
ATOM      3  C   UNL     1       6.613   4.635  15.197  0.00  0.00    +0.000 A 
ATOM      4  C   UNL     1       7.484   5.180  16.286  0.00  0.00    +0.000 A 
ATOM      5  C   UNL     1       7.038   5.025  17.544  0.00  0.00    +0.000 A 
ATOM      6  C   UNL     1       7.816   5.529  18.721  0.00  0.00    +0.000 C 
ATOM      7  N   UNL     1       5.813   4.376  17.730  0.00  0.00    +0.000 N 
ATOM      8  C   UNL     1       5.129   4.084  18.880  0.00  0.00    +0.000 A 
ATOM      9  C   UNL     1       3.975   3.438  18.492  0.00  0.00    +0.000 A 
ATOM     10  N   UNL     1       3.948   3.315  17.119  0.00  0.00    +0.000 NA
ATOM     11  C   UNL     1       5.048   3.887  16.669  0.00  0.00    +0.000 A 
ATOM     12  N   UNL     1       5.477   4.030  15.377  0.00  0.00    +0.000 NA
ENDBRANCH   1   9
BRANCH   1  13
ATOM     13  O   UNL     1       1.806   3.812  19.580  0.00  0.00    +0.000 OA
BRANCH  13  14
ATOM     14  C   UNL     1       2.062   4.771  20.501  0.00  0.00    +0.000 C 
ATOM     15  O   UNL     1       2.332   4.581  21.679  0.00  0.00    +0.000 OA
BRANCH  14  16
ATOM     16  C   UNL     1       1.985   6.135  19.923  0.00  0.00    +0.000 A 
ATOM     17  C   UNL     1       1.520   7.177  20.743  0.00  0.00    +0.000 A 
ATOM     18  C   UNL     1       1.433   8.482  20.251  0.00  0.00    +0.000 A 
ATOM     19  C   UNL     1       1.801   8.736  18.934  0.00  0.00    +0.000 A 
ATOM     20  C   UNL     1       2.252   7.714  18.107  0.00  0.00    +0.000 A 
ATOM     21  C   UNL     1       2.349   6.409  18.600  0.00  0.00    +0.000 A 
BRANCH  19  22
ATOM     22  O   UNL     1       1.730   9.993  18.408  0.00  0.00    +0.000 OA
ATOM     23  H   UNL     1       2.404  10.081  17.716  0.00  0.00    +0.000 HD
ENDBRANCH  19  22
ENDBRANCH  14  16
ENDBRANCH  13  14
ENDBRANCH   1  13
TORSDOF 5
ENDMDL
MODEL 9
REMARK VINA RESULT:      -7.2      3.780      6.643
REMARK  Name = 
REMARK  7 active torsions:
REMARK  status: ('A' for Active; 'I' for Inactive)
REMARK    1  A    between atoms: C_1  and  C_2
REMARK    2  A    between atoms: C_4  and  C_5
REMARK    3  A    between atoms: C_8  and  C_9
REMARK    4  A    between atoms: C_9  and  O_10
REMARK    5  A    between atoms: O_10  and  C_11
REMARK    6  A    between atoms: C_11  and  C_13
REMARK    7  A    between atoms: C_16  and  O_17
REMARK                            x       y       z     vdW  Elec       q    Type
REMARK                         _______ _______ _______ _____ _____    ______ ____
ROOT
ATOM      1  C   UNL     1       2.937   5.554  19.094  0.00  0.00    +0.000 C 
ENDROOT
BRANCH   1   9
ATOM      2  C   UNL     1      -0.761  10.405  23.039  0.00  0.00    +0.000 C 
ATOM      3  C   UNL     1       0.025   9.788  21.906  0.00  0.00    +0.000 A 
ATOM      4  C   UNL     1       0.300  10.673  20.730  0.00  0.00    +0.000 A 
ATOM      5  C   UNL     1       1.003  10.129  19.722  0.00  0.00    +0.000 A 
ATOM      6  C   UNL     1       1.344  10.911  18.491  0.00  0.00    +0.000 C 
ATOM      7  N   UNL     1       1.414   8.798  19.853  0.00  0.00    +0.000 N 
ATOM      8  C   UNL     1       2.128   8.002  18.997  0.00  0.00    +0.000 A 
ATOM      9  C   UNL     1       2.257   6.780  19.621  0.00  0.00    +0.000 A 
ATOM     10  N   UNL     1       1.617   6.809  20.842  0.00  0.00    +0.000 NA
ATOM     11  C   UNL     1       1.122   8.024  20.977  0.00  0.00    +0.000 A 
ATOM     12  N   UNL     1       0.408   8.551  22.020  0.00  0.00    +0.000 NA
ENDBRANCH   1   9
BRANCH   1  13
ATOM     13  O   UNL     1       4.225   5.314  19.694  0.00  0.00    +0.000 OA
BRANCH  13  14
ATOM     14  C   UNL     1       4.877   4.242  19.187  0.00  0.00    +0.000 C 
ATOM     15  O   UNL     1       4.890   3.115  19.664  0.00  0.00    +0.000 OA
BRANCH  14  16
ATOM     16  C   UNL     1       5.605   4.573  17.937  0.00  0.00    +0.000 A 
ATOM     17  C   UNL     1       5.269   3.869  16.768  0.00  0.00    +0.000 A 
ATOM     18  C   UNL     1       5.920   4.144  15.562  0.00  0.00    +0.000 A 
ATOM     19  C   UNL     1       6.914   5.116  15.535  0.00  0.00    +0.000 A 
ATOM     20  C   UNL     1       7.266   5.812  16.685  0.00  0.00    +0.000 A 
ATOM     21  C   UNL     1       6.610   5.545  17.890  0.00  0.00    +0.000 A 
BRANCH  19  22
ATOM     22  O   UNL     1       7.580   5.417  14.382  0.00  0.00    +0.000 OA
ATOM     23  H   UNL     1       7.987   6.292  14.476  0.00  0.00    +0.000 HD
ENDBRANCH  19  22
ENDBRANCH  14  16
ENDBRANCH  13  14
ENDBRANCH   1  13
TORSDOF 5
ENDMDL
