MODEL 1
REMARK VINA RESULT:      -4.9      0.000      0.000
REMARK  Name = 
REMARK  2 active torsions:
REMARK  status: ('A' for Active; 'I' for Inactive)
REMARK    1  A    between atoms: C_4  and  C_5
REMARK    2  A    between atoms: C_5  and  C_6
REMARK                            x       y       z     vdW  Elec       q    Type
REMARK                         _______ _______ _______ _____ _____    ______ ____
ROOT
ATOM      1  C   UNL     1       6.067   3.892  13.922  0.00  0.00    +0.000 C 
ENDROOT
BRANCH   1   2
ATOM      2  C   UNL     1       7.138   4.772  14.539  0.00  0.00    +0.000 C 
ATOM      3  N   UNL     1       7.324   4.669  15.884  0.00  0.00    +0.000 N 
ATOM      4  O   UNL     1       7.855   5.511  13.870  0.00  0.00    +0.000 OA
ATOM      5  H   UNL     1       6.855   3.977  16.451  0.00  0.00    +0.000 HD
ATOM      6  H   UNL     1       8.072   5.213  16.294  0.00  0.00    +0.000 HD
ENDBRANCH   1   2
BRANCH   1  10
ATOM      7  C   UNL     1       3.895   3.277  11.223  0.00  0.00    +0.000 C 
ATOM      8  C   UNL     1       5.113   3.138  11.696  0.00  0.00    +0.000 C 
ATOM      9  C   UNL     1       6.219   2.276  11.815  0.00  0.00    +0.000 C 
ATOM     10  C   UNL     1       6.162   3.725  12.432  0.00  0.00    +0.000 C 
ENDBRANCH   1  10
TORSDOF 2
ENDMDL
MODEL 2
REMARK VINA RESULT:      -4.9      1.129      1.129
REMARK  Name = 
REMARK  2 active torsions:
REMARK  status: ('A' for Active; 'I' for Inactive)
REMARK    1  A    between atoms: C_4  and  C_5
REMARK    2  A    between atoms: C_5  and  C_6
REMARK                            x       y       z     vdW  Elec       q    Type
REMARK                         _______ _______ _______ _____ _____    ______ ____
ROOT
ATOM      1  C   UNL     1       6.020   3.914  13.872  0.00  0.00    +0.000 C 
ENDROOT
BRANCH   1   2
ATOM      2  C   UNL     1       7.153   4.707  14.496  0.00  0.00    +0.000 C 
ATOM      3  N   UNL     1       7.850   5.542  13.676  0.00  0.00    +0.000 N 
ATOM      4  O   UNL     1       7.416   4.657  15.695  0.00  0.00    +0.000 OA
ATOM      5  H   UNL     1       7.582   5.718  12.719  0.00  0.00    +0.000 HD
ATOM      6  H   UNL     1       8.571   6.114  14.096  0.00  0.00    +0.000 HD
ENDBRANCH   1   2
BRANCH   1  10
ATOM      7  C   UNL     1       3.879   3.294  11.151  0.00  0.00    +0.000 C 
ATOM      8  C   UNL     1       5.081   3.124  11.653  0.00  0.00    +0.000 C 
ATOM      9  C   UNL     1       6.150   2.223  11.823  0.00  0.00    +0.000 C 
ATOM     10  C   UNL     1       6.138   3.694  12.391  0.00  0.00    +0.000 C 
ENDBRANCH   1  10
TORSDOF 2
ENDMDL
MODEL 3
REMARK VINA RESULT:      -4.6      1.119      1.768
REMARK  Name = 
REMARK  2 active torsions:
REMARK  status: ('A' for Active; 'I' for Inactive)
REMARK    1  A    between atoms: C_4  and  C_5
REMARK    2  A    between atoms: C_5  and  C_6
REMARK                            x       y       z     vdW  Elec       q    Type
REMARK                         _______ _______ _______ _____ _____    ______ ____
ROOT
ATOM      1  C   UNL     1       7.159   4.326  12.088  0.00  0.00    +0.000 C 
ENDROOT
BRANCH   1   2
ATOM      2  C   UNL     1       7.663   5.202  13.220  0.00  0.00    +0.000 C 
ATOM      3  N   UNL     1       6.980   5.145  14.398  0.00  0.00    +0.000 N 
ATOM      4  O   UNL     1       8.670   5.899  13.122  0.00  0.00    +0.000 OA
ATOM      5  H   UNL     1       6.234   4.486  14.567  0.00  0.00    +0.000 HD
ATOM      6  H   UNL     1       7.342   5.686  15.173  0.00  0.00    +0.000 HD
ENDBRANCH   1   2
BRANCH   1  10
ATOM      7  C   UNL     1       6.123   1.108  11.115  0.00  0.00    +0.000 C 
ATOM      8  C   UNL     1       5.759   2.264  11.623  0.00  0.00    +0.000 C 
ATOM      9  C   UNL     1       4.764   3.260  11.642  0.00  0.00    +0.000 C 
ATOM     10  C   UNL     1       6.100   3.333  12.475  0.00  0.00    +0.000 C 
ENDBRANCH   1  10
TORSDOF 2
ENDMDL
MODEL 4
REMARK VINA RESULT:      -4.5      7.348      8.357
REMARK  Name = 
REMARK  2 active torsions:
REMARK  status: ('A' for Active; 'I' for Inactive)
REMARK    1  A    between atoms: C_4  and  C_5
REMARK    2  A    between atoms: C_5  and  C_6
REMARK                            x       y       z     vdW  Elec       q    Type
REMARK                         _______ _______ _______ _____ _____    ______ ____
ROOT
ATOM      1  C   UNL     1       1.752   2.146  19.018  0.00  0.00    +0.000 C 
ENDROOT
BRANCH   1   2
ATOM      2  C   UNL     1       2.237   3.018  17.875  0.00  0.00    +0.000 C 
ATOM      3  N   UNL     1       3.567   2.976  17.585  0.00  0.00    +0.000 N 
ATOM      4  O   UNL     1       1.476   3.698  17.191  0.00  0.00    +0.000 OA
ATOM      5  H   UNL     1       4.204   2.331  18.029  0.00  0.00    +0.000 HD
ATOM      6  H   UNL     1       3.888   3.514  16.791  0.00  0.00    +0.000 HD
ENDBRANCH   1   2
BRANCH   1  10
ATOM      7  C   UNL     1       1.918   5.221  20.721  0.00  0.00    +0.000 C 
ATOM      8  C   UNL     1       1.549   3.961  20.778  0.00  0.00    +0.000 C 
ATOM      9  C   UNL     1       1.486   2.807  21.581  0.00  0.00    +0.000 C 
ATOM     10  C   UNL     1       0.984   2.869  20.088  0.00  0.00    +0.000 C 
ENDBRANCH   1  10
TORSDOF 2
ENDMDL
MODEL 5
REMARK VINA RESULT:      -4.5      6.562      7.397
REMARK  Name = 
REMARK  2 active torsions:
REMARK  status: ('A' for Active; 'I' for Inactive)
REMARK    1  A    between atoms: C_4  and  C_5
REMARK    2  A    between atoms: C_5  and  C_6
REMARK                            x       y       z     vdW  Elec       q    Type
REMARK                         _______ _______ _______ _____ _____    ______ ____
ROOT
ATOM      1  C   UNL     1       3.322   2.937  18.151  0.00  0.00    +0.000 C 
ENDROOT
BRANCH   1   2
ATOM      2  C   UNL     1       4.401   3.310  19.151  0.00  0.00    +0.000 C 
ATOM      3  N   UNL     1       5.034   2.287  19.789  0.00  0.00    +0.000 N 
ATOM      4  O   UNL     1       4.744   4.472  19.353  0.00  0.00    +0.000 OA
ATOM      5  H   UNL     1       4.882   1.317  19.554  0.00  0.00    +0.000 HD
ATOM      6  H   UNL     1       5.791   2.526  20.417  0.00  0.00    +0.000 HD
ENDBRANCH   1   2
BRANCH   1  10
ATOM      7  C   UNL     1       1.376   3.479  21.032  0.00  0.00    +0.000 C 
ATOM      8  C   UNL     1       1.370   3.190  19.750  0.00  0.00    +0.000 C 
ATOM      9  C   UNL     1       0.786   2.398  18.743  0.00  0.00    +0.000 C 
ATOM     10  C   UNL     1       1.946   3.435  18.487  0.00  0.00    +0.000 C 
ENDBRANCH   1  10
TORSDOF 2
ENDMDL
MODEL 6
REMARK VINA RESULT:      -4.4      1.012      1.596
REMARK  Name = 
REMARK  2 active torsions:
REMARK  status: ('A' for Active; 'I' for Inactive)
REMARK    1  A    between atoms: C_4  and  C_5
REMARK    2  A    between atoms: C_5  and  C_6
REMARK                            x       y       z     vdW  Elec       q    Type
REMARK                         _______ _______ _______ _____ _____    ______ ____
ROOT
ATOM      1  C   UNL     1       6.539   4.304  13.295  0.00  0.00    +0.000 C 
ENDROOT
BRANCH   1   2
ATOM      2  C   UNL     1       6.765   4.481  14.784  0.00  0.00    +0.000 C 
ATOM      3  N   UNL     1       6.183   3.569  15.612  0.00  0.00    +0.000 N 
ATOM      4  O   UNL     1       7.481   5.367  15.245  0.00  0.00    +0.000 OA
ATOM      5  H   UNL     1       5.704   2.749  15.272  0.00  0.00    +0.000 HD
ATOM      6  H   UNL     1       6.374   3.651  16.602  0.00  0.00    +0.000 HD
ENDBRANCH   1   2
BRANCH   1  10
ATOM      7  C   UNL     1       6.371   1.508  11.166  0.00  0.00    +0.000 C 
ATOM      8  C   UNL     1       5.699   2.469  11.759  0.00  0.00    +0.000 C 
ATOM      9  C   UNL     1       4.671   3.420  11.621  0.00  0.00    +0.000 C 
ATOM     10  C   UNL     1       5.540   3.245  12.924  0.00  0.00    +0.000 C 
ENDBRANCH   1  10
TORSDOF 2
ENDMDL
MODEL 7
REMARK VINA RESULT:      -4.4      1.349      1.833
REMARK  Name = 
REMARK  2 active torsions:
REMARK  status: ('A' for Active; 'I' for Inactive)
REMARK    1  A    between atoms: C_4  and  C_5
REMARK    2  A    between atoms: C_5  and  C_6
REMARK                            x       y       z     vdW  Elec       q    Type
REMARK                         _______ _______ _______ _____ _____    ______ ____
ROOT
ATOM      1  C   UNL     1       6.442   4.157  13.032  0.00  0.00    +0.000 C 
ENDROOT
BRANCH   1   2
ATOM      2  C   UNL     1       6.691   4.377  14.512  0.00  0.00    +0.000 C 
ATOM      3  N   UNL     1       7.572   5.358  14.854  0.00  0.00    +0.000 N 
ATOM      4  O   UNL     1       6.097   3.748  15.385  0.00  0.00    +0.000 OA
ATOM      5  H   UNL     1       7.977   5.990  14.178  0.00  0.00    +0.000 HD
ATOM      6  H   UNL     1       7.701   5.546  15.839  0.00  0.00    +0.000 HD
ENDBRANCH   1   2
BRANCH   1  10
ATOM      7  C   UNL     1       6.241   1.251  11.059  0.00  0.00    +0.000 C 
ATOM      8  C   UNL     1       5.583   2.257  11.589  0.00  0.00    +0.000 C 
ATOM      9  C   UNL     1       4.576   3.220  11.385  0.00  0.00    +0.000 C 
ATOM     10  C   UNL     1       5.426   3.100  12.708  0.00  0.00    +0.000 C 
ENDBRANCH   1  10
TORSDOF 2
ENDMDL
MODEL 8
REMARK VINA RESULT:      -4.4      6.658      7.214
REMARK  Name = 
REMARK  2 active torsions:
REMARK  status: ('A' for Active; 'I' for Inactive)
REMARK    1  A    between atoms: C_4  and  C_5
REMARK    2  A    between atoms: C_5  and  C_6
REMARK                            x       y       z     vdW  Elec       q    Type
REMARK                         _______ _______ _______ _____ _____    ______ ____
ROOT
ATOM      1  C   UNL     1       3.024   2.530  20.182  0.00  0.00    +0.000 C 
ENDROOT
BRANCH   1   2
ATOM      2  C   UNL     1       4.520   2.557  19.930  0.00  0.00    +0.000 C 
ATOM      3  N   UNL     1       5.221   1.431  20.238  0.00  0.00    +0.000 N 
ATOM      4  O   UNL     1       5.089   3.521  19.422  0.00  0.00    +0.000 OA
ATOM      5  H   UNL     1       4.777   0.571  20.526  0.00  0.00    +0.000 HD
ATOM      6  H   UNL     1       6.210   1.424  20.022  0.00  0.00    +0.000 HD
ENDBRANCH   1   2
BRANCH   1  10
ATOM      7  C   UNL     1       1.596   4.453  17.606  0.00  0.00    +0.000 C 
ATOM      8  C   UNL     1       1.496   3.368  18.341  0.00  0.00    +0.000 C 
ATOM      9  C   UNL     1       0.619   2.523  19.047  0.00  0.00    +0.000 C 
ATOM     10  C   UNL     1       2.178   2.303  18.962  0.00  0.00    +0.000 C 
ENDBRANCH   1  10
TORSDOF 2
ENDMDL
MODEL 9
REMARK VINA RESULT:      -4.4      2.791      4.905
REMARK  Name = 
REMARK  2 active torsions:
REMARK  status: ('A' for Active; 'I' for Inactive)
REMARK    1  A    between atoms: C_4  and  C_5
REMARK    2  A    between atoms: C_5  and  C_6
REMARK                            x       y       z     vdW  Elec       q    Type
REMARK                         _______ _______ _______ _____ _____    ______ ____
ROOT
ATOM      1  C   UNL     1       5.538   4.818  15.572  0.00  0.00    +0.000 C 
ENDROOT
BRANCH   1   2
ATOM      2  C   UNL     1       6.587   4.571  14.504  0.00  0.00    +0.000 C 
ATOM      3  N   UNL     1       6.352   3.553  13.630  0.00  0.00    +0.000 N 
ATOM      4  O   UNL     1       7.584   5.277  14.378  0.00  0.00    +0.000 OA
ATOM      5  H   UNL     1       5.485   3.037  13.609  0.00  0.00    +0.000 HD
ATOM      6  H   UNL     1       7.021   3.417  12.882  0.00  0.00    +0.000 HD
ENDBRANCH   1   2
BRANCH   1  10
ATOM      7  C   UNL     1       7.269   7.207  17.488  0.00  0.00    +0.000 C 
ATOM      8  C   UNL     1       6.099   6.798  17.053  0.00  0.00    +0.000 C 
ATOM      9  C   UNL     1       4.746   6.596  17.384  0.00  0.00    +0.000 C 
ATOM     10  C   UNL     1       5.369   6.254  15.977  0.00  0.00    +0.000 C 
ENDBRANCH   1  10
TORSDOF 2
ENDMDL
