MODEL 1
REMARK VINA RESULT:      -9.1      0.000      0.000
REMARK  Name = 
REMARK  7 active torsions:
REMARK  status: ('A' for Active; 'I' for Inactive)
REMARK    1  A    between atoms: C_1  and  O_2
REMARK    2  A    between atoms: O_2  and  C_3
REMARK    3  A    between atoms: C_6  and  C_7
REMARK    4  A    between atoms: C_10  and  C_11
REMARK    5  A    between atoms: C_20  and  O_21
REMARK    6  A    between atoms: C_24  and  C_25
REMARK    7  A    between atoms: C_29  and  C_30
REMARK                            x       y       z     vdW  Elec       q    Type
REMARK                         _______ _______ _______ _____ _____    ______ ____
ROOT
ATOM      1  C   UNL     1       0.550   9.710  20.611  0.00  0.00    +0.000 C 
ATOM      2  C   UNL     1       0.580   9.186  21.851  0.00  0.00    +0.000 C 
ATOM      3  C   UNL     1      -0.180  10.027  22.846  0.00  0.00    +0.000 C 
ATOM      4  C   UNL     1      -1.079  10.803  21.894  0.00  0.00    +0.000 C 
ATOM      5  C   UNL     1      -1.791  12.086  22.342  0.00  0.00    +0.000 C 
ATOM      6  C   UNL     1      -2.609  11.871  23.625  0.00  0.00    +0.000 C 
ATOM      7  C   UNL     1      -3.628  12.944  23.872  0.00  0.00    +0.000 C 
ATOM      8  C   UNL     1      -4.011  13.865  22.968  0.00  0.00    +0.000 C 
ATOM      9  C   UNL     1      -5.037  14.917  23.335  0.00  0.00    +0.000 C 
ATOM     10  C   UNL     1      -6.164  15.009  22.305  0.00  0.00    +0.000 C 
ATOM     11  C   UNL     1      -5.609  15.211  20.899  0.00  0.00    +0.000 C 
ATOM     12  C   UNL     1      -4.637  14.091  20.532  0.00  0.00    +0.000 C 
ATOM     13  C   UNL     1      -3.460  13.908  21.535  0.00  0.00    +0.000 C 
ATOM     14  C   UNL     1      -2.499  15.117  21.431  0.00  0.00    +0.000 C 
ATOM     15  C   UNL     1      -2.729  12.554  21.187  0.00  0.00    +0.000 C 
ATOM     16  C   UNL     1      -2.048  12.551  19.789  0.00  0.00    +0.000 C 
ATOM     17  C   UNL     1      -1.198  11.304  19.488  0.00  0.00    +0.000 C 
ATOM     18  C   UNL     1      -0.213  11.021  20.631  0.00  0.00    +0.000 C 
ATOM     19  C   UNL     1       0.834  12.155  20.749  0.00  0.00    +0.000 C 
ENDROOT
BRANCH   1  23
ATOM     20  C   UNL     1       2.499   7.917  18.262  0.00  0.00    +0.000 A 
ATOM     21  N   UNL     1       2.229   8.994  17.511  0.00  0.00    +0.000 NA
ATOM     22  O   UNL     1       1.439   9.779  18.328  0.00  0.00    +0.000 OA
ATOM     23  C   UNL     1       1.283   9.122  19.531  0.00  0.00    +0.000 A 
ATOM     24  N   UNL     1       1.925   7.965  19.515  0.00  0.00    +0.000 NA
BRANCH  20  28
ATOM     25  C   UNL     1       4.767   4.612  16.754  0.00  0.00    +0.000 A 
ATOM     26  C   UNL     1       5.218   5.919  16.578  0.00  0.00    +0.000 A 
ATOM     27  C   UNL     1       4.502   6.993  17.114  0.00  0.00    +0.000 A 
ATOM     28  C   UNL     1       3.286   6.784  17.783  0.00  0.00    +0.000 A 
ATOM     29  C   UNL     1       2.832   5.467  17.943  0.00  0.00    +0.000 A 
ATOM     30  C   UNL     1       3.567   4.389  17.431  0.00  0.00    +0.000 A 
BRANCH  25  32
ATOM     31  C   UNL     1       6.102   3.948  14.926  0.00  0.00    +0.000 C 
ATOM     32  O   UNL     1       5.556   3.640  16.204  0.00  0.00    +0.000 OA
ENDBRANCH  25  32
ENDBRANCH  20  28
ENDBRANCH   1  23
BRANCH  10  33
ATOM     33  O   UNL     1      -7.038  16.088  22.627  0.00  0.00    +0.000 OA
ATOM     34  H   UNL     1      -7.769  15.733  23.161  0.00  0.00    +0.000 HD
ENDBRANCH  10  33
TORSDOF 4
ENDMDL
MODEL 2
REMARK VINA RESULT:      -8.6      1.378      2.702
REMARK  Name = 
REMARK  7 active torsions:
REMARK  status: ('A' for Active; 'I' for Inactive)
REMARK    1  A    between atoms: C_1  and  O_2
REMARK    2  A    between atoms: O_2  and  C_3
REMARK    3  A    between atoms: C_6  and  C_7
REMARK    4  A    between atoms: C_10  and  C_11
REMARK    5  A    between atoms: C_20  and  O_21
REMARK    6  A    between atoms: C_24  and  C_25
REMARK    7  A    between atoms: C_29  and  C_30
REMARK                            x       y       z     vdW  Elec       q    Type
REMARK                         _______ _______ _______ _____ _____    ______ ____
ROOT
ATOM      1  C   UNL     1       1.247  10.433  19.062  0.00  0.00    +0.000 C 
ATOM      2  C   UNL     1       1.714  11.472  18.343  0.00  0.00    +0.000 C 
ATOM      3  C   UNL     1       0.879  12.715  18.525  0.00  0.00    +0.000 C 
ATOM      4  C   UNL     1       0.203  12.379  19.846  0.00  0.00    +0.000 C 
ATOM      5  C   UNL     1      -1.052  13.131  20.309  0.00  0.00    +0.000 C 
ATOM      6  C   UNL     1      -0.843  14.653  20.309  0.00  0.00    +0.000 C 
ATOM      7  C   UNL     1      -1.860  15.397  21.121  0.00  0.00    +0.000 C 
ATOM      8  C   UNL     1      -2.716  14.829  21.992  0.00  0.00    +0.000 C 
ATOM      9  C   UNL     1      -3.718  15.679  22.746  0.00  0.00    +0.000 C 
ATOM     10  C   UNL     1      -3.695  15.401  24.250  0.00  0.00    +0.000 C 
ATOM     11  C   UNL     1      -3.870  13.913  24.537  0.00  0.00    +0.000 C 
ATOM     12  C   UNL     1      -2.797  13.092  23.824  0.00  0.00    +0.000 C 
ATOM     13  C   UNL     1      -2.731  13.321  22.284  0.00  0.00    +0.000 C 
ATOM     14  C   UNL     1      -3.991  12.720  21.617  0.00  0.00    +0.000 C 
ATOM     15  C   UNL     1      -1.411  12.644  21.747  0.00  0.00    +0.000 C 
ATOM     16  C   UNL     1      -1.389  11.098  21.908  0.00  0.00    +0.000 C 
ATOM     17  C   UNL     1      -0.185  10.398  21.253  0.00  0.00    +0.000 C 
ATOM     18  C   UNL     1      -0.014  10.848  19.796  0.00  0.00    +0.000 C 
ATOM     19  C   UNL     1      -1.215  10.390  18.932  0.00  0.00    +0.000 C 
ENDROOT
BRANCH   1  23
ATOM     20  C   UNL     1       2.802   7.330  18.365  0.00  0.00    +0.000 A 
ATOM     21  N   UNL     1       2.311   7.035  19.575  0.00  0.00    +0.000 NA
ATOM     22  O   UNL     1       1.684   8.200  19.973  0.00  0.00    +0.000 OA
ATOM     23  C   UNL     1       1.835   9.131  18.966  0.00  0.00    +0.000 A 
ATOM     24  N   UNL     1       2.528   8.620  17.961  0.00  0.00    +0.000 NA
BRANCH  20  28
ATOM     25  C   UNL     1       5.175   4.557  16.123  0.00  0.00    +0.000 A 
ATOM     26  C   UNL     1       4.175   4.102  16.980  0.00  0.00    +0.000 A 
ATOM     27  C   UNL     1       3.369   5.009  17.673  0.00  0.00    +0.000 A 
ATOM     28  C   UNL     1       3.590   6.391  17.569  0.00  0.00    +0.000 A 
ATOM     29  C   UNL     1       4.608   6.841  16.717  0.00  0.00    +0.000 A 
ATOM     30  C   UNL     1       5.396   5.930  15.999  0.00  0.00    +0.000 A 
BRANCH  25  32
ATOM     31  C   UNL     1       6.322   3.907  14.168  0.00  0.00    +0.000 C 
ATOM     32  O   UNL     1       5.889   3.581  15.484  0.00  0.00    +0.000 OA
ENDBRANCH  25  32
ENDBRANCH  20  28
ENDBRANCH   1  23
BRANCH  10  33
ATOM     33  O   UNL     1      -4.731  16.132  24.901  0.00  0.00    +0.000 OA
ATOM     34  H   UNL     1      -4.330  16.636  25.629  0.00  0.00    +0.000 HD
ENDBRANCH  10  33
TORSDOF 4
ENDMDL
MODEL 3
REMARK VINA RESULT:      -8.3      0.895      1.269
REMARK  Name = 
REMARK  7 active torsions:
REMARK  status: ('A' for Active; 'I' for Inactive)
REMARK    1  A    between atoms: C_1  and  O_2
REMARK    2  A    between atoms: O_2  and  C_3
REMARK    3  A    between atoms: C_6  and  C_7
REMARK    4  A    between atoms: C_10  and  C_11
REMARK    5  A    between atoms: C_20  and  O_21
REMARK    6  A    between atoms: C_24  and  C_25
REMARK    7  A    between atoms: C_29  and  C_30
REMARK                            x       y       z     vdW  Elec       q    Type
REMARK                         _______ _______ _______ _____ _____    ______ ____
ROOT
ATOM      1  C   UNL     1       0.137  10.147  20.936  0.00  0.00    +0.000 C 
ATOM      2  C   UNL     1       0.117   9.637  22.183  0.00  0.00    +0.000 C 
ATOM      3  C   UNL     1      -0.687  10.485  23.135  0.00  0.00    +0.000 C 
ATOM      4  C   UNL     1      -1.550  11.246  22.138  0.00  0.00    +0.000 C 
ATOM      5  C   UNL     1      -2.286  12.530  22.541  0.00  0.00    +0.000 C 
ATOM      6  C   UNL     1      -3.156  12.325  23.791  0.00  0.00    +0.000 C 
ATOM      7  C   UNL     1      -4.189  13.395  23.983  0.00  0.00    +0.000 C 
ATOM      8  C   UNL     1      -4.538  14.304  23.054  0.00  0.00    +0.000 C 
ATOM      9  C   UNL     1      -5.584  15.355  23.366  0.00  0.00    +0.000 C 
ATOM     10  C   UNL     1      -6.668  15.429  22.289  0.00  0.00    +0.000 C 
ATOM     11  C   UNL     1      -6.056  15.618  20.905  0.00  0.00    +0.000 C 
ATOM     12  C   UNL     1      -5.064  14.499  20.591  0.00  0.00    +0.000 C 
ATOM     13  C   UNL     1      -3.928  14.333  21.645  0.00  0.00    +0.000 C 
ATOM     14  C   UNL     1      -2.970  15.546  21.568  0.00  0.00    +0.000 C 
ATOM     15  C   UNL     1      -3.177  12.980  21.343  0.00  0.00    +0.000 C 
ATOM     16  C   UNL     1      -2.438  12.965  19.974  0.00  0.00    +0.000 C 
ATOM     17  C   UNL     1      -1.570  11.719  19.724  0.00  0.00    +0.000 C 
ATOM     18  C   UNL     1      -0.633  11.454  20.909  0.00  0.00    +0.000 C 
ATOM     19  C   UNL     1       0.403  12.595  21.059  0.00  0.00    +0.000 C 
ENDROOT
BRANCH   1  23
ATOM     20  C   UNL     1       2.094   8.284  18.650  0.00  0.00    +0.000 A 
ATOM     21  N   UNL     1       2.124   9.463  18.017  0.00  0.00    +0.000 NA
ATOM     22  O   UNL     1       1.361  10.291  18.818  0.00  0.00    +0.000 OA
ATOM     23  C   UNL     1       0.917   9.551  19.895  0.00  0.00    +0.000 A 
ATOM     24  N   UNL     1       1.353   8.304  19.812  0.00  0.00    +0.000 NA
BRANCH  20  28
ATOM     25  C   UNL     1       4.042   4.738  17.245  0.00  0.00    +0.000 A 
ATOM     26  C   UNL     1       2.805   4.661  17.882  0.00  0.00    +0.000 A 
ATOM     27  C   UNL     1       2.148   5.822  18.295  0.00  0.00    +0.000 A 
ATOM     28  C   UNL     1       2.746   7.082  18.136  0.00  0.00    +0.000 A 
ATOM     29  C   UNL     1       3.998   7.150  17.508  0.00  0.00    +0.000 A 
ATOM     30  C   UNL     1       4.642   5.985  17.066  0.00  0.00    +0.000 A 
BRANCH  25  32
ATOM     31  C   UNL     1       4.025   2.393  17.499  0.00  0.00    +0.000 C 
ATOM     32  O   UNL     1       4.583   3.540  16.867  0.00  0.00    +0.000 OA
ENDBRANCH  25  32
ENDBRANCH  20  28
ENDBRANCH   1  23
BRANCH  10  33
ATOM     33  O   UNL     1      -7.560  16.507  22.562  0.00  0.00    +0.000 OA
ATOM     34  H   UNL     1      -7.651  17.033  21.750  0.00  0.00    +0.000 HD
ENDBRANCH  10  33
TORSDOF 4
ENDMDL
MODEL 4
REMARK VINA RESULT:      -8.2      1.978      3.100
REMARK  Name = 
REMARK  7 active torsions:
REMARK  status: ('A' for Active; 'I' for Inactive)
REMARK    1  A    between atoms: C_1  and  O_2
REMARK    2  A    between atoms: O_2  and  C_3
REMARK    3  A    between atoms: C_6  and  C_7
REMARK    4  A    between atoms: C_10  and  C_11
REMARK    5  A    between atoms: C_20  and  O_21
REMARK    6  A    between atoms: C_24  and  C_25
REMARK    7  A    between atoms: C_29  and  C_30
REMARK                            x       y       z     vdW  Elec       q    Type
REMARK                         _______ _______ _______ _____ _____    ______ ____
ROOT
ATOM      1  C   UNL     1       1.359  11.160  18.775  0.00  0.00    +0.000 C 
ATOM      2  C   UNL     1       2.015  12.257  18.351  0.00  0.00    +0.000 C 
ATOM      3  C   UNL     1       1.303  13.531  18.731  0.00  0.00    +0.000 C 
ATOM      4  C   UNL     1       0.446  13.015  19.879  0.00  0.00    +0.000 C 
ATOM      5  C   UNL     1      -0.765  13.809  20.384  0.00  0.00    +0.000 C 
ATOM      6  C   UNL     1      -0.395  15.256  20.742  0.00  0.00    +0.000 C 
ATOM      7  C   UNL     1      -1.414  15.938  21.607  0.00  0.00    +0.000 C 
ATOM      8  C   UNL     1      -2.420  15.316  22.249  0.00  0.00    +0.000 C 
ATOM      9  C   UNL     1      -3.405  16.111  23.081  0.00  0.00    +0.000 C 
ATOM     10  C   UNL     1      -3.585  15.521  24.481  0.00  0.00    +0.000 C 
ATOM     11  C   UNL     1      -3.950  14.041  24.413  0.00  0.00    +0.000 C 
ATOM     12  C   UNL     1      -2.897  13.257  23.632  0.00  0.00    +0.000 C 
ATOM     13  C   UNL     1      -2.630  13.795  22.195  0.00  0.00    +0.000 C 
ATOM     14  C   UNL     1      -3.862  13.517  21.301  0.00  0.00    +0.000 C 
ATOM     15  C   UNL     1      -1.337  13.081  21.640  0.00  0.00    +0.000 C 
ATOM     16  C   UNL     1      -1.501  11.546  21.452  0.00  0.00    +0.000 C 
ATOM     17  C   UNL     1      -0.311  10.850  20.768  0.00  0.00    +0.000 C 
ATOM     18  C   UNL     1       0.074  11.571  19.469  0.00  0.00    +0.000 C 
ATOM     19  C   UNL     1      -1.062  11.465  18.422  0.00  0.00    +0.000 C 
ENDROOT
BRANCH   1  23
ATOM     20  C   UNL     1       2.377   7.788  18.418  0.00  0.00    +0.000 A 
ATOM     21  N   UNL     1       2.801   8.247  17.233  0.00  0.00    +0.000 NA
ATOM     22  O   UNL     1       2.436   9.580  17.242  0.00  0.00    +0.000 OA
ATOM     23  C   UNL     1       1.811   9.843  18.444  0.00  0.00    +0.000 A 
ATOM     24  N   UNL     1       1.757   8.749  19.188  0.00  0.00    +0.000 NA
BRANCH  20  28
ATOM     25  C   UNL     1       2.693   3.678  19.580  0.00  0.00    +0.000 A 
ATOM     26  C   UNL     1       3.102   4.089  18.312  0.00  0.00    +0.000 A 
ATOM     27  C   UNL     1       3.044   5.438  17.952  0.00  0.00    +0.000 A 
ATOM     28  C   UNL     1       2.517   6.395  18.833  0.00  0.00    +0.000 A 
ATOM     29  C   UNL     1       2.094   5.971  20.101  0.00  0.00    +0.000 A 
ATOM     30  C   UNL     1       2.181   4.622  20.471  0.00  0.00    +0.000 A 
BRANCH  25  32
ATOM     31  C   UNL     1       3.379   1.570  18.774  0.00  0.00    +0.000 C 
ATOM     32  O   UNL     1       2.812   2.339  19.829  0.00  0.00    +0.000 OA
ENDBRANCH  25  32
ENDBRANCH  20  28
ENDBRANCH   1  23
BRANCH  10  33
ATOM     33  O   UNL     1      -4.605  16.227  25.185  0.00  0.00    +0.000 OA
ATOM     34  H   UNL     1      -4.254  17.102  25.423  0.00  0.00    +0.000 HD
ENDBRANCH  10  33
TORSDOF 4
ENDMDL
MODEL 5
REMARK VINA RESULT:      -8.1      2.044      3.338
REMARK  Name = 
REMARK  7 active torsions:
REMARK  status: ('A' for Active; 'I' for Inactive)
REMARK    1  A    between atoms: C_1  and  O_2
REMARK    2  A    between atoms: O_2  and  C_3
REMARK    3  A    between atoms: C_6  and  C_7
REMARK    4  A    between atoms: C_10  and  C_11
REMARK    5  A    between atoms: C_20  and  O_21
REMARK    6  A    between atoms: C_24  and  C_25
REMARK    7  A    between atoms: C_29  and  C_30
REMARK                            x       y       z     vdW  Elec       q    Type
REMARK                         _______ _______ _______ _____ _____    ______ ____
ROOT
ATOM      1  C   UNL     1       1.113  11.463  18.914  0.00  0.00    +0.000 C 
ATOM      2  C   UNL     1       1.815  12.547  18.532  0.00  0.00    +0.000 C 
ATOM      3  C   UNL     1       1.114  13.835  18.884  0.00  0.00    +0.000 C 
ATOM      4  C   UNL     1       0.189  13.333  19.983  0.00  0.00    +0.000 C 
ATOM      5  C   UNL     1      -1.028  14.152  20.432  0.00  0.00    +0.000 C 
ATOM      6  C   UNL     1      -0.643  15.588  20.819  0.00  0.00    +0.000 C 
ATOM      7  C   UNL     1      -1.688  16.289  21.636  0.00  0.00    +0.000 C 
ATOM      8  C   UNL     1      -2.740  15.686  22.221  0.00  0.00    +0.000 C 
ATOM      9  C   UNL     1      -3.747  16.499  23.008  0.00  0.00    +0.000 C 
ATOM     10  C   UNL     1      -4.012  15.906  24.393  0.00  0.00    +0.000 C 
ATOM     11  C   UNL     1      -4.408  14.436  24.295  0.00  0.00    +0.000 C 
ATOM     12  C   UNL     1      -3.335  13.631  23.564  0.00  0.00    +0.000 C 
ATOM     13  C   UNL     1      -2.982  14.172  22.146  0.00  0.00    +0.000 C 
ATOM     14  C   UNL     1      -4.174  13.928  21.188  0.00  0.00    +0.000 C 
ATOM     15  C   UNL     1      -1.680  13.430  21.652  0.00  0.00    +0.000 C 
ATOM     16  C   UNL     1      -1.870  11.901  21.445  0.00  0.00    +0.000 C 
ATOM     17  C   UNL     1      -0.664  11.181  20.817  0.00  0.00    +0.000 C 
ATOM     18  C   UNL     1      -0.196  11.900  19.544  0.00  0.00    +0.000 C 
ATOM     19  C   UNL     1      -1.279  11.828  18.440  0.00  0.00    +0.000 C 
ENDROOT
BRANCH   1  23
ATOM     20  C   UNL     1       2.107   8.080  18.595  0.00  0.00    +0.000 A 
ATOM     21  N   UNL     1       2.499   8.514  17.390  0.00  0.00    +0.000 NA
ATOM     22  O   UNL     1       2.139   9.848  17.382  0.00  0.00    +0.000 OA
ATOM     23  C   UNL     1       1.550  10.137  18.597  0.00  0.00    +0.000 A 
ATOM     24  N   UNL     1       1.514   9.060  19.363  0.00  0.00    +0.000 NA
BRANCH  20  28
ATOM     25  C   UNL     1       2.632   4.047  19.937  0.00  0.00    +0.000 A 
ATOM     26  C   UNL     1       2.091   5.011  20.785  0.00  0.00    +0.000 A 
ATOM     27  C   UNL     1       1.874   6.314  20.330  0.00  0.00    +0.000 A 
ATOM     28  C   UNL     1       2.254   6.695  19.034  0.00  0.00    +0.000 A 
ATOM     29  C   UNL     1       2.812   5.724  18.191  0.00  0.00    +0.000 A 
ATOM     30  C   UNL     1       3.001   4.409  18.640  0.00  0.00    +0.000 A 
BRANCH  25  32
ATOM     31  C   UNL     1       1.982   2.539  21.630  0.00  0.00    +0.000 C 
ATOM     32  O   UNL     1       2.783   2.802  20.482  0.00  0.00    +0.000 OA
ENDBRANCH  25  32
ENDBRANCH  20  28
ENDBRANCH   1  23
BRANCH  10  33
ATOM     33  O   UNL     1      -5.049  16.631  25.049  0.00  0.00    +0.000 OA
ATOM     34  H   UNL     1      -5.801  16.028  25.178  0.00  0.00    +0.000 HD
ENDBRANCH  10  33
TORSDOF 4
ENDMDL
MODEL 6
REMARK VINA RESULT:      -7.8      1.339      2.711
REMARK  Name = 
REMARK  7 active torsions:
REMARK  status: ('A' for Active; 'I' for Inactive)
REMARK    1  A    between atoms: C_1  and  O_2
REMARK    2  A    between atoms: O_2  and  C_3
REMARK    3  A    between atoms: C_6  and  C_7
REMARK    4  A    between atoms: C_10  and  C_11
REMARK    5  A    between atoms: C_20  and  O_21
REMARK    6  A    between atoms: C_24  and  C_25
REMARK    7  A    between atoms: C_29  and  C_30
REMARK                            x       y       z     vdW  Elec       q    Type
REMARK                         _______ _______ _______ _____ _____    ______ ____
ROOT
ATOM      1  C   UNL     1       0.827  11.079  19.294  0.00  0.00    +0.000 C 
ATOM      2  C   UNL     1       1.388  12.047  18.545  0.00  0.00    +0.000 C 
ATOM      3  C   UNL     1       0.599  13.332  18.585  0.00  0.00    +0.000 C 
ATOM      4  C   UNL     1      -0.181  13.114  19.874  0.00  0.00    +0.000 C 
ATOM      5  C   UNL     1      -1.429  13.945  20.197  0.00  0.00    +0.000 C 
ATOM      6  C   UNL     1      -1.152  15.454  20.113  0.00  0.00    +0.000 C 
ATOM      7  C   UNL     1      -2.189  16.292  20.800  0.00  0.00    +0.000 C 
ATOM      8  C   UNL     1      -3.127  15.819  21.642  0.00  0.00    +0.000 C 
ATOM      9  C   UNL     1      -4.139  16.758  22.266  0.00  0.00    +0.000 C 
ATOM     10  C   UNL     1      -4.232  16.582  23.783  0.00  0.00    +0.000 C 
ATOM     11  C   UNL     1      -4.492  15.125  24.153  0.00  0.00    +0.000 C 
ATOM     12  C   UNL     1      -3.411  14.215  23.572  0.00  0.00    +0.000 C 
ATOM     13  C   UNL     1      -3.229  14.337  22.030  0.00  0.00    +0.000 C 
ATOM     14  C   UNL     1      -4.466  13.743  21.314  0.00  0.00    +0.000 C 
ATOM     15  C   UNL     1      -1.907  13.572  21.634  0.00  0.00    +0.000 C 
ATOM     16  C   UNL     1      -1.966  12.041  21.895  0.00  0.00    +0.000 C 
ATOM     17  C   UNL     1      -0.753  11.251  21.375  0.00  0.00    +0.000 C 
ATOM     18  C   UNL     1      -0.462  11.593  19.908  0.00  0.00    +0.000 C 
ATOM     19  C   UNL     1      -1.619  11.126  18.992  0.00  0.00    +0.000 C 
ENDROOT
BRANCH   1  23
ATOM     20  C   UNL     1       2.223   7.850  18.895  0.00  0.00    +0.000 A 
ATOM     21  N   UNL     1       1.802   7.726  20.161  0.00  0.00    +0.000 NA
ATOM     22  O   UNL     1       1.244   8.957  20.448  0.00  0.00    +0.000 OA
ATOM     23  C   UNL     1       1.361   9.751  19.325  0.00  0.00    +0.000 A 
ATOM     24  N   UNL     1       1.968   9.092  18.352  0.00  0.00    +0.000 NA
BRANCH  20  28
ATOM     25  C   UNL     1       4.325   4.707  16.884  0.00  0.00    +0.000 A 
ATOM     26  C   UNL     1       3.176   4.431  17.623  0.00  0.00    +0.000 A 
ATOM     27  C   UNL     1       2.464   5.464  18.237  0.00  0.00    +0.000 A 
ATOM     28  C   UNL     1       2.923   6.789  18.176  0.00  0.00    +0.000 A 
ATOM     29  C   UNL     1       4.088   7.057  17.444  0.00  0.00    +0.000 A 
ATOM     30  C   UNL     1       4.785   6.022  16.803  0.00  0.00    +0.000 A 
BRANCH  25  32
ATOM     31  C   UNL     1       6.071   3.912  15.512  0.00  0.00    +0.000 C 
ATOM     32  O   UNL     1       4.930   3.622  16.312  0.00  0.00    +0.000 OA
ENDBRANCH  25  32
ENDBRANCH  20  28
ENDBRANCH   1  23
BRANCH  10  33
ATOM     33  O   UNL     1      -5.276  17.397  24.309  0.00  0.00    +0.000 OA
ATOM     34  H   UNL     1      -4.937  18.305  24.389  0.00  0.00    +0.000 HD
ENDBRANCH  10  33
TORSDOF 4
ENDMDL
MODEL 7
REMARK VINA RESULT:      -7.6      1.386      1.503
REMARK  Name = 
REMARK  7 active torsions:
REMARK  status: ('A' for Active; 'I' for Inactive)
REMARK    1  A    between atoms: C_1  and  O_2
REMARK    2  A    between atoms: O_2  and  C_3
REMARK    3  A    between atoms: C_6  and  C_7
REMARK    4  A    between atoms: C_10  and  C_11
REMARK    5  A    between atoms: C_20  and  O_21
REMARK    6  A    between atoms: C_24  and  C_25
REMARK    7  A    between atoms: C_29  and  C_30
REMARK                            x       y       z     vdW  Elec       q    Type
REMARK                         _______ _______ _______ _____ _____    ______ ____
ROOT
ATOM      1  C   UNL     1       0.265   9.660  21.253  0.00  0.00    +0.000 C 
ATOM      2  C   UNL     1       0.198   9.340  22.560  0.00  0.00    +0.000 C 
ATOM      3  C   UNL     1      -0.562  10.367  23.361  0.00  0.00    +0.000 C 
ATOM      4  C   UNL     1      -1.362  11.024  22.245  0.00  0.00    +0.000 C 
ATOM      5  C   UNL     1      -2.019  12.397  22.442  0.00  0.00    +0.000 C 
ATOM      6  C   UNL     1      -2.915  12.431  23.689  0.00  0.00    +0.000 C 
ATOM      7  C   UNL     1      -3.880  13.579  23.702  0.00  0.00    +0.000 C 
ATOM      8  C   UNL     1      -4.159  14.362  22.643  0.00  0.00    +0.000 C 
ATOM      9  C   UNL     1      -5.139  15.510  22.776  0.00  0.00    +0.000 C 
ATOM     10  C   UNL     1      -6.203  15.492  21.677  0.00  0.00    +0.000 C 
ATOM     11  C   UNL     1      -5.563  15.438  20.293  0.00  0.00    +0.000 C 
ATOM     12  C   UNL     1      -4.641  14.226  20.167  0.00  0.00    +0.000 C 
ATOM     13  C   UNL     1      -3.532  14.147  21.258  0.00  0.00    +0.000 C 
ATOM     14  C   UNL     1      -2.496  15.274  21.025  0.00  0.00    +0.000 C 
ATOM     15  C   UNL     1      -2.865  12.720  21.172  0.00  0.00    +0.000 C 
ATOM     16  C   UNL     1      -2.112  12.459  19.836  0.00  0.00    +0.000 C 
ATOM     17  C   UNL     1      -1.323  11.139  19.788  0.00  0.00    +0.000 C 
ATOM     18  C   UNL     1      -0.419  10.994  21.019  0.00  0.00    +0.000 C 
ATOM     19  C   UNL     1       0.686  12.078  21.023  0.00  0.00    +0.000 C 
ENDROOT
BRANCH   1  23
ATOM     20  C   UNL     1       2.074   7.344  19.279  0.00  0.00    +0.000 A 
ATOM     21  N   UNL     1       2.331   8.449  18.568  0.00  0.00    +0.000 NA
ATOM     22  O   UNL     1       1.647   9.444  19.240  0.00  0.00    +0.000 OA
ATOM     23  C   UNL     1       1.018   8.870  20.327  0.00  0.00    +0.000 A 
ATOM     24  N   UNL     1       1.262   7.571  20.371  0.00  0.00    +0.000 NA
BRANCH  20  28
ATOM     25  C   UNL     1       3.608   3.513  18.134  0.00  0.00    +0.000 A 
ATOM     26  C   UNL     1       4.201   4.231  19.170  0.00  0.00    +0.000 A 
ATOM     27  C   UNL     1       3.669   5.458  19.575  0.00  0.00    +0.000 A 
ATOM     28  C   UNL     1       2.569   6.020  18.909  0.00  0.00    +0.000 A 
ATOM     29  C   UNL     1       1.987   5.298  17.858  0.00  0.00    +0.000 A 
ATOM     30  C   UNL     1       2.504   4.053  17.472  0.00  0.00    +0.000 A 
BRANCH  25  32
ATOM     31  C   UNL     1       3.854   1.234  18.690  0.00  0.00    +0.000 C 
ATOM     32  O   UNL     1       4.201   2.317  17.835  0.00  0.00    +0.000 OA
ENDBRANCH  25  32
ENDBRANCH  20  28
ENDBRANCH   1  23
BRANCH  10  33
ATOM     33  O   UNL     1      -7.027  16.651  21.771  0.00  0.00    +0.000 OA
ATOM     34  H   UNL     1      -6.474  17.428  21.580  0.00  0.00    +0.000 HD
ENDBRANCH  10  33
TORSDOF 4
ENDMDL
MODEL 8
REMARK VINA RESULT:      -7.6      2.006      3.200
REMARK  Name = 
REMARK  7 active torsions:
REMARK  status: ('A' for Active; 'I' for Inactive)
REMARK    1  A    between atoms: C_1  and  O_2
REMARK    2  A    between atoms: O_2  and  C_3
REMARK    3  A    between atoms: C_6  and  C_7
REMARK    4  A    between atoms: C_10  and  C_11
REMARK    5  A    between atoms: C_20  and  O_21
REMARK    6  A    between atoms: C_24  and  C_25
REMARK    7  A    between atoms: C_29  and  C_30
REMARK                            x       y       z     vdW  Elec       q    Type
REMARK                         _______ _______ _______ _____ _____    ______ ____
ROOT
ATOM      1  C   UNL     1      -0.166  10.381  18.811  0.00  0.00    +0.000 C 
ATOM      2  C   UNL     1      -1.330  10.381  18.134  0.00  0.00    +0.000 C 
ATOM      3  C   UNL     1      -2.364  11.275  18.773  0.00  0.00    +0.000 C 
ATOM      4  C   UNL     1      -1.451  12.180  19.589  0.00  0.00    +0.000 C 
ATOM      5  C   UNL     1      -2.002  13.033  20.740  0.00  0.00    +0.000 C 
ATOM      6  C   UNL     1      -3.184  13.906  20.293  0.00  0.00    +0.000 C 
ATOM      7  C   UNL     1      -3.487  15.031  21.237  0.00  0.00    +0.000 C 
ATOM      8  C   UNL     1      -2.679  15.440  22.233  0.00  0.00    +0.000 C 
ATOM      9  C   UNL     1      -3.098  16.578  23.140  0.00  0.00    +0.000 C 
ATOM     10  C   UNL     1      -2.007  17.643  23.271  0.00  0.00    +0.000 C 
ATOM     11  C   UNL     1      -0.681  17.023  23.700  0.00  0.00    +0.000 C 
ATOM     12  C   UNL     1      -0.250  15.932  22.721  0.00  0.00    +0.000 C 
ATOM     13  C   UNL     1      -1.307  14.807  22.507  0.00  0.00    +0.000 C 
ATOM     14  C   UNL     1      -1.425  13.956  23.794  0.00  0.00    +0.000 C 
ATOM     15  C   UNL     1      -0.848  13.935  21.275  0.00  0.00    +0.000 C 
ATOM     16  C   UNL     1       0.486  13.171  21.510  0.00  0.00    +0.000 C 
ATOM     17  C   UNL     1       0.876  12.194  20.387  0.00  0.00    +0.000 C 
ATOM     18  C   UNL     1      -0.292  11.261  20.041  0.00  0.00    +0.000 C 
ATOM     19  C   UNL     1      -0.627  10.330  21.232  0.00  0.00    +0.000 C 
ENDROOT
BRANCH   1  23
ATOM     20  C   UNL     1       2.412   8.018  18.262  0.00  0.00    +0.000 A 
ATOM     21  N   UNL     1       2.759   8.908  17.323  0.00  0.00    +0.000 NA
ATOM     22  O   UNL     1       1.795   9.892  17.425  0.00  0.00    +0.000 OA
ATOM     23  C   UNL     1       0.922   9.532  18.430  0.00  0.00    +0.000 A 
ATOM     24  N   UNL     1       1.278   8.374  18.961  0.00  0.00    +0.000 NA
BRANCH  20  28
ATOM     25  C   UNL     1       4.596   4.413  19.023  0.00  0.00    +0.000 A 
ATOM     26  C   UNL     1       3.479   4.739  19.789  0.00  0.00    +0.000 A 
ATOM     27  C   UNL     1       2.739   5.890  19.508  0.00  0.00    +0.000 A 
ATOM     28  C   UNL     1       3.139   6.772  18.492  0.00  0.00    +0.000 A 
ATOM     29  C   UNL     1       4.272   6.444  17.735  0.00  0.00    +0.000 A 
ATOM     30  C   UNL     1       4.997   5.273  17.999  0.00  0.00    +0.000 A 
BRANCH  25  32
ATOM     31  C   UNL     1       4.421   2.291  20.038  0.00  0.00    +0.000 C 
ATOM     32  O   UNL     1       5.232   3.255  19.375  0.00  0.00    +0.000 OA
ENDBRANCH  25  32
ENDBRANCH  20  28
ENDBRANCH   1  23
BRANCH  10  33
ATOM     33  O   UNL     1      -2.395  18.630  24.224  0.00  0.00    +0.000 OA
ATOM     34  H   UNL     1      -3.321  18.869  24.047  0.00  0.00    +0.000 HD
ENDBRANCH  10  33
TORSDOF 4
ENDMDL
MODEL 9
REMARK VINA RESULT:      -7.5      1.347      2.462
REMARK  Name = 
REMARK  7 active torsions:
REMARK  status: ('A' for Active; 'I' for Inactive)
REMARK    1  A    between atoms: C_1  and  O_2
REMARK    2  A    between atoms: O_2  and  C_3
REMARK    3  A    between atoms: C_6  and  C_7
REMARK    4  A    between atoms: C_10  and  C_11
REMARK    5  A    between atoms: C_20  and  O_21
REMARK    6  A    between atoms: C_24  and  C_25
REMARK    7  A    between atoms: C_29  and  C_30
REMARK                            x       y       z     vdW  Elec       q    Type
REMARK                         _______ _______ _______ _____ _____    ______ ____
ROOT
ATOM      1  C   UNL     1      -0.229  10.277  18.523  0.00  0.00    +0.000 C 
ATOM      2  C   UNL     1      -1.261  10.308  17.658  0.00  0.00    +0.000 C 
ATOM      3  C   UNL     1      -2.513  10.874  18.281  0.00  0.00    +0.000 C 
ATOM      4  C   UNL     1      -1.897  11.644  19.441  0.00  0.00    +0.000 C 
ATOM      5  C   UNL     1      -2.749  12.099  20.633  0.00  0.00    +0.000 C 
ATOM      6  C   UNL     1      -3.978  12.906  20.186  0.00  0.00    +0.000 C 
ATOM      7  C   UNL     1      -4.602  13.706  21.291  0.00  0.00    +0.000 C 
ATOM      8  C   UNL     1      -4.033  13.941  22.488  0.00  0.00    +0.000 C 
ATOM      9  C   UNL     1      -4.767  14.748  23.539  0.00  0.00    +0.000 C 
ATOM     10  C   UNL     1      -3.900  15.868  24.116  0.00  0.00    +0.000 C 
ATOM     11  C   UNL     1      -2.570  15.325  24.631  0.00  0.00    +0.000 C 
ATOM     12  C   UNL     1      -1.822  14.583  23.525  0.00  0.00    +0.000 C 
ATOM     13  C   UNL     1      -2.633  13.431  22.861  0.00  0.00    +0.000 C 
ATOM     14  C   UNL     1      -2.803  12.270  23.871  0.00  0.00    +0.000 C 
ATOM     15  C   UNL     1      -1.855  12.968  21.570  0.00  0.00    +0.000 C 
ATOM     16  C   UNL     1      -0.465  12.338  21.868  0.00  0.00    +0.000 C 
ATOM     17  C   UNL     1       0.247  11.737  20.643  0.00  0.00    +0.000 C 
ATOM     18  C   UNL     1      -0.684  10.789  19.877  0.00  0.00    +0.000 C 
ATOM     19  C   UNL     1      -1.038   9.550  20.736  0.00  0.00    +0.000 C 
ENDROOT
BRANCH   1  23
ATOM     20  C   UNL     1       2.679   8.408  17.762  0.00  0.00    +0.000 A 
ATOM     21  N   UNL     1       3.201   9.637  17.650  0.00  0.00    +0.000 NA
ATOM     22  O   UNL     1       2.135  10.476  17.909  0.00  0.00    +0.000 OA
ATOM     23  C   UNL     1       1.029   9.693  18.168  0.00  0.00    +0.000 A 
ATOM     24  N   UNL     1       1.337   8.410  18.078  0.00  0.00    +0.000 NA
BRANCH  20  28
ATOM     25  C   UNL     1       4.896   4.829  16.972  0.00  0.00    +0.000 A 
ATOM     26  C   UNL     1       5.400   6.072  16.594  0.00  0.00    +0.000 A 
ATOM     27  C   UNL     1       4.699   7.242  16.897  0.00  0.00    +0.000 A 
ATOM     28  C   UNL     1       3.447   7.187  17.529  0.00  0.00    +0.000 A 
ATOM     29  C   UNL     1       2.940   5.932  17.893  0.00  0.00    +0.000 A 
ATOM     30  C   UNL     1       3.659   4.761  17.615  0.00  0.00    +0.000 A 
BRANCH  25  32
ATOM     31  C   UNL     1       6.108   3.711  15.286  0.00  0.00    +0.000 C 
ATOM     32  O   UNL     1       5.674   3.755  16.641  0.00  0.00    +0.000 OA
ENDBRANCH  25  32
ENDBRANCH  20  28
ENDBRANCH   1  23
BRANCH  10  33
ATOM     33  O   UNL     1      -4.586  16.523  25.181  0.00  0.00    +0.000 OA
ATOM     34  H   UNL     1      -4.243  17.430  25.245  0.00  0.00    +0.000 HD
ENDBRANCH  10  33
TORSDOF 4
ENDMDL
