MODEL 1
REMARK VINA RESULT:      -7.7      0.000      0.000
REMARK  Name = 
REMARK  9 active torsions:
REMARK  status: ('A' for Active; 'I' for Inactive)
REMARK    1  A    between atoms: C_1  and  C_2
REMARK    2  A    between atoms: C_2  and  O_3
REMARK    3  A    between atoms: O_3  and  C_4
REMARK    4  A    between atoms: C_8  and  C_10
REMARK    5  A    between atoms: C_12  and  C_13
REMARK    6  A    between atoms: N_15  and  C_16
REMARK    7  A    between atoms: C_16  and  C_17
REMARK    8  A    between atoms: C_16  and  C_19
REMARK    9  A    between atoms: C_17  and  C_18
REMARK                            x       y       z     vdW  Elec       q    Type
REMARK                         _______ _______ _______ _____ _____    ______ ____
ROOT
ATOM      1  C   UNL     1       0.674  10.864  18.964  0.00  0.00    +0.000 A 
ATOM      2  C   UNL     1       1.421  10.090  18.098  0.00  0.00    +0.000 A 
ATOM      3  C   UNL     1       1.772   8.829  18.696  0.00  0.00    +0.000 A 
ATOM      4  C   UNL     1       1.340   8.926  20.016  0.00  0.00    +0.000 A 
ATOM      5  N   UNL     1       0.743  10.174  20.160  0.00  0.00    +0.000 N 
ATOM      6  C   UNL     1       0.312  10.702  21.448  0.00  0.00    +0.000 C 
ATOM      7  C   UNL     1       0.265   9.620  22.507  0.00  0.00    +0.000 C 
ATOM      8  O   UNL     1       1.400   8.756  22.396  0.00  0.00    +0.000 OA
ATOM      9  C   UNL     1       1.365   7.993  21.178  0.00  0.00    +0.000 C 
ENDROOT
BRANCH   1  14
ATOM     10  C   UNL     1       1.208  15.690  18.869  0.00  0.00    +0.000 C 
ATOM     11  C   UNL     1       2.207  14.951  19.748  0.00  0.00    +0.000 C 
ATOM     12  C   UNL     1       2.146  13.530  19.233  0.00  0.00    +0.000 C 
ATOM     13  N   UNL     1       0.738  13.336  18.945  0.00  0.00    +0.000 N 
ATOM     14  C   UNL     1       0.010  12.167  18.789  0.00  0.00    +0.000 C 
ATOM     15  O   UNL     1      -1.172  12.227  18.452  0.00  0.00    +0.000 OA
ATOM     16  C   UNL     1       0.122  14.625  18.625  0.00  0.00    +0.000 C 
BRANCH  10  17
ATOM     17  O   UNL     1       0.684  16.846  19.523  0.00  0.00    +0.000 OA
BRANCH  17  19
ATOM     18  C   UNL     1       0.849  18.278  17.612  0.00  0.00    +0.000 C 
ATOM     19  C   UNL     1       1.256  18.070  19.058  0.00  0.00    +0.000 C 
ENDBRANCH  17  19
ENDBRANCH  10  17
ENDBRANCH   1  14
BRANCH   3  20
ATOM     20  C   UNL     1       2.430   7.805  17.871  0.00  0.00    +0.000 C 
ATOM     21  O   UNL     1       2.813   8.125  16.745  0.00  0.00    +0.000 OA
ATOM     22  N   UNL     1       2.666   6.529  18.356  0.00  0.00    +0.000 N 
ATOM     23  H   UNL     1       2.657   6.440  19.363  0.00  0.00    +0.000 HD
BRANCH  22  24
ATOM     24  C   UNL     1       3.650   5.713  17.621  0.00  0.00    +0.000 C 
BRANCH  24  25
ATOM     25  C   UNL     1       5.098   6.000  17.992  0.00  0.00    +0.000 A 
ATOM     26  C   UNL     1       5.634   5.373  19.135  0.00  0.00    +0.000 A 
ATOM     27  C   UNL     1       6.978   5.523  19.482  0.00  0.00    +0.000 A 
ATOM     28  C   UNL     1       7.808   6.318  18.698  0.00  0.00    +0.000 A 
ATOM     29  C   UNL     1       7.286   6.983  17.590  0.00  0.00    +0.000 A 
ATOM     30  C   UNL     1       5.939   6.833  17.241  0.00  0.00    +0.000 A 
ENDBRANCH  24  25
BRANCH  24  31
ATOM     31  C   UNL     1       3.309   4.201  17.487  0.00  0.00    +0.000 C 
ATOM     32  C   UNL     1       1.891   3.742  17.794  0.00  0.00    +0.000 C 
ENDBRANCH  24  31
ENDBRANCH  22  24
ENDBRANCH   3  20
TORSDOF 7
ENDMDL
MODEL 2
REMARK VINA RESULT:      -7.5      3.763      6.343
REMARK  Name = 
REMARK  9 active torsions:
REMARK  status: ('A' for Active; 'I' for Inactive)
REMARK    1  A    between atoms: C_1  and  C_2
REMARK    2  A    between atoms: C_2  and  O_3
REMARK    3  A    between atoms: O_3  and  C_4
REMARK    4  A    between atoms: C_8  and  C_10
REMARK    5  A    between atoms: C_12  and  C_13
REMARK    6  A    between atoms: N_15  and  C_16
REMARK    7  A    between atoms: C_16  and  C_17
REMARK    8  A    between atoms: C_16  and  C_19
REMARK    9  A    between atoms: C_17  and  C_18
REMARK                            x       y       z     vdW  Elec       q    Type
REMARK                         _______ _______ _______ _____ _____    ______ ____
ROOT
ATOM      1  C   UNL     1       2.922   5.860  18.864  0.00  0.00    +0.000 A 
ATOM      2  C   UNL     1       4.103   5.863  18.149  0.00  0.00    +0.000 A 
ATOM      3  C   UNL     1       4.261   4.647  17.396  0.00  0.00    +0.000 A 
ATOM      4  C   UNL     1       3.202   3.837  17.798  0.00  0.00    +0.000 A 
ATOM      5  N   UNL     1       2.457   4.566  18.718  0.00  0.00    +0.000 N 
ATOM      6  C   UNL     1       1.358   3.988  19.483  0.00  0.00    +0.000 C 
ATOM      7  C   UNL     1       0.917   2.658  18.909  0.00  0.00    +0.000 C 
ATOM      8  O   UNL     1       2.050   1.875  18.523  0.00  0.00    +0.000 OA
ATOM      9  C   UNL     1       2.749   2.470  17.416  0.00  0.00    +0.000 C 
ENDROOT
BRANCH   1  14
ATOM     10  C   UNL     1       0.916  10.281  18.980  0.00  0.00    +0.000 C 
ATOM     11  C   UNL     1       1.974  10.084  17.903  0.00  0.00    +0.000 C 
ATOM     12  C   UNL     1       2.062   8.580  17.767  0.00  0.00    +0.000 C 
ATOM     13  N   UNL     1       1.930   8.109  19.132  0.00  0.00    +0.000 N 
ATOM     14  C   UNL     1       2.276   6.891  19.694  0.00  0.00    +0.000 C 
ATOM     15  O   UNL     1       1.989   6.660  20.868  0.00  0.00    +0.000 OA
ATOM     16  C   UNL     1       1.153   9.076  19.910  0.00  0.00    +0.000 C 
BRANCH  10  17
ATOM     17  O   UNL     1       1.083  11.523  19.663  0.00  0.00    +0.000 OA
BRANCH  17  19
ATOM     18  C   UNL     1      -0.696  12.617  18.493  0.00  0.00    +0.000 C 
ATOM     19  C   UNL     1      -0.141  12.237  19.852  0.00  0.00    +0.000 C 
ENDBRANCH  17  19
ENDBRANCH  10  17
ENDBRANCH   1  14
BRANCH   3  20
ATOM     20  C   UNL     1       5.378   4.532  16.448  0.00  0.00    +0.000 C 
ATOM     21  O   UNL     1       6.483   4.209  16.889  0.00  0.00    +0.000 OA
ATOM     22  N   UNL     1       5.196   4.728  15.089  0.00  0.00    +0.000 N 
ATOM     23  H   UNL     1       4.244   4.637  14.763  0.00  0.00    +0.000 HD
BRANCH  22  24
ATOM     24  C   UNL     1       6.259   4.224  14.199  0.00  0.00    +0.000 C 
BRANCH  24  25
ATOM     25  C   UNL     1       5.744   3.540  12.941  0.00  0.00    +0.000 A 
ATOM     26  C   UNL     1       6.515   2.501  12.380  0.00  0.00    +0.000 A 
ATOM     27  C   UNL     1       6.060   1.773  11.279  0.00  0.00    +0.000 A 
ATOM     28  C   UNL     1       4.829   2.082  10.709  0.00  0.00    +0.000 A 
ATOM     29  C   UNL     1       4.073   3.134  11.221  0.00  0.00    +0.000 A 
ATOM     30  C   UNL     1       4.528   3.865  12.325  0.00  0.00    +0.000 A 
ENDBRANCH  24  25
BRANCH  24  31
ATOM     31  C   UNL     1       7.455   5.190  13.962  0.00  0.00    +0.000 C 
ATOM     32  C   UNL     1       7.856   5.520  12.531  0.00  0.00    +0.000 C 
ENDBRANCH  24  31
ENDBRANCH  22  24
ENDBRANCH   3  20
TORSDOF 7
ENDMDL
MODEL 3
REMARK VINA RESULT:      -7.4      0.831      1.327
REMARK  Name = 
REMARK  9 active torsions:
REMARK  status: ('A' for Active; 'I' for Inactive)
REMARK    1  A    between atoms: C_1  and  C_2
REMARK    2  A    between atoms: C_2  and  O_3
REMARK    3  A    between atoms: O_3  and  C_4
REMARK    4  A    between atoms: C_8  and  C_10
REMARK    5  A    between atoms: C_12  and  C_13
REMARK    6  A    between atoms: N_15  and  C_16
REMARK    7  A    between atoms: C_16  and  C_17
REMARK    8  A    between atoms: C_16  and  C_19
REMARK    9  A    between atoms: C_17  and  C_18
REMARK                            x       y       z     vdW  Elec       q    Type
REMARK                         _______ _______ _______ _____ _____    ______ ____
ROOT
ATOM      1  C   UNL     1       0.960  11.031  19.012  0.00  0.00    +0.000 A 
ATOM      2  C   UNL     1       1.680  10.211  18.166  0.00  0.00    +0.000 A 
ATOM      3  C   UNL     1       1.851   8.899  18.732  0.00  0.00    +0.000 A 
ATOM      4  C   UNL     1       1.338   8.997  20.023  0.00  0.00    +0.000 A 
ATOM      5  N   UNL     1       0.870  10.297  20.180  0.00  0.00    +0.000 N 
ATOM      6  C   UNL     1       0.408  10.824  21.458  0.00  0.00    +0.000 C 
ATOM      7  C   UNL     1       0.171   9.718  22.464  0.00  0.00    +0.000 C 
ATOM      8  O   UNL     1       1.211   8.739  22.393  0.00  0.00    +0.000 OA
ATOM      9  C   UNL     1       1.181   8.028  21.144  0.00  0.00    +0.000 C 
ENDROOT
BRANCH   1  14
ATOM     10  C   UNL     1       1.988  15.772  19.244  0.00  0.00    +0.000 C 
ATOM     11  C   UNL     1       2.813  14.890  20.172  0.00  0.00    +0.000 C 
ATOM     12  C   UNL     1       2.660  13.510  19.573  0.00  0.00    +0.000 C 
ATOM     13  N   UNL     1       1.276  13.481  19.140  0.00  0.00    +0.000 N 
ATOM     14  C   UNL     1       0.453  12.405  18.849  0.00  0.00    +0.000 C 
ATOM     15  O   UNL     1      -0.676  12.606  18.403  0.00  0.00    +0.000 OA
ATOM     16  C   UNL     1       0.831  14.842  18.836  0.00  0.00    +0.000 C 
BRANCH  10  17
ATOM     17  O   UNL     1       1.520  16.946  19.910  0.00  0.00    +0.000 OA
BRANCH  17  19
ATOM     18  C   UNL     1       0.034  16.950  21.787  0.00  0.00    +0.000 C 
ATOM     19  C   UNL     1       1.474  16.812  21.331  0.00  0.00    +0.000 C 
ENDBRANCH  17  19
ENDBRANCH  10  17
ENDBRANCH   1  14
BRANCH   3  20
ATOM     20  C   UNL     1       2.452   7.838  17.911  0.00  0.00    +0.000 C 
ATOM     21  O   UNL     1       2.695   8.087  16.729  0.00  0.00    +0.000 OA
ATOM     22  N   UNL     1       2.789   6.609  18.452  0.00  0.00    +0.000 N 
ATOM     23  H   UNL     1       2.896   6.594  19.457  0.00  0.00    +0.000 HD
BRANCH  22  24
ATOM     24  C   UNL     1       3.717   5.772  17.668  0.00  0.00    +0.000 C 
BRANCH  24  25
ATOM     25  C   UNL     1       5.181   5.942  18.048  0.00  0.00    +0.000 A 
ATOM     26  C   UNL     1       5.978   6.807  17.271  0.00  0.00    +0.000 A 
ATOM     27  C   UNL     1       7.304   7.077  17.614  0.00  0.00    +0.000 A 
ATOM     28  C   UNL     1       7.862   6.472  18.737  0.00  0.00    +0.000 A 
ATOM     29  C   UNL     1       7.104   5.580  19.492  0.00  0.00    +0.000 A 
ATOM     30  C   UNL     1       5.775   5.309  19.148  0.00  0.00    +0.000 A 
ENDBRANCH  24  25
BRANCH  24  31
ATOM     31  C   UNL     1       3.276   4.296  17.453  0.00  0.00    +0.000 C 
ATOM     32  C   UNL     1       1.816   3.929  17.672  0.00  0.00    +0.000 C 
ENDBRANCH  24  31
ENDBRANCH  22  24
ENDBRANCH   3  20
TORSDOF 7
ENDMDL
MODEL 4
REMARK VINA RESULT:      -7.3      1.265      1.659
REMARK  Name = 
REMARK  9 active torsions:
REMARK  status: ('A' for Active; 'I' for Inactive)
REMARK    1  A    between atoms: C_1  and  C_2
REMARK    2  A    between atoms: C_2  and  O_3
REMARK    3  A    between atoms: O_3  and  C_4
REMARK    4  A    between atoms: C_8  and  C_10
REMARK    5  A    between atoms: C_12  and  C_13
REMARK    6  A    between atoms: N_15  and  C_16
REMARK    7  A    between atoms: C_16  and  C_17
REMARK    8  A    between atoms: C_16  and  C_19
REMARK    9  A    between atoms: C_17  and  C_18
REMARK                            x       y       z     vdW  Elec       q    Type
REMARK                         _______ _______ _______ _____ _____    ______ ____
ROOT
ATOM      1  C   UNL     1       0.194  11.198  19.575  0.00  0.00    +0.000 A 
ATOM      2  C   UNL     1       1.066  10.234  19.110  0.00  0.00    +0.000 A 
ATOM      3  C   UNL     1       1.195   9.150  20.047  0.00  0.00    +0.000 A 
ATOM      4  C   UNL     1       0.484   9.563  21.171  0.00  0.00    +0.000 A 
ATOM      5  N   UNL     1      -0.050  10.814  20.880  0.00  0.00    +0.000 N 
ATOM      6  C   UNL     1      -0.725  11.638  21.875  0.00  0.00    +0.000 C 
ATOM      7  C   UNL     1      -1.076  10.842  23.114  0.00  0.00    +0.000 C 
ATOM      8  O   UNL     1      -0.002   9.968  23.473  0.00  0.00    +0.000 OA
ATOM      9  C   UNL     1       0.189   8.936  22.490  0.00  0.00    +0.000 C 
ENDROOT
BRANCH   1  14
ATOM     10  C   UNL     1       0.880  15.943  18.795  0.00  0.00    +0.000 C 
ATOM     11  C   UNL     1       1.501  15.406  20.078  0.00  0.00    +0.000 C 
ATOM     12  C   UNL     1       1.572  13.915  19.838  0.00  0.00    +0.000 C 
ATOM     13  N   UNL     1       0.338  13.627  19.132  0.00  0.00    +0.000 N 
ATOM     14  C   UNL     1      -0.331  12.426  18.954  0.00  0.00    +0.000 C 
ATOM     15  O   UNL     1      -1.327  12.387  18.233  0.00  0.00    +0.000 OA
ATOM     16  C   UNL     1      -0.093  14.817  18.396  0.00  0.00    +0.000 C 
BRANCH  10  17
ATOM     17  O   UNL     1       0.202  17.180  19.014  0.00  0.00    +0.000 OA
BRANCH  17  19
ATOM     18  C   UNL     1      -0.085  18.283  16.909  0.00  0.00    +0.000 C 
ATOM     19  C   UNL     1      -0.763  17.485  18.006  0.00  0.00    +0.000 C 
ENDBRANCH  17  19
ENDBRANCH  10  17
ENDBRANCH   1  14
BRANCH   3  20
ATOM     20  C   UNL     1       1.955   7.954  19.658  0.00  0.00    +0.000 C 
ATOM     21  O   UNL     1       2.047   7.034  20.473  0.00  0.00    +0.000 OA
ATOM     22  N   UNL     1       2.511   7.830  18.396  0.00  0.00    +0.000 N 
ATOM     23  H   UNL     1       2.112   8.430  17.687  0.00  0.00    +0.000 HD
BRANCH  22  24
ATOM     24  C   UNL     1       2.910   6.473  17.977  0.00  0.00    +0.000 C 
BRANCH  24  25
ATOM     25  C   UNL     1       4.402   6.199  18.097  0.00  0.00    +0.000 A 
ATOM     26  C   UNL     1       5.268   6.777  17.147  0.00  0.00    +0.000 A 
ATOM     27  C   UNL     1       6.654   6.639  17.249  0.00  0.00    +0.000 A 
ATOM     28  C   UNL     1       7.198   5.904  18.298  0.00  0.00    +0.000 A 
ATOM     29  C   UNL     1       6.356   5.287  19.222  0.00  0.00    +0.000 A 
ATOM     30  C   UNL     1       4.967   5.425  19.120  0.00  0.00    +0.000 A 
ENDBRANCH  24  25
BRANCH  24  31
ATOM     31  C   UNL     1       2.001   5.316  18.480  0.00  0.00    +0.000 C 
ATOM     32  C   UNL     1       1.824   4.088  17.599  0.00  0.00    +0.000 C 
ENDBRANCH  24  31
ENDBRANCH  22  24
ENDBRANCH   3  20
TORSDOF 7
ENDMDL
MODEL 5
REMARK VINA RESULT:      -7.3      2.668      3.912
REMARK  Name = 
REMARK  9 active torsions:
REMARK  status: ('A' for Active; 'I' for Inactive)
REMARK    1  A    between atoms: C_1  and  C_2
REMARK    2  A    between atoms: C_2  and  O_3
REMARK    3  A    between atoms: O_3  and  C_4
REMARK    4  A    between atoms: C_8  and  C_10
REMARK    5  A    between atoms: C_12  and  C_13
REMARK    6  A    between atoms: N_15  and  C_16
REMARK    7  A    between atoms: C_16  and  C_17
REMARK    8  A    between atoms: C_16  and  C_19
REMARK    9  A    between atoms: C_17  and  C_18
REMARK                            x       y       z     vdW  Elec       q    Type
REMARK                         _______ _______ _______ _____ _____    ______ ____
ROOT
ATOM      1  C   UNL     1       0.365  10.153  18.796  0.00  0.00    +0.000 A 
ATOM      2  C   UNL     1       1.195   9.528  17.886  0.00  0.00    +0.000 A 
ATOM      3  C   UNL     1       1.914   8.441  18.496  0.00  0.00    +0.000 A 
ATOM      4  C   UNL     1       1.605   8.523  19.851  0.00  0.00    +0.000 A 
ATOM      5  N   UNL     1       0.727   9.591  20.006  0.00  0.00    +0.000 N 
ATOM      6  C   UNL     1       0.306  10.088  21.310  0.00  0.00    +0.000 C 
ATOM      7  C   UNL     1       0.643   9.109  22.415  0.00  0.00    +0.000 C 
ATOM      8  O   UNL     1       1.943   8.548  22.214  0.00  0.00    +0.000 OA
ATOM      9  C   UNL     1       1.983   7.714  21.044  0.00  0.00    +0.000 C 
ENDROOT
BRANCH   1  14
ATOM     10  C   UNL     1      -4.219  11.304  17.679  0.00  0.00    +0.000 C 
ATOM     11  C   UNL     1      -3.693  10.040  17.011  0.00  0.00    +0.000 C 
ATOM     12  C   UNL     1      -2.505   9.659  17.865  0.00  0.00    +0.000 C 
ATOM     13  N   UNL     1      -1.903  10.936  18.195  0.00  0.00    +0.000 N 
ATOM     14  C   UNL     1      -0.624  11.233  18.640  0.00  0.00    +0.000 C 
ATOM     15  O   UNL     1      -0.342  12.389  18.953  0.00  0.00    +0.000 OA
ATOM     16  C   UNL     1      -2.930  11.979  18.183  0.00  0.00    +0.000 C 
BRANCH  10  17
ATOM     17  O   UNL     1      -4.929  12.132  16.757  0.00  0.00    +0.000 OA
BRANCH  17  19
ATOM     18  C   UNL     1      -6.781  11.471  18.123  0.00  0.00    +0.000 C 
ATOM     19  C   UNL     1      -6.201  12.563  17.245  0.00  0.00    +0.000 C 
ENDBRANCH  17  19
ENDBRANCH  10  17
ENDBRANCH   1  14
BRANCH   3  20
ATOM     20  C   UNL     1       2.726   7.556  17.648  0.00  0.00    +0.000 C 
ATOM     21  O   UNL     1       3.113   7.988  16.561  0.00  0.00    +0.000 OA
ATOM     22  N   UNL     1       3.096   6.291  18.072  0.00  0.00    +0.000 N 
ATOM     23  H   UNL     1       3.056   6.140  19.071  0.00  0.00    +0.000 HD
BRANCH  22  24
ATOM     24  C   UNL     1       4.202   5.644  17.341  0.00  0.00    +0.000 C 
BRANCH  24  25
ATOM     25  C   UNL     1       5.585   5.979  17.883  0.00  0.00    +0.000 A 
ATOM     26  C   UNL     1       6.345   6.963  17.218  0.00  0.00    +0.000 A 
ATOM     27  C   UNL     1       7.582   7.380  17.711  0.00  0.00    +0.000 A 
ATOM     28  C   UNL     1       8.089   6.807  18.874  0.00  0.00    +0.000 A 
ATOM     29  C   UNL     1       7.374   5.802  19.520  0.00  0.00    +0.000 A 
ATOM     30  C   UNL     1       6.134   5.383  19.026  0.00  0.00    +0.000 A 
ENDBRANCH  24  25
BRANCH  24  31
ATOM     31  C   UNL     1       3.995   4.143  16.991  0.00  0.00    +0.000 C 
ATOM     32  C   UNL     1       3.206   3.269  17.955  0.00  0.00    +0.000 C 
ENDBRANCH  24  31
ENDBRANCH  22  24
ENDBRANCH   3  20
TORSDOF 7
ENDMDL
MODEL 6
REMARK VINA RESULT:      -7.2      0.829      1.072
REMARK  Name = 
REMARK  9 active torsions:
REMARK  status: ('A' for Active; 'I' for Inactive)
REMARK    1  A    between atoms: C_1  and  C_2
REMARK    2  A    between atoms: C_2  and  O_3
REMARK    3  A    between atoms: O_3  and  C_4
REMARK    4  A    between atoms: C_8  and  C_10
REMARK    5  A    between atoms: C_12  and  C_13
REMARK    6  A    between atoms: N_15  and  C_16
REMARK    7  A    between atoms: C_16  and  C_17
REMARK    8  A    between atoms: C_16  and  C_19
REMARK    9  A    between atoms: C_17  and  C_18
REMARK                            x       y       z     vdW  Elec       q    Type
REMARK                         _______ _______ _______ _____ _____    ______ ____
ROOT
ATOM      1  C   UNL     1       0.723  10.894  19.002  0.00  0.00    +0.000 A 
ATOM      2  C   UNL     1       1.464  10.101  18.148  0.00  0.00    +0.000 A 
ATOM      3  C   UNL     1       1.772   8.831  18.750  0.00  0.00    +0.000 A 
ATOM      4  C   UNL     1       1.319   8.937  20.062  0.00  0.00    +0.000 A 
ATOM      5  N   UNL     1       0.753  10.200  20.198  0.00  0.00    +0.000 N 
ATOM      6  C   UNL     1       0.315  10.738  21.480  0.00  0.00    +0.000 C 
ATOM      7  C   UNL     1       0.221   9.656  22.536  0.00  0.00    +0.000 C 
ATOM      8  O   UNL     1       1.334   8.763  22.443  0.00  0.00    +0.000 OA
ATOM      9  C   UNL     1       1.300   8.003  21.223  0.00  0.00    +0.000 C 
ENDROOT
BRANCH   1  14
ATOM     10  C   UNL     1       1.333  15.710  19.143  0.00  0.00    +0.000 C 
ATOM     11  C   UNL     1       2.237  14.920  20.079  0.00  0.00    +0.000 C 
ATOM     12  C   UNL     1       2.202  13.521  19.507  0.00  0.00    +0.000 C 
ATOM     13  N   UNL     1       0.824  13.363  19.085  0.00  0.00    +0.000 N 
ATOM     14  C   UNL     1       0.096  12.214  18.819  0.00  0.00    +0.000 C 
ATOM     15  O   UNL     1      -1.049  12.307  18.379  0.00  0.00    +0.000 OA
ATOM     16  C   UNL     1       0.258  14.674  18.760  0.00  0.00    +0.000 C 
BRANCH  10  17
ATOM     17  O   UNL     1       0.768  16.850  19.791  0.00  0.00    +0.000 OA
BRANCH  17  19
ATOM     18  C   UNL     1      -0.348  16.762  21.907  0.00  0.00    +0.000 C 
ATOM     19  C   UNL     1       0.990  16.868  21.202  0.00  0.00    +0.000 C 
ENDBRANCH  17  19
ENDBRANCH  10  17
ENDBRANCH   1  14
BRANCH   3  20
ATOM     20  C   UNL     1       2.417   7.791  17.934  0.00  0.00    +0.000 C 
ATOM     21  O   UNL     1       2.750   8.079  16.784  0.00  0.00    +0.000 OA
ATOM     22  N   UNL     1       2.695   6.537  18.451  0.00  0.00    +0.000 N 
ATOM     23  H   UNL     1       2.726   6.482  19.460  0.00  0.00    +0.000 HD
BRANCH  22  24
ATOM     24  C   UNL     1       3.665   5.713  17.706  0.00  0.00    +0.000 C 
BRANCH  24  25
ATOM     25  C   UNL     1       5.120   6.022  18.029  0.00  0.00    +0.000 A 
ATOM     26  C   UNL     1       5.705   5.399  19.150  0.00  0.00    +0.000 A 
ATOM     27  C   UNL     1       7.057   5.568  19.452  0.00  0.00    +0.000 A 
ATOM     28  C   UNL     1       7.848   6.379  18.643  0.00  0.00    +0.000 A 
ATOM     29  C   UNL     1       7.278   7.039  17.556  0.00  0.00    +0.000 A 
ATOM     30  C   UNL     1       5.922   6.870  17.253  0.00  0.00    +0.000 A 
ENDBRANCH  24  25
BRANCH  24  31
ATOM     31  C   UNL     1       3.334   4.196  17.615  0.00  0.00    +0.000 C 
ATOM     32  C   UNL     1       4.260   3.292  16.815  0.00  0.00    +0.000 C 
ENDBRANCH  24  31
ENDBRANCH  22  24
ENDBRANCH   3  20
TORSDOF 7
ENDMDL
MODEL 7
REMARK VINA RESULT:      -7.2      1.706      3.285
REMARK  Name = 
REMARK  9 active torsions:
REMARK  status: ('A' for Active; 'I' for Inactive)
REMARK    1  A    between atoms: C_1  and  C_2
REMARK    2  A    between atoms: C_2  and  O_3
REMARK    3  A    between atoms: O_3  and  C_4
REMARK    4  A    between atoms: C_8  and  C_10
REMARK    5  A    between atoms: C_12  and  C_13
REMARK    6  A    between atoms: N_15  and  C_16
REMARK    7  A    between atoms: C_16  and  C_17
REMARK    8  A    between atoms: C_16  and  C_19
REMARK    9  A    between atoms: C_17  and  C_18
REMARK                            x       y       z     vdW  Elec       q    Type
REMARK                         _______ _______ _______ _____ _____    ______ ____
ROOT
ATOM      1  C   UNL     1       0.756  12.188  19.414  0.00  0.00    +0.000 A 
ATOM      2  C   UNL     1       1.378  11.077  18.880  0.00  0.00    +0.000 A 
ATOM      3  C   UNL     1       1.100   9.899  19.659  0.00  0.00    +0.000 A 
ATOM      4  C   UNL     1       0.410  10.363  20.775  0.00  0.00    +0.000 A 
ATOM      5  N   UNL     1       0.274  11.739  20.629  0.00  0.00    +0.000 N 
ATOM      6  C   UNL     1      -0.256  12.599  21.680  0.00  0.00    +0.000 C 
ATOM      7  C   UNL     1      -0.946  11.797  22.763  0.00  0.00    +0.000 C 
ATOM      8  O   UNL     1      -0.198  10.616  23.070  0.00  0.00    +0.000 OA
ATOM      9  C   UNL     1      -0.190   9.696  21.965  0.00  0.00    +0.000 C 
ENDROOT
BRANCH   1  14
ATOM     10  C   UNL     1       2.977  16.491  19.032  0.00  0.00    +0.000 C 
ATOM     11  C   UNL     1       3.412  15.647  20.222  0.00  0.00    +0.000 C 
ATOM     12  C   UNL     1       2.972  14.250  19.843  0.00  0.00    +0.000 C 
ATOM     13  N   UNL     1       1.697  14.465  19.187  0.00  0.00    +0.000 N 
ATOM     14  C   UNL     1       0.659  13.580  18.939  0.00  0.00    +0.000 C 
ATOM     15  O   UNL     1      -0.310  13.949  18.278  0.00  0.00    +0.000 OA
ATOM     16  C   UNL     1       1.673  15.801  18.589  0.00  0.00    +0.000 C 
BRANCH  10  17
ATOM     17  O   UNL     1       2.759  17.853  19.402  0.00  0.00    +0.000 OA
BRANCH  17  19
ATOM     18  C   UNL     1       1.117  18.607  20.972  0.00  0.00    +0.000 C 
ATOM     19  C   UNL     1       2.508  18.028  20.798  0.00  0.00    +0.000 C 
ENDBRANCH  17  19
ENDBRANCH  10  17
ENDBRANCH   1  14
BRANCH   3  20
ATOM     20  C   UNL     1       1.542   8.590  19.158  0.00  0.00    +0.000 C 
ATOM     21  O   UNL     1       1.430   8.361  17.952  0.00  0.00    +0.000 OA
ATOM     22  N   UNL     1       2.119   7.652  19.998  0.00  0.00    +0.000 N 
ATOM     23  H   UNL     1       2.498   8.020  20.860  0.00  0.00    +0.000 HD
BRANCH  22  24
ATOM     24  C   UNL     1       2.865   6.555  19.354  0.00  0.00    +0.000 C 
BRANCH  24  25
ATOM     25  C   UNL     1       2.137   5.218  19.364  0.00  0.00    +0.000 A 
ATOM     26  C   UNL     1       1.932   4.558  18.135  0.00  0.00    +0.000 A 
ATOM     27  C   UNL     1       1.350   3.290  18.080  0.00  0.00    +0.000 A 
ATOM     28  C   UNL     1       0.947   2.665  19.257  0.00  0.00    +0.000 A 
ATOM     29  C   UNL     1       1.100   3.321  20.477  0.00  0.00    +0.000 A 
ATOM     30  C   UNL     1       1.683   4.592  20.532  0.00  0.00    +0.000 A 
ENDBRANCH  24  25
BRANCH  24  31
ATOM     31  C   UNL     1       3.549   6.905  18.002  0.00  0.00    +0.000 C 
ATOM     32  C   UNL     1       4.898   6.278  17.680  0.00  0.00    +0.000 C 
ENDBRANCH  24  31
ENDBRANCH  22  24
ENDBRANCH   3  20
TORSDOF 7
ENDMDL
MODEL 8
REMARK VINA RESULT:      -7.1      3.169      4.968
REMARK  Name = 
REMARK  9 active torsions:
REMARK  status: ('A' for Active; 'I' for Inactive)
REMARK    1  A    between atoms: C_1  and  C_2
REMARK    2  A    between atoms: C_2  and  O_3
REMARK    3  A    between atoms: O_3  and  C_4
REMARK    4  A    between atoms: C_8  and  C_10
REMARK    5  A    between atoms: C_12  and  C_13
REMARK    6  A    between atoms: N_15  and  C_16
REMARK    7  A    between atoms: C_16  and  C_17
REMARK    8  A    between atoms: C_16  and  C_19
REMARK    9  A    between atoms: C_17  and  C_18
REMARK                            x       y       z     vdW  Elec       q    Type
REMARK                         _______ _______ _______ _____ _____    ______ ____
ROOT
ATOM      1  C   UNL     1      -0.153  11.300  20.846  0.00  0.00    +0.000 A 
ATOM      2  C   UNL     1       0.054  10.023  20.364  0.00  0.00    +0.000 A 
ATOM      3  C   UNL     1       1.080  10.007  19.355  0.00  0.00    +0.000 A 
ATOM      4  C   UNL     1       1.384  11.347  19.131  0.00  0.00    +0.000 A 
ATOM      5  N   UNL     1       0.589  12.095  19.992  0.00  0.00    +0.000 N 
ATOM      6  C   UNL     1       0.510  13.550  19.934  0.00  0.00    +0.000 C 
ATOM      7  C   UNL     1       1.628  14.137  19.100  0.00  0.00    +0.000 C 
ATOM      8  O   UNL     1       1.843  13.353  17.922  0.00  0.00    +0.000 OA
ATOM      9  C   UNL     1       2.353  12.048  18.243  0.00  0.00    +0.000 C 
ENDROOT
BRANCH   1  14
ATOM     10  C   UNL     1      -4.499  13.105  22.049  0.00  0.00    +0.000 C 
ATOM     11  C   UNL     1      -4.060  13.387  20.618  0.00  0.00    +0.000 C 
ATOM     12  C   UNL     1      -2.983  12.355  20.370  0.00  0.00    +0.000 C 
ATOM     13  N   UNL     1      -2.277  12.292  21.635  0.00  0.00    +0.000 N 
ATOM     14  C   UNL     1      -1.011  11.812  21.929  0.00  0.00    +0.000 C 
ATOM     15  O   UNL     1      -0.634  11.766  23.099  0.00  0.00    +0.000 OA
ATOM     16  C   UNL     1      -3.187  12.659  22.722  0.00  0.00    +0.000 C 
BRANCH  10  17
ATOM     17  O   UNL     1      -5.050  14.266  22.671  0.00  0.00    +0.000 OA
BRANCH  17  19
ATOM     18  C   UNL     1      -4.878  16.055  24.253  0.00  0.00    +0.000 C 
ATOM     19  C   UNL     1      -4.171  14.871  23.622  0.00  0.00    +0.000 C 
ENDBRANCH  17  19
ENDBRANCH  10  17
ENDBRANCH   1  14
BRANCH   3  20
ATOM     20  C   UNL     1       1.554   8.715  18.837  0.00  0.00    +0.000 C 
ATOM     21  O   UNL     1       1.454   8.502  17.628  0.00  0.00    +0.000 OA
ATOM     22  N   UNL     1       2.144   7.777  19.667  0.00  0.00    +0.000 N 
ATOM     23  H   UNL     1       2.509   8.139  20.538  0.00  0.00    +0.000 HD
BRANCH  22  24
ATOM     24  C   UNL     1       2.918   6.705  19.013  0.00  0.00    +0.000 C 
BRANCH  24  25
ATOM     25  C   UNL     1       2.251   5.338  19.062  0.00  0.00    +0.000 A 
ATOM     26  C   UNL     1       1.739   4.886  20.296  0.00  0.00    +0.000 A 
ATOM     27  C   UNL     1       1.039   3.683  20.394  0.00  0.00    +0.000 A 
ATOM     28  C   UNL     1       0.851   2.899  19.259  0.00  0.00    +0.000 A 
ATOM     29  C   UNL     1       1.389   3.307  18.040  0.00  0.00    +0.000 A 
ATOM     30  C   UNL     1       2.091   4.513  17.940  0.00  0.00    +0.000 A 
ENDBRANCH  24  25
BRANCH  24  31
ATOM     31  C   UNL     1       3.541   7.067  17.635  0.00  0.00    +0.000 C 
ATOM     32  C   UNL     1       4.989   6.687  17.364  0.00  0.00    +0.000 C 
ENDBRANCH  24  31
ENDBRANCH  22  24
ENDBRANCH   3  20
TORSDOF 7
ENDMDL
MODEL 9
REMARK VINA RESULT:      -7.1      3.301      5.249
REMARK  Name = 
REMARK  9 active torsions:
REMARK  status: ('A' for Active; 'I' for Inactive)
REMARK    1  A    between atoms: C_1  and  C_2
REMARK    2  A    between atoms: C_2  and  O_3
REMARK    3  A    between atoms: O_3  and  C_4
REMARK    4  A    between atoms: C_8  and  C_10
REMARK    5  A    between atoms: C_12  and  C_13
REMARK    6  A    between atoms: N_15  and  C_16
REMARK    7  A    between atoms: C_16  and  C_17
REMARK    8  A    between atoms: C_16  and  C_19
REMARK    9  A    between atoms: C_17  and  C_18
REMARK                            x       y       z     vdW  Elec       q    Type
REMARK                         _______ _______ _______ _____ _____    ______ ____
ROOT
ATOM      1  C   UNL     1      -0.158  11.428  20.880  0.00  0.00    +0.000 A 
ATOM      2  C   UNL     1       0.030  10.143  20.410  0.00  0.00    +0.000 A 
ATOM      3  C   UNL     1       1.053  10.101  19.399  0.00  0.00    +0.000 A 
ATOM      4  C   UNL     1       1.376  11.435  19.161  0.00  0.00    +0.000 A 
ATOM      5  N   UNL     1       0.593  12.203  20.017  0.00  0.00    +0.000 N 
ATOM      6  C   UNL     1       0.535  13.658  19.944  0.00  0.00    +0.000 C 
ATOM      7  C   UNL     1       1.660  14.220  19.101  0.00  0.00    +0.000 C 
ATOM      8  O   UNL     1       1.861  13.422  17.931  0.00  0.00    +0.000 OA
ATOM      9  C   UNL     1       2.353  12.113  18.264  0.00  0.00    +0.000 C 
ENDROOT
BRANCH   1  14
ATOM     10  C   UNL     1      -4.513  13.200  22.097  0.00  0.00    +0.000 C 
ATOM     11  C   UNL     1      -4.103  13.440  20.650  0.00  0.00    +0.000 C 
ATOM     12  C   UNL     1      -3.013  12.417  20.418  0.00  0.00    +0.000 C 
ATOM     13  N   UNL     1      -2.285  12.410  21.672  0.00  0.00    +0.000 N 
ATOM     14  C   UNL     1      -1.005  11.962  21.960  0.00  0.00    +0.000 C 
ATOM     15  O   UNL     1      -0.608  11.964  23.124  0.00  0.00    +0.000 OA
ATOM     16  C   UNL     1      -3.182  12.800  22.761  0.00  0.00    +0.000 C 
BRANCH  10  17
ATOM     17  O   UNL     1      -5.073  14.373  22.688  0.00  0.00    +0.000 OA
BRANCH  17  19
ATOM     18  C   UNL     1      -6.885  12.956  23.349  0.00  0.00    +0.000 C 
ATOM     19  C   UNL     1      -6.495  14.321  22.816  0.00  0.00    +0.000 C 
ENDBRANCH  17  19
ENDBRANCH  10  17
ENDBRANCH   1  14
BRANCH   3  20
ATOM     20  C   UNL     1       1.507   8.798  18.894  0.00  0.00    +0.000 C 
ATOM     21  O   UNL     1       1.446   8.592  17.680  0.00  0.00    +0.000 OA
ATOM     22  N   UNL     1       2.039   7.840  19.741  0.00  0.00    +0.000 N 
ATOM     23  H   UNL     1       2.382   8.188  20.626  0.00  0.00    +0.000 HD
BRANCH  22  24
ATOM     24  C   UNL     1       2.804   6.748  19.110  0.00  0.00    +0.000 C 
BRANCH  24  25
ATOM     25  C   UNL     1       2.119   5.390  19.177  0.00  0.00    +0.000 A 
ATOM     26  C   UNL     1       1.979   4.651  17.984  0.00  0.00    +0.000 A 
ATOM     27  C   UNL     1       1.441   3.363  17.987  0.00  0.00    +0.000 A 
ATOM     28  C   UNL     1       1.018   2.796  19.186  0.00  0.00    +0.000 A 
ATOM     29  C   UNL     1       1.107   3.527  20.368  0.00  0.00    +0.000 A 
ATOM     30  C   UNL     1       1.646   4.819  20.366  0.00  0.00    +0.000 A 
ENDBRANCH  24  25
BRANCH  24  31
ATOM     31  C   UNL     1       3.442   7.079  17.731  0.00  0.00    +0.000 C 
ATOM     32  C   UNL     1       4.882   6.658  17.472  0.00  0.00    +0.000 C 
ENDBRANCH  24  31
ENDBRANCH  22  24
ENDBRANCH   3  20
TORSDOF 7
ENDMDL
