MODEL 1
REMARK VINA RESULT:      -8.0      0.000      0.000
REMARK  Name = 
REMARK  4 active torsions:
REMARK  status: ('A' for Active; 'I' for Inactive)
REMARK    1  A    between atoms: C_4  and  N_5
REMARK    2  A    between atoms: N_8  and  C_9
REMARK    3  A    between atoms: C_9  and  C_10
REMARK    4  A    between atoms: N_21  and  C_22
REMARK                            x       y       z     vdW  Elec       q    Type
REMARK                         _______ _______ _______ _____ _____    ______ ____
ROOT
ATOM      1  O   UNL     1      -0.953  11.376  19.666  0.00  0.00    +0.000 OA
ATOM      2  C   UNL     1      -0.362  10.621  20.438  0.00  0.00    +0.000 A 
ATOM      3  C   UNL     1       0.359   9.480  19.851  0.00  0.00    +0.000 A 
ATOM      4  C   UNL     1       0.976   8.578  20.623  0.00  0.00    +0.000 A 
ATOM      5  N   UNL     1       0.915   8.760  21.971  0.00  0.00    +0.000 N 
ATOM      6  C   UNL     1       0.293   9.778  22.628  0.00  0.00    +0.000 A 
ATOM      7  O   UNL     1       0.374   9.818  23.857  0.00  0.00    +0.000 OA
ATOM      8  N   UNL     1      -0.348  10.712  21.824  0.00  0.00    +0.000 N 
ATOM      9  H   UNL     1       1.426   8.118  22.568  0.00  0.00    +0.000 HD
ENDROOT
BRANCH   8  10
ATOM     10  C   UNL     1      -1.049  11.791  22.439  0.00  0.00    +0.000 A 
ATOM     11  C   UNL     1      -0.479  13.069  22.498  0.00  0.00    +0.000 A 
ATOM     12  C   UNL     1      -1.126  14.093  23.194  0.00  0.00    +0.000 A 
ATOM     13  C   UNL     1      -2.361  13.849  23.793  0.00  0.00    +0.000 A 
ATOM     14 BR   UNL     1      -3.220  15.221  24.769  0.00  0.00    +0.000 Br
ATOM     15  C   UNL     1      -2.960  12.596  23.695  0.00  0.00    +0.000 A 
ATOM     16  C   UNL     1      -2.298  11.564  23.033  0.00  0.00    +0.000 A 
ENDBRANCH   8  10
BRANCH   4  17
ATOM     17  N   UNL     1       1.641   7.487  20.093  0.00  0.00    +0.000 N 
ATOM     18  C   UNL     1       1.884   6.250  20.869  0.00  0.00    +0.000 C 
ATOM     19  C   UNL     1       1.934   5.009  19.949  0.00  0.00    +0.000 C 
ATOM     20  N   UNL     1       2.853   5.119  18.789  0.00  0.00    +0.000 NA
ATOM     21  C   UNL     1       2.483   6.355  18.057  0.00  0.00    +0.000 C 
ATOM     22  C   UNL     1       2.529   7.633  18.919  0.00  0.00    +0.000 C 
BRANCH  20  23
ATOM     23  C   UNL     1       4.275   5.143  19.196  0.00  0.00    +0.000 C 
BRANCH  23  24
ATOM     24  C   UNL     1       5.238   5.048  18.031  0.00  0.00    +0.000 A 
ATOM     25  C   UNL     1       6.284   5.968  17.881  0.00  0.00    +0.000 A 
ATOM     26  C   UNL     1       7.083   5.949  16.736  0.00  0.00    +0.000 A 
ATOM     27  C   UNL     1       6.868   4.989  15.748  0.00  0.00    +0.000 A 
ATOM     28  C   UNL     1       5.873   4.028  15.916  0.00  0.00    +0.000 A 
ATOM     29  C   UNL     1       5.063   4.057  17.051  0.00  0.00    +0.000 A 
ENDBRANCH  23  24
ENDBRANCH  20  23
ENDBRANCH   4  17
TORSDOF 4
ENDMDL
MODEL 2
REMARK VINA RESULT:      -7.9      0.570      1.559
REMARK  Name = 
REMARK  4 active torsions:
REMARK  status: ('A' for Active; 'I' for Inactive)
REMARK    1  A    between atoms: C_4  and  N_5
REMARK    2  A    between atoms: N_8  and  C_9
REMARK    3  A    between atoms: C_9  and  C_10
REMARK    4  A    between atoms: N_21  and  C_22
REMARK                            x       y       z     vdW  Elec       q    Type
REMARK                         _______ _______ _______ _____ _____    ______ ____
ROOT
ATOM      1  O   UNL     1       0.320   9.806  23.801  0.00  0.00    +0.000 OA
ATOM      2  C   UNL     1       0.314   9.741  22.572  0.00  0.00    +0.000 A 
ATOM      3  C   UNL     1       0.980   8.584  21.951  0.00  0.00    +0.000 A 
ATOM      4  C   UNL     1       1.071   8.467  20.622  0.00  0.00    +0.000 A 
ATOM      5  N   UNL     1       0.519   9.456  19.866  0.00  0.00    +0.000 N 
ATOM      6  C   UNL     1      -0.132  10.563  20.323  0.00  0.00    +0.000 A 
ATOM      7  O   UNL     1      -0.615  11.340  19.497  0.00  0.00    +0.000 OA
ATOM      8  N   UNL     1      -0.224  10.682  21.704  0.00  0.00    +0.000 N 
ATOM      9  H   UNL     1       0.528   9.355  18.857  0.00  0.00    +0.000 HD
ENDROOT
BRANCH   8  10
ATOM     10  C   UNL     1      -0.863  11.829  22.259  0.00  0.00    +0.000 A 
ATOM     11  C   UNL     1      -0.245  13.085  22.205  0.00  0.00    +0.000 A 
ATOM     12  C   UNL     1      -0.829  14.182  22.843  0.00  0.00    +0.000 A 
ATOM     13  C   UNL     1      -2.050  14.030  23.499  0.00  0.00    +0.000 A 
ATOM     14 BR   UNL     1      -2.824  15.502  24.396  0.00  0.00    +0.000 Br
ATOM     15  C   UNL     1      -2.697  12.797  23.514  0.00  0.00    +0.000 A 
ATOM     16  C   UNL     1      -2.097  11.695  22.909  0.00  0.00    +0.000 A 
ENDBRANCH   8  10
BRANCH   4  17
ATOM     17  N   UNL     1       1.711   7.400  20.018  0.00  0.00    +0.000 N 
ATOM     18  C   UNL     1       1.926   6.108  20.709  0.00  0.00    +0.000 C 
ATOM     19  C   UNL     1       1.948   4.931  19.707  0.00  0.00    +0.000 C 
ATOM     20  N   UNL     1       2.869   5.099  18.555  0.00  0.00    +0.000 NA
ATOM     21  C   UNL     1       2.527   6.390  17.909  0.00  0.00    +0.000 C 
ATOM     22  C   UNL     1       2.602   7.604  18.855  0.00  0.00    +0.000 C 
BRANCH  20  23
ATOM     23  C   UNL     1       4.291   5.063  18.960  0.00  0.00    +0.000 C 
BRANCH  23  24
ATOM     24  C   UNL     1       5.249   4.942  17.792  0.00  0.00    +0.000 A 
ATOM     25  C   UNL     1       6.336   5.814  17.657  0.00  0.00    +0.000 A 
ATOM     26  C   UNL     1       7.134   5.777  16.511  0.00  0.00    +0.000 A 
ATOM     27  C   UNL     1       6.874   4.845  15.507  0.00  0.00    +0.000 A 
ATOM     28  C   UNL     1       5.835   3.929  15.661  0.00  0.00    +0.000 A 
ATOM     29  C   UNL     1       5.026   3.977  16.797  0.00  0.00    +0.000 A 
ENDBRANCH  23  24
ENDBRANCH  20  23
ENDBRANCH   4  17
TORSDOF 4
ENDMDL
MODEL 3
REMARK VINA RESULT:      -7.8      0.272      1.320
REMARK  Name = 
REMARK  4 active torsions:
REMARK  status: ('A' for Active; 'I' for Inactive)
REMARK    1  A    between atoms: C_4  and  N_5
REMARK    2  A    between atoms: N_8  and  C_9
REMARK    3  A    between atoms: C_9  and  C_10
REMARK    4  A    between atoms: N_21  and  C_22
REMARK                            x       y       z     vdW  Elec       q    Type
REMARK                         _______ _______ _______ _____ _____    ______ ____
ROOT
ATOM      1  O   UNL     1      -0.561  11.531  19.602  0.00  0.00    +0.000 OA
ATOM      2  C   UNL     1      -0.076  10.710  20.380  0.00  0.00    +0.000 A 
ATOM      3  C   UNL     1       0.605   9.542  19.796  0.00  0.00    +0.000 A 
ATOM      4  C   UNL     1       1.106   8.573  20.570  0.00  0.00    +0.000 A 
ATOM      5  N   UNL     1       0.966   8.711  21.918  0.00  0.00    +0.000 N 
ATOM      6  C   UNL     1       0.370   9.747  22.573  0.00  0.00    +0.000 A 
ATOM      7  O   UNL     1       0.370   9.737  23.805  0.00  0.00    +0.000 OA
ATOM      8  N   UNL     1      -0.150  10.751  21.766  0.00  0.00    +0.000 N 
ATOM      9  H   UNL     1       1.391   8.015  22.521  0.00  0.00    +0.000 HD
ENDROOT
BRANCH   8  10
ATOM     10  C   UNL     1      -0.818  11.854  22.377  0.00  0.00    +0.000 A 
ATOM     11  C   UNL     1      -2.062  11.679  22.994  0.00  0.00    +0.000 A 
ATOM     12  C   UNL     1      -2.756  12.783  23.497  0.00  0.00    +0.000 A 
ATOM     13  C   UNL     1      -2.185  14.052  23.417  0.00  0.00    +0.000 A 
ATOM     14 BR   UNL     1      -3.138  15.553  24.060  0.00  0.00    +0.000 Br
ATOM     15  C   UNL     1      -0.926  14.228  22.852  0.00  0.00    +0.000 A 
ATOM     16  C   UNL     1      -0.250  13.133  22.318  0.00  0.00    +0.000 A 
ENDBRANCH   8  10
BRANCH   4  17
ATOM     17  N   UNL     1       1.731   7.458  20.042  0.00  0.00    +0.000 N 
ATOM     18  C   UNL     1       2.014   6.249  20.848  0.00  0.00    +0.000 C 
ATOM     19  C   UNL     1       2.000   4.974  19.975  0.00  0.00    +0.000 C 
ATOM     20  N   UNL     1       2.847   5.033  18.757  0.00  0.00    +0.000 NA
ATOM     21  C   UNL     1       2.439   6.244  18.003  0.00  0.00    +0.000 C 
ATOM     22  C   UNL     1       2.545   7.552  18.810  0.00  0.00    +0.000 C 
BRANCH  20  23
ATOM     23  C   UNL     1       4.291   5.061  19.074  0.00  0.00    +0.000 C 
BRANCH  23  24
ATOM     24  C   UNL     1       5.179   5.023  17.847  0.00  0.00    +0.000 A 
ATOM     25  C   UNL     1       5.029   4.023  16.878  0.00  0.00    +0.000 A 
ATOM     26  C   UNL     1       5.936   3.922  15.821  0.00  0.00    +0.000 A 
ATOM     27  C   UNL     1       6.980   4.840  15.703  0.00  0.00    +0.000 A 
ATOM     28  C   UNL     1       7.100   5.878  16.625  0.00  0.00    +0.000 A 
ATOM     29  C   UNL     1       6.205   5.970  17.691  0.00  0.00    +0.000 A 
ENDBRANCH  23  24
ENDBRANCH  20  23
ENDBRANCH   4  17
TORSDOF 4
ENDMDL
MODEL 4
REMARK VINA RESULT:      -7.7      0.967      1.989
REMARK  Name = 
REMARK  4 active torsions:
REMARK  status: ('A' for Active; 'I' for Inactive)
REMARK    1  A    between atoms: C_4  and  N_5
REMARK    2  A    between atoms: N_8  and  C_9
REMARK    3  A    between atoms: C_9  and  C_10
REMARK    4  A    between atoms: N_21  and  C_22
REMARK                            x       y       z     vdW  Elec       q    Type
REMARK                         _______ _______ _______ _____ _____    ______ ____
ROOT
ATOM      1  O   UNL     1       0.022   9.934  23.904  0.00  0.00    +0.000 OA
ATOM      2  C   UNL     1       0.033  10.035  22.677  0.00  0.00    +0.000 A 
ATOM      3  C   UNL     1       0.788   9.023  21.920  0.00  0.00    +0.000 A 
ATOM      4  C   UNL     1       0.901   9.094  20.589  0.00  0.00    +0.000 A 
ATOM      5  N   UNL     1       0.288  10.135  19.962  0.00  0.00    +0.000 N 
ATOM      6  C   UNL     1      -0.446  11.122  20.550  0.00  0.00    +0.000 A 
ATOM      7  O   UNL     1      -0.974  11.969  19.827  0.00  0.00    +0.000 OA
ATOM      8  N   UNL     1      -0.560  11.046  21.932  0.00  0.00    +0.000 N 
ATOM      9  H   UNL     1       0.315  10.172  18.949  0.00  0.00    +0.000 HD
ENDROOT
BRANCH   8  10
ATOM     10  C   UNL     1      -1.286  12.061  22.624  0.00  0.00    +0.000 A 
ATOM     11  C   UNL     1      -2.612  11.843  23.020  0.00  0.00    +0.000 A 
ATOM     12  C   UNL     1      -3.348  12.878  23.602  0.00  0.00    +0.000 A 
ATOM     13  C   UNL     1      -2.744  14.115  23.826  0.00  0.00    +0.000 A 
ATOM     14 BR   UNL     1      -3.747  15.529  24.577  0.00  0.00    +0.000 Br
ATOM     15  C   UNL     1      -1.411  14.324  23.483  0.00  0.00    +0.000 A 
ATOM     16  C   UNL     1      -0.688  13.303  22.869  0.00  0.00    +0.000 A 
ENDBRANCH   8  10
BRANCH   4  17
ATOM     17  N   UNL     1       1.622   8.165  19.861  0.00  0.00    +0.000 N 
ATOM     18  C   UNL     1       2.149   6.919  20.462  0.00  0.00    +0.000 C 
ATOM     19  C   UNL     1       2.229   5.781  19.418  0.00  0.00    +0.000 C 
ATOM     20  N   UNL     1       2.938   6.127  18.161  0.00  0.00    +0.000 NA
ATOM     21  C   UNL     1       2.293   7.349  17.621  0.00  0.00    +0.000 C 
ATOM     22  C   UNL     1       2.293   8.542  18.597  0.00  0.00    +0.000 C 
BRANCH  20  23
ATOM     23  C   UNL     1       4.387   6.333  18.368  0.00  0.00    +0.000 C 
BRANCH  23  24
ATOM     24  C   UNL     1       5.249   5.646  17.327  0.00  0.00    +0.000 A 
ATOM     25  C   UNL     1       6.412   4.957  17.694  0.00  0.00    +0.000 A 
ATOM     26  C   UNL     1       7.265   4.441  16.716  0.00  0.00    +0.000 A 
ATOM     27  C   UNL     1       6.947   4.579  15.365  0.00  0.00    +0.000 A 
ATOM     28  C   UNL     1       5.760   5.205  14.991  0.00  0.00    +0.000 A 
ATOM     29  C   UNL     1       4.915   5.736  15.966  0.00  0.00    +0.000 A 
ENDBRANCH  23  24
ENDBRANCH  20  23
ENDBRANCH   4  17
TORSDOF 4
ENDMDL
MODEL 5
REMARK VINA RESULT:      -7.6      1.810      3.136
REMARK  Name = 
REMARK  4 active torsions:
REMARK  status: ('A' for Active; 'I' for Inactive)
REMARK    1  A    between atoms: C_4  and  N_5
REMARK    2  A    between atoms: N_8  and  C_9
REMARK    3  A    between atoms: C_9  and  C_10
REMARK    4  A    between atoms: N_21  and  C_22
REMARK                            x       y       z     vdW  Elec       q    Type
REMARK                         _______ _______ _______ _____ _____    ______ ____
ROOT
ATOM      1  O   UNL     1      -0.006   9.960  23.837  0.00  0.00    +0.000 OA
ATOM      2  C   UNL     1       0.025  10.127  22.618  0.00  0.00    +0.000 A 
ATOM      3  C   UNL     1       0.761   9.136  21.816  0.00  0.00    +0.000 A 
ATOM      4  C   UNL     1       0.894   9.275  20.492  0.00  0.00    +0.000 A 
ATOM      5  N   UNL     1       0.319  10.367  19.916  0.00  0.00    +0.000 N 
ATOM      6  C   UNL     1      -0.394  11.341  20.548  0.00  0.00    +0.000 A 
ATOM      7  O   UNL     1      -0.888  12.241  19.865  0.00  0.00    +0.000 OA
ATOM      8  N   UNL     1      -0.529  11.194  21.922  0.00  0.00    +0.000 N 
ATOM      9  H   UNL     1       0.362  10.458  18.906  0.00  0.00    +0.000 HD
ENDROOT
BRANCH   8  10
ATOM     10  C   UNL     1      -1.235  12.190  22.659  0.00  0.00    +0.000 A 
ATOM     11  C   UNL     1      -2.546  11.959  23.094  0.00  0.00    +0.000 A 
ATOM     12  C   UNL     1      -3.266  12.977  23.723  0.00  0.00    +0.000 A 
ATOM     13  C   UNL     1      -2.659  14.211  23.953  0.00  0.00    +0.000 A 
ATOM     14 BR   UNL     1      -3.643  15.604  24.768  0.00  0.00    +0.000 Br
ATOM     15  C   UNL     1      -1.339  14.434  23.571  0.00  0.00    +0.000 A 
ATOM     16  C   UNL     1      -0.633  13.430  22.911  0.00  0.00    +0.000 A 
ENDBRANCH   8  10
BRANCH   4  17
ATOM     17  N   UNL     1       1.599   8.367  19.723  0.00  0.00    +0.000 N 
ATOM     18  C   UNL     1       1.827   8.562  18.274  0.00  0.00    +0.000 C 
ATOM     19  C   UNL     1       3.154   7.910  17.820  0.00  0.00    +0.000 C 
ATOM     20  N   UNL     1       3.329   6.491  18.219  0.00  0.00    +0.000 NA
ATOM     21  C   UNL     1       3.136   6.425  19.689  0.00  0.00    +0.000 C 
ATOM     22  C   UNL     1       1.774   6.967  20.167  0.00  0.00    +0.000 C 
BRANCH  20  23
ATOM     23  C   UNL     1       2.394   5.588  17.515  0.00  0.00    +0.000 C 
BRANCH  23  24
ATOM     24  C   UNL     1       2.479   4.148  17.981  0.00  0.00    +0.000 A 
ATOM     25  C   UNL     1       3.629   3.382  17.756  0.00  0.00    +0.000 A 
ATOM     26  C   UNL     1       3.646   2.022  18.074  0.00  0.00    +0.000 A 
ATOM     27  C   UNL     1       2.527   1.424  18.651  0.00  0.00    +0.000 A 
ATOM     28  C   UNL     1       1.400   2.191  18.940  0.00  0.00    +0.000 A 
ATOM     29  C   UNL     1       1.375   3.545  18.608  0.00  0.00    +0.000 A 
ENDBRANCH  23  24
ENDBRANCH  20  23
ENDBRANCH   4  17
TORSDOF 4
ENDMDL
MODEL 6
REMARK VINA RESULT:      -7.6      1.819      2.800
REMARK  Name = 
REMARK  4 active torsions:
REMARK  status: ('A' for Active; 'I' for Inactive)
REMARK    1  A    between atoms: C_4  and  N_5
REMARK    2  A    between atoms: N_8  and  C_9
REMARK    3  A    between atoms: C_9  and  C_10
REMARK    4  A    between atoms: N_21  and  C_22
REMARK                            x       y       z     vdW  Elec       q    Type
REMARK                         _______ _______ _______ _____ _____    ______ ____
ROOT
ATOM      1  O   UNL     1      -0.968  12.453  19.853  0.00  0.00    +0.000 OA
ATOM      2  C   UNL     1      -0.438  11.540  20.488  0.00  0.00    +0.000 A 
ATOM      3  C   UNL     1       0.311  10.529  19.724  0.00  0.00    +0.000 A 
ATOM      4  C   UNL     1       0.866   9.473  20.329  0.00  0.00    +0.000 A 
ATOM      5  N   UNL     1       0.714   9.373  21.678  0.00  0.00    +0.000 N 
ATOM      6  C   UNL     1       0.057  10.247  22.492  0.00  0.00    +0.000 A 
ATOM      7  O   UNL     1       0.054  10.028  23.705  0.00  0.00    +0.000 OA
ATOM      8  N   UNL     1      -0.518  11.342  21.860  0.00  0.00    +0.000 N 
ATOM      9  H   UNL     1       1.177   8.609  22.160  0.00  0.00    +0.000 HD
ENDROOT
BRANCH   8  10
ATOM     10  C   UNL     1      -1.251  12.285  22.640  0.00  0.00    +0.000 A 
ATOM     11  C   UNL     1      -2.570  12.018  23.026  0.00  0.00    +0.000 A 
ATOM     12  C   UNL     1      -3.314  12.991  23.699  0.00  0.00    +0.000 A 
ATOM     13  C   UNL     1      -2.723  14.212  24.020  0.00  0.00    +0.000 A 
ATOM     14 BR   UNL     1      -3.737  15.545  24.895  0.00  0.00    +0.000 Br
ATOM     15  C   UNL     1      -1.396  14.467  23.686  0.00  0.00    +0.000 A 
ATOM     16  C   UNL     1      -0.665  13.511  22.983  0.00  0.00    +0.000 A 
ENDBRANCH   8  10
BRANCH   4  17
ATOM     17  N   UNL     1       1.556   8.501  19.628  0.00  0.00    +0.000 N 
ATOM     18  C   UNL     1       1.826   8.609  18.176  0.00  0.00    +0.000 C 
ATOM     19  C   UNL     1       3.140   7.889  17.793  0.00  0.00    +0.000 C 
ATOM     20  N   UNL     1       3.254   6.488  18.271  0.00  0.00    +0.000 NA
ATOM     21  C   UNL     1       3.023   6.509  19.737  0.00  0.00    +0.000 C 
ATOM     22  C   UNL     1       1.671   7.122  20.150  0.00  0.00    +0.000 C 
BRANCH  20  23
ATOM     23  C   UNL     1       2.305   5.581  17.592  0.00  0.00    +0.000 C 
BRANCH  23  24
ATOM     24  C   UNL     1       2.395   4.146  18.070  0.00  0.00    +0.000 A 
ATOM     25  C   UNL     1       3.539   3.374  17.827  0.00  0.00    +0.000 A 
ATOM     26  C   UNL     1       3.558   2.017  18.157  0.00  0.00    +0.000 A 
ATOM     27  C   UNL     1       2.450   1.428  18.763  0.00  0.00    +0.000 A 
ATOM     28  C   UNL     1       1.331   2.200  19.069  0.00  0.00    +0.000 A 
ATOM     29  C   UNL     1       1.303   3.552  18.725  0.00  0.00    +0.000 A 
ENDBRANCH  23  24
ENDBRANCH  20  23
ENDBRANCH   4  17
TORSDOF 4
ENDMDL
MODEL 7
REMARK VINA RESULT:      -7.6      0.699      1.111
REMARK  Name = 
REMARK  4 active torsions:
REMARK  status: ('A' for Active; 'I' for Inactive)
REMARK    1  A    between atoms: C_4  and  N_5
REMARK    2  A    between atoms: N_8  and  C_9
REMARK    3  A    between atoms: C_9  and  C_10
REMARK    4  A    between atoms: N_21  and  C_22
REMARK                            x       y       z     vdW  Elec       q    Type
REMARK                         _______ _______ _______ _____ _____    ______ ____
ROOT
ATOM      1  O   UNL     1      -0.278  11.251  19.271  0.00  0.00    +0.000 OA
ATOM      2  C   UNL     1       0.187  10.462  20.093  0.00  0.00    +0.000 A 
ATOM      3  C   UNL     1       0.806   9.230  19.575  0.00  0.00    +0.000 A 
ATOM      4  C   UNL     1       1.281   8.292  20.402  0.00  0.00    +0.000 A 
ATOM      5  N   UNL     1       1.174   8.523  21.739  0.00  0.00    +0.000 N 
ATOM      6  C   UNL     1       0.636   9.624  22.336  0.00  0.00    +0.000 A 
ATOM      7  O   UNL     1       0.661   9.693  23.566  0.00  0.00    +0.000 OA
ATOM      8  N   UNL     1       0.143  10.595  21.474  0.00  0.00    +0.000 N 
ATOM      9  H   UNL     1       1.580   7.848  22.379  0.00  0.00    +0.000 HD
ENDROOT
BRANCH   8  10
ATOM     10  C   UNL     1      -0.464  11.763  22.023  0.00  0.00    +0.000 A 
ATOM     11  C   UNL     1       0.141  13.017  21.875  0.00  0.00    +0.000 A 
ATOM     12  C   UNL     1      -0.405  14.138  22.504  0.00  0.00    +0.000 A 
ATOM     13  C   UNL     1      -1.579  14.011  23.246  0.00  0.00    +0.000 A 
ATOM     14 BR   UNL     1      -2.300  15.517  24.131  0.00  0.00    +0.000 Br
ATOM     15  C   UNL     1      -2.217  12.778  23.356  0.00  0.00    +0.000 A 
ATOM     16  C   UNL     1      -1.652  11.653  22.758  0.00  0.00    +0.000 A 
ENDBRANCH   8  10
BRANCH   4  17
ATOM     17  N   UNL     1       1.847   7.119  19.937  0.00  0.00    +0.000 N 
ATOM     18  C   UNL     1       1.970   5.907  20.779  0.00  0.00    +0.000 C 
ATOM     19  C   UNL     1       1.912   4.620  19.925  0.00  0.00    +0.000 C 
ATOM     20  N   UNL     1       2.846   4.585  18.772  0.00  0.00    +0.000 NA
ATOM     21  C   UNL     1       2.595   5.809  17.972  0.00  0.00    +0.000 C 
ATOM     22  C   UNL     1       2.752   7.121  18.767  0.00  0.00    +0.000 C 
BRANCH  20  23
ATOM     23  C   UNL     1       4.261   4.501  19.193  0.00  0.00    +0.000 C 
BRANCH  23  24
ATOM     24  C   UNL     1       5.236   4.479  18.033  0.00  0.00    +0.000 A 
ATOM     25  C   UNL     1       4.854   3.991  16.777  0.00  0.00    +0.000 A 
ATOM     26  C   UNL     1       5.797   3.856  15.756  0.00  0.00    +0.000 A 
ATOM     27  C   UNL     1       7.120   4.240  15.969  0.00  0.00    +0.000 A 
ATOM     28  C   UNL     1       7.497   4.788  17.193  0.00  0.00    +0.000 A 
ATOM     29  C   UNL     1       6.561   4.907  18.220  0.00  0.00    +0.000 A 
ENDBRANCH  23  24
ENDBRANCH  20  23
ENDBRANCH   4  17
TORSDOF 4
ENDMDL
MODEL 8
REMARK VINA RESULT:      -7.5      0.884      1.951
REMARK  Name = 
REMARK  4 active torsions:
REMARK  status: ('A' for Active; 'I' for Inactive)
REMARK    1  A    between atoms: C_4  and  N_5
REMARK    2  A    between atoms: N_8  and  C_9
REMARK    3  A    between atoms: C_9  and  C_10
REMARK    4  A    between atoms: N_21  and  C_22
REMARK                            x       y       z     vdW  Elec       q    Type
REMARK                         _______ _______ _______ _____ _____    ______ ____
ROOT
ATOM      1  O   UNL     1       0.537  10.038  23.382  0.00  0.00    +0.000 OA
ATOM      2  C   UNL     1       0.553   9.889  22.160  0.00  0.00    +0.000 A 
ATOM      3  C   UNL     1       1.154   8.652  21.636  0.00  0.00    +0.000 A 
ATOM      4  C   UNL     1       1.266   8.439  20.320  0.00  0.00    +0.000 A 
ATOM      5  N   UNL     1       0.799   9.409  19.486  0.00  0.00    +0.000 N 
ATOM      6  C   UNL     1       0.214  10.584  19.850  0.00  0.00    +0.000 A 
ATOM      7  O   UNL     1      -0.196  11.334  18.962  0.00  0.00    +0.000 OA
ATOM      8  N   UNL     1       0.100  10.803  21.217  0.00  0.00    +0.000 N 
ATOM      9  H   UNL     1       0.824   9.238  18.486  0.00  0.00    +0.000 HD
ENDROOT
BRANCH   8  10
ATOM     10  C   UNL     1      -0.472  12.025  21.678  0.00  0.00    +0.000 A 
ATOM     11  C   UNL     1       0.263  13.216  21.636  0.00  0.00    +0.000 A 
ATOM     12  C   UNL     1      -0.266  14.386  22.186  0.00  0.00    +0.000 A 
ATOM     13  C   UNL     1      -1.546  14.372  22.738  0.00  0.00    +0.000 A 
ATOM     14 BR   UNL     1      -2.250  15.944  23.517  0.00  0.00    +0.000 Br
ATOM     15  C   UNL     1      -2.305  13.205  22.737  0.00  0.00    +0.000 A 
ATOM     16  C   UNL     1      -1.763  12.030  22.222  0.00  0.00    +0.000 A 
ENDBRANCH   8  10
BRANCH   4  17
ATOM     17  N   UNL     1       1.846   7.293  19.806  0.00  0.00    +0.000 N 
ATOM     18  C   UNL     1       2.078   6.083  20.627  0.00  0.00    +0.000 C 
ATOM     19  C   UNL     1       2.013   4.799  19.767  0.00  0.00    +0.000 C 
ATOM     20  N   UNL     1       2.865   4.811  18.551  0.00  0.00    +0.000 NA
ATOM     21  C   UNL     1       2.509   6.029  17.782  0.00  0.00    +0.000 C 
ATOM     22  C   UNL     1       2.667   7.340  18.576  0.00  0.00    +0.000 C 
BRANCH  20  23
ATOM     23  C   UNL     1       4.308   4.783  18.872  0.00  0.00    +0.000 C 
BRANCH  23  24
ATOM     24  C   UNL     1       5.200   4.799  17.647  0.00  0.00    +0.000 A 
ATOM     25  C   UNL     1       5.013   3.880  16.607  0.00  0.00    +0.000 A 
ATOM     26  C   UNL     1       5.921   3.820  15.546  0.00  0.00    +0.000 A 
ATOM     27  C   UNL     1       7.000   4.701  15.498  0.00  0.00    +0.000 A 
ATOM     28  C   UNL     1       7.159   5.662  16.494  0.00  0.00    +0.000 A 
ATOM     29  C   UNL     1       6.264   5.712  17.563  0.00  0.00    +0.000 A 
ENDBRANCH  23  24
ENDBRANCH  20  23
ENDBRANCH   4  17
TORSDOF 4
ENDMDL
MODEL 9
REMARK VINA RESULT:      -7.5      1.100      1.255
REMARK  Name = 
REMARK  4 active torsions:
REMARK  status: ('A' for Active; 'I' for Inactive)
REMARK    1  A    between atoms: C_4  and  N_5
REMARK    2  A    between atoms: N_8  and  C_9
REMARK    3  A    between atoms: C_9  and  C_10
REMARK    4  A    between atoms: N_21  and  C_22
REMARK                            x       y       z     vdW  Elec       q    Type
REMARK                         _______ _______ _______ _____ _____    ______ ____
ROOT
ATOM      1  O   UNL     1       0.273  11.035  18.908  0.00  0.00    +0.000 OA
ATOM      2  C   UNL     1       0.694  10.256  19.763  0.00  0.00    +0.000 A 
ATOM      3  C   UNL     1       1.202   8.953  19.301  0.00  0.00    +0.000 A 
ATOM      4  C   UNL     1       1.622   8.026  20.169  0.00  0.00    +0.000 A 
ATOM      5  N   UNL     1       1.566   8.335  21.494  0.00  0.00    +0.000 N 
ATOM      6  C   UNL     1       1.131   9.505  22.039  0.00  0.00    +0.000 A 
ATOM      7  O   UNL     1       1.191   9.639  23.263  0.00  0.00    +0.000 OA
ATOM      8  N   UNL     1       0.694  10.466  21.136  0.00  0.00    +0.000 N 
ATOM      9  H   UNL     1       1.935   7.666  22.162  0.00  0.00    +0.000 HD
ENDROOT
BRANCH   8  10
ATOM     10  C   UNL     1       0.194  11.706  21.631  0.00  0.00    +0.000 A 
ATOM     11  C   UNL     1       0.910  12.893  21.432  0.00  0.00    +0.000 A 
ATOM     12  C   UNL     1       0.466  14.085  22.011  0.00  0.00    +0.000 A 
ATOM     13  C   UNL     1      -0.716  14.095  22.752  0.00  0.00    +0.000 A 
ATOM     14 BR   UNL     1      -1.299  15.696  23.568  0.00  0.00    +0.000 Br
ATOM     15  C   UNL     1      -1.461  12.930  22.911  0.00  0.00    +0.000 A 
ATOM     16  C   UNL     1      -0.999  11.734  22.365  0.00  0.00    +0.000 A 
ENDBRANCH   8  10
BRANCH   4  17
ATOM     17  N   UNL     1       2.083   6.788  19.758  0.00  0.00    +0.000 N 
ATOM     18  C   UNL     1       2.112   5.612  20.657  0.00  0.00    +0.000 C 
ATOM     19  C   UNL     1       1.938   4.295  19.867  0.00  0.00    +0.000 C 
ATOM     20  N   UNL     1       2.855   4.126  18.711  0.00  0.00    +0.000 NA
ATOM     21  C   UNL     1       2.701   5.328  17.855  0.00  0.00    +0.000 C 
ATOM     22  C   UNL     1       2.975   6.658  18.585  0.00  0.00    +0.000 C 
BRANCH  20  23
ATOM     23  C   UNL     1       4.262   3.943  19.129  0.00  0.00    +0.000 C 
BRANCH  23  24
ATOM     24  C   UNL     1       5.257   4.158  18.007  0.00  0.00    +0.000 A 
ATOM     25  C   UNL     1       6.407   4.935  18.200  0.00  0.00    +0.000 A 
ATOM     26  C   UNL     1       7.248   5.232  17.126  0.00  0.00    +0.000 A 
ATOM     27  C   UNL     1       6.967   4.728  15.857  0.00  0.00    +0.000 A 
ATOM     28  C   UNL     1       5.862   3.900  15.666  0.00  0.00    +0.000 A 
ATOM     29  C   UNL     1       5.012   3.616  16.734  0.00  0.00    +0.000 A 
ENDBRANCH  23  24
ENDBRANCH  20  23
ENDBRANCH   4  17
TORSDOF 4
ENDMDL
