MODEL 1
REMARK VINA RESULT:      -6.8      0.000      0.000
REMARK  Name = 
REMARK  11 active torsions:
REMARK  status: ('A' for Active; 'I' for Inactive)
REMARK    1  A    between atoms: C_1  and  C_2
REMARK    2  A    between atoms: C_2  and  C_3
REMARK    3  A    between atoms: C_2  and  C_4
REMARK    4  A    between atoms: C_4  and  N_5
REMARK    5  A    between atoms: C_4  and  C_13
REMARK    6  A    between atoms: C_6  and  O_8
REMARK    7  A    between atoms: O_8  and  C_9
REMARK    8  A    between atoms: C_9  and  C_10
REMARK    9  A    between atoms: C_9  and  C_11
REMARK   10  A    between atoms: C_9  and  C_12
REMARK   11  A    between atoms: C_27  and  C_29
REMARK                            x       y       z     vdW  Elec       q    Type
REMARK                         _______ _______ _______ _____ _____    ______ ____
ROOT
ATOM      1  C   UNL     1       0.984  11.963  20.248  0.00  0.00    +0.000 C 
ATOM      2  O   UNL     1       1.917  12.766  20.352  0.00  0.00    +0.000 OA
ATOM      3  N   UNL     1       1.076  10.883  19.388  0.00  0.00    +0.000 N 
ATOM      4  C   UNL     1       1.916  11.023  18.175  0.00  0.00    +0.000 C 
ATOM      5  C   UNL     1       2.327   9.607  17.754  0.00  0.00    +0.000 C 
ATOM      6  C   UNL     1       2.173   8.885  19.070  0.00  0.00    +0.000 C 
ATOM      7  C   UNL     1       0.840   9.451  19.605  0.00  0.00    +0.000 C 
ATOM      8  C   UNL     1       0.774   8.680  20.920  0.00  0.00    +0.000 C 
ATOM      9  C   UNL     1      -0.619   8.414  21.585  0.00  0.00    +0.000 C 
ATOM     10  C   UNL     1      -0.240   9.365  22.710  0.00  0.00    +0.000 C 
ATOM     11  C   UNL     1       1.233   9.288  22.275  0.00  0.00    +0.000 C 
ATOM     12  C   UNL     1       1.492   7.252  20.488  0.00  0.00    +0.000 C 
ATOM     13  O   UNL     1       1.486   6.196  21.105  0.00  0.00    +0.000 OA
ATOM     14  N   UNL     1       2.094   7.467  19.223  0.00  0.00    +0.000 N 
ATOM     15  C   UNL     1       2.854   6.619  18.413  0.00  0.00    +0.000 C 
ATOM     16  O   UNL     1       3.547   7.052  17.494  0.00  0.00    +0.000 OA
ENDROOT
BRANCH  15  17
ATOM     17  C   UNL     1       2.816   5.143  18.651  0.00  0.00    +0.000 C 
ATOM     18  C   UNL     1       1.719   4.301  18.031  0.00  0.00    +0.000 C 
ATOM     19  C   UNL     1       3.117   4.208  17.495  0.00  0.00    +0.000 C 
ENDBRANCH  15  17
BRANCH   1  20
ATOM     20  C   UNL     1      -0.356  12.231  20.961  0.00  0.00    +0.000 C 
BRANCH  20  21
ATOM     21  N   UNL     1      -0.183  13.183  22.075  0.00  0.00    +0.000 N 
ATOM     22  C   UNL     1      -1.070  13.207  23.115  0.00  0.00    +0.000 C 
ATOM     23  O   UNL     1      -2.030  12.456  23.175  0.00  0.00    +0.000 OA
ATOM     24  H   UNL     1       0.623  13.793  22.102  0.00  0.00    +0.000 HD
BRANCH  22  25
ATOM     25  O   UNL     1      -0.727  14.112  24.075  0.00  0.00    +0.000 OA
BRANCH  25  26
ATOM     26  C   UNL     1      -1.622  15.254  24.269  0.00  0.00    +0.000 C 
ATOM     27  C   UNL     1      -2.764  14.959  25.261  0.00  0.00    +0.000 C 
ATOM     28  C   UNL     1      -0.775  16.392  24.866  0.00  0.00    +0.000 C 
ATOM     29  C   UNL     1      -2.157  15.743  22.913  0.00  0.00    +0.000 C 
ENDBRANCH  25  26
ENDBRANCH  22  25
ENDBRANCH  20  21
BRANCH  20  31
ATOM     30  C   UNL     1      -2.195  11.570  19.322  0.00  0.00    +0.000 C 
ATOM     31  C   UNL     1      -1.458  12.725  19.982  0.00  0.00    +0.000 C 
ATOM     32  C   UNL     1      -0.956  13.745  18.957  0.00  0.00    +0.000 C 
ENDBRANCH  20  31
ENDBRANCH   1  20
TORSDOF 6
ENDMDL
MODEL 2
REMARK VINA RESULT:      -6.5      0.751      1.001
REMARK  Name = 
REMARK  11 active torsions:
REMARK  status: ('A' for Active; 'I' for Inactive)
REMARK    1  A    between atoms: C_1  and  C_2
REMARK    2  A    between atoms: C_2  and  C_3
REMARK    3  A    between atoms: C_2  and  C_4
REMARK    4  A    between atoms: C_4  and  N_5
REMARK    5  A    between atoms: C_4  and  C_13
REMARK    6  A    between atoms: C_6  and  O_8
REMARK    7  A    between atoms: O_8  and  C_9
REMARK    8  A    between atoms: C_9  and  C_10
REMARK    9  A    between atoms: C_9  and  C_11
REMARK   10  A    between atoms: C_9  and  C_12
REMARK   11  A    between atoms: C_27  and  C_29
REMARK                            x       y       z     vdW  Elec       q    Type
REMARK                         _______ _______ _______ _____ _____    ______ ____
ROOT
ATOM      1  C   UNL     1       1.011  11.690  19.997  0.00  0.00    +0.000 C 
ATOM      2  O   UNL     1       1.932  12.512  20.036  0.00  0.00    +0.000 OA
ATOM      3  N   UNL     1       1.109  10.558  19.208  0.00  0.00    +0.000 N 
ATOM      4  C   UNL     1       1.930  10.631  17.977  0.00  0.00    +0.000 C 
ATOM      5  C   UNL     1       2.359   9.197  17.643  0.00  0.00    +0.000 C 
ATOM      6  C   UNL     1       2.234   8.560  19.005  0.00  0.00    +0.000 C 
ATOM      7  C   UNL     1       0.900   9.139  19.521  0.00  0.00    +0.000 C 
ATOM      8  C   UNL     1       0.864   8.455  20.884  0.00  0.00    +0.000 C 
ATOM      9  C   UNL     1      -0.515   8.211  21.585  0.00  0.00    +0.000 C 
ATOM     10  C   UNL     1      -0.137   9.239  22.640  0.00  0.00    +0.000 C 
ATOM     11  C   UNL     1       1.331   9.157  22.190  0.00  0.00    +0.000 C 
ATOM     12  C   UNL     1       1.600   7.013  20.535  0.00  0.00    +0.000 C 
ATOM     13  O   UNL     1       1.620   6.000  21.220  0.00  0.00    +0.000 OA
ATOM     14  N   UNL     1       2.181   7.155  19.251  0.00  0.00    +0.000 N 
ATOM     15  C   UNL     1       2.944   6.267  18.486  0.00  0.00    +0.000 C 
ATOM     16  O   UNL     1       3.617   6.650  17.531  0.00  0.00    +0.000 OA
ENDROOT
BRANCH  15  17
ATOM     17  C   UNL     1       2.934   4.809  18.820  0.00  0.00    +0.000 C 
ATOM     18  C   UNL     1       3.753   3.836  17.997  0.00  0.00    +0.000 C 
ATOM     19  C   UNL     1       4.191   4.181  19.389  0.00  0.00    +0.000 C 
ENDBRANCH  15  17
BRANCH   1  20
ATOM     20  C   UNL     1      -0.323  11.983  20.711  0.00  0.00    +0.000 C 
BRANCH  20  21
ATOM     21  N   UNL     1      -0.256  13.250  21.463  0.00  0.00    +0.000 N 
ATOM     22  C   UNL     1      -0.633  13.302  22.776  0.00  0.00    +0.000 C 
ATOM     23  O   UNL     1      -1.034  12.322  23.383  0.00  0.00    +0.000 OA
ATOM     24  H   UNL     1       0.117  14.082  21.026  0.00  0.00    +0.000 HD
BRANCH  22  25
ATOM     25  O   UNL     1      -0.457  14.539  23.323  0.00  0.00    +0.000 OA
BRANCH  25  26
ATOM     26  C   UNL     1      -1.606  15.446  23.308  0.00  0.00    +0.000 C 
ATOM     27  C   UNL     1      -2.956  14.705  23.366  0.00  0.00    +0.000 C 
ATOM     28  C   UNL     1      -1.505  16.318  24.572  0.00  0.00    +0.000 C 
ATOM     29  C   UNL     1      -1.523  16.386  22.094  0.00  0.00    +0.000 C 
ENDBRANCH  25  26
ENDBRANCH  22  25
ENDBRANCH  20  21
BRANCH  20  31
ATOM     30  C   UNL     1      -1.196  12.687  18.420  0.00  0.00    +0.000 C 
ATOM     31  C   UNL     1      -1.530  11.990  19.729  0.00  0.00    +0.000 C 
ATOM     32  C   UNL     1      -2.823  12.523  20.350  0.00  0.00    +0.000 C 
ENDBRANCH  20  31
ENDBRANCH   1  20
TORSDOF 6
ENDMDL
MODEL 3
REMARK VINA RESULT:      -6.4      2.414      4.072
REMARK  Name = 
REMARK  11 active torsions:
REMARK  status: ('A' for Active; 'I' for Inactive)
REMARK    1  A    between atoms: C_1  and  C_2
REMARK    2  A    between atoms: C_2  and  C_3
REMARK    3  A    between atoms: C_2  and  C_4
REMARK    4  A    between atoms: C_4  and  N_5
REMARK    5  A    between atoms: C_4  and  C_13
REMARK    6  A    between atoms: C_6  and  O_8
REMARK    7  A    between atoms: O_8  and  C_9
REMARK    8  A    between atoms: C_9  and  C_10
REMARK    9  A    between atoms: C_9  and  C_11
REMARK   10  A    between atoms: C_9  and  C_12
REMARK   11  A    between atoms: C_27  and  C_29
REMARK                            x       y       z     vdW  Elec       q    Type
REMARK                         _______ _______ _______ _____ _____    ______ ____
ROOT
ATOM      1  C   UNL     1      -1.731  11.901  22.496  0.00  0.00    +0.000 C 
ATOM      2  O   UNL     1      -2.720  11.400  23.041  0.00  0.00    +0.000 OA
ATOM      3  N   UNL     1      -0.573  11.164  22.324  0.00  0.00    +0.000 N 
ATOM      4  C   UNL     1      -0.269  10.097  23.306  0.00  0.00    +0.000 C 
ATOM      5  C   UNL     1       0.656   9.096  22.603  0.00  0.00    +0.000 C 
ATOM      6  C   UNL     1       0.309   9.384  21.163  0.00  0.00    +0.000 C 
ATOM      7  C   UNL     1       0.255  10.926  21.136  0.00  0.00    +0.000 C 
ATOM      8  C   UNL     1      -0.104  11.117  19.666  0.00  0.00    +0.000 C 
ATOM      9  C   UNL     1       0.284  12.455  18.948  0.00  0.00    +0.000 C 
ATOM     10  C   UNL     1      -1.191  12.814  18.865  0.00  0.00    +0.000 C 
ATOM     11  C   UNL     1      -1.561  11.354  19.180  0.00  0.00    +0.000 C 
ATOM     12  C   UNL     1       0.690   9.839  18.975  0.00  0.00    +0.000 C 
ATOM     13  O   UNL     1       0.924   9.658  17.789  0.00  0.00    +0.000 OA
ATOM     14  N   UNL     1       1.095   8.992  20.037  0.00  0.00    +0.000 N 
ATOM     15  C   UNL     1       1.767   7.767  20.027  0.00  0.00    +0.000 C 
ATOM     16  O   UNL     1       1.775   7.026  21.009  0.00  0.00    +0.000 OA
ENDROOT
BRANCH  15  17
ATOM     17  C   UNL     1       2.513   7.344  18.801  0.00  0.00    +0.000 C 
ATOM     18  C   UNL     1       3.458   6.161  18.858  0.00  0.00    +0.000 C 
ATOM     19  C   UNL     1       2.148   6.030  18.139  0.00  0.00    +0.000 C 
ENDBRANCH  15  17
BRANCH   1  20
ATOM     20  C   UNL     1      -1.719  13.398  22.131  0.00  0.00    +0.000 C 
BRANCH  20  21
ATOM     21  N   UNL     1      -2.981  14.052  22.526  0.00  0.00    +0.000 N 
ATOM     22  C   UNL     1      -4.042  14.098  21.665  0.00  0.00    +0.000 C 
ATOM     23  O   UNL     1      -4.001  13.609  20.548  0.00  0.00    +0.000 OA
ATOM     24  H   UNL     1      -3.088  14.428  23.459  0.00  0.00    +0.000 HD
BRANCH  22  25
ATOM     25  O   UNL     1      -5.138  14.693  22.216  0.00  0.00    +0.000 OA
BRANCH  25  26
ATOM     26  C   UNL     1      -6.152  13.815  22.802  0.00  0.00    +0.000 C 
ATOM     27  C   UNL     1      -5.596  12.928  23.933  0.00  0.00    +0.000 C 
ATOM     28  C   UNL     1      -7.231  14.724  23.418  0.00  0.00    +0.000 C 
ATOM     29  C   UNL     1      -6.829  12.979  21.703  0.00  0.00    +0.000 C 
ENDBRANCH  25  26
ENDBRANCH  22  25
ENDBRANCH  20  21
BRANCH  20  31
ATOM     30  C   UNL     1      -0.916  15.144  23.808  0.00  0.00    +0.000 C 
ATOM     31  C   UNL     1      -0.499  14.145  22.740  0.00  0.00    +0.000 C 
ATOM     32  C   UNL     1       0.420  14.777  21.692  0.00  0.00    +0.000 C 
ENDBRANCH  20  31
ENDBRANCH   1  20
TORSDOF 6
ENDMDL
MODEL 4
REMARK VINA RESULT:      -6.3      0.613      1.061
REMARK  Name = 
REMARK  11 active torsions:
REMARK  status: ('A' for Active; 'I' for Inactive)
REMARK    1  A    between atoms: C_1  and  C_2
REMARK    2  A    between atoms: C_2  and  C_3
REMARK    3  A    between atoms: C_2  and  C_4
REMARK    4  A    between atoms: C_4  and  N_5
REMARK    5  A    between atoms: C_4  and  C_13
REMARK    6  A    between atoms: C_6  and  O_8
REMARK    7  A    between atoms: O_8  and  C_9
REMARK    8  A    between atoms: C_9  and  C_10
REMARK    9  A    between atoms: C_9  and  C_11
REMARK   10  A    between atoms: C_9  and  C_12
REMARK   11  A    between atoms: C_27  and  C_29
REMARK                            x       y       z     vdW  Elec       q    Type
REMARK                         _______ _______ _______ _____ _____    ______ ____
ROOT
ATOM      1  C   UNL     1       0.820  12.019  20.236  0.00  0.00    +0.000 C 
ATOM      2  O   UNL     1       1.715  12.862  20.359  0.00  0.00    +0.000 OA
ATOM      3  N   UNL     1       0.973  10.948  19.374  0.00  0.00    +0.000 N 
ATOM      4  C   UNL     1       1.826  11.130  18.176  0.00  0.00    +0.000 C 
ATOM      5  C   UNL     1       2.305   9.735  17.756  0.00  0.00    +0.000 C 
ATOM      6  C   UNL     1       2.161   9.001  19.067  0.00  0.00    +0.000 C 
ATOM      7  C   UNL     1       0.797   9.506  19.582  0.00  0.00    +0.000 C 
ATOM      8  C   UNL     1       0.743   8.727  20.893  0.00  0.00    +0.000 C 
ATOM      9  C   UNL     1      -0.648   8.397  21.534  0.00  0.00    +0.000 C 
ATOM     10  C   UNL     1      -0.329   9.359  22.668  0.00  0.00    +0.000 C 
ATOM     11  C   UNL     1       1.153   9.348  22.257  0.00  0.00    +0.000 C 
ATOM     12  C   UNL     1       1.530   7.334  20.467  0.00  0.00    +0.000 C 
ATOM     13  O   UNL     1       1.561   6.276  21.081  0.00  0.00    +0.000 OA
ATOM     14  N   UNL     1       2.142   7.581  19.214  0.00  0.00    +0.000 N 
ATOM     15  C   UNL     1       2.952   6.770  18.413  0.00  0.00    +0.000 C 
ATOM     16  O   UNL     1       3.640   7.238  17.507  0.00  0.00    +0.000 OA
ENDROOT
BRANCH  15  17
ATOM     17  C   UNL     1       2.975   5.293  18.644  0.00  0.00    +0.000 C 
ATOM     18  C   UNL     1       3.901   4.412  17.831  0.00  0.00    +0.000 C 
ATOM     19  C   UNL     1       4.205   4.671  19.277  0.00  0.00    +0.000 C 
ENDBRANCH  15  17
BRANCH   1  20
ATOM     20  C   UNL     1      -0.542  12.225  20.929  0.00  0.00    +0.000 C 
BRANCH  20  21
ATOM     21  N   UNL     1      -0.445  13.231  22.004  0.00  0.00    +0.000 N 
ATOM     22  C   UNL     1      -1.105  13.053  23.187  0.00  0.00    +0.000 C 
ATOM     23  O   UNL     1      -1.794  12.070  23.412  0.00  0.00    +0.000 OA
ATOM     24  H   UNL     1       0.153  14.039  21.892  0.00  0.00    +0.000 HD
BRANCH  22  25
ATOM     25  O   UNL     1      -0.861  14.054  24.080  0.00  0.00    +0.000 OA
BRANCH  25  26
ATOM     26  C   UNL     1      -1.970  14.958  24.391  0.00  0.00    +0.000 C 
ATOM     27  C   UNL     1      -1.813  15.651  25.758  0.00  0.00    +0.000 C 
ATOM     28  C   UNL     1      -1.967  16.057  23.314  0.00  0.00    +0.000 C 
ATOM     29  C   UNL     1      -3.309  14.211  24.281  0.00  0.00    +0.000 C 
ENDBRANCH  25  26
ENDBRANCH  22  25
ENDBRANCH  20  21
BRANCH  20  31
ATOM     30  C   UNL     1      -2.655  13.594  20.516  0.00  0.00    +0.000 C 
ATOM     31  C   UNL     1      -1.665  12.604  19.922  0.00  0.00    +0.000 C 
ATOM     32  C   UNL     1      -2.368  11.393  19.303  0.00  0.00    +0.000 C 
ENDBRANCH  20  31
ENDBRANCH   1  20
TORSDOF 6
ENDMDL
MODEL 5
REMARK VINA RESULT:      -6.2      2.089      3.934
REMARK  Name = 
REMARK  11 active torsions:
REMARK  status: ('A' for Active; 'I' for Inactive)
REMARK    1  A    between atoms: C_1  and  C_2
REMARK    2  A    between atoms: C_2  and  C_3
REMARK    3  A    between atoms: C_2  and  C_4
REMARK    4  A    between atoms: C_4  and  N_5
REMARK    5  A    between atoms: C_4  and  C_13
REMARK    6  A    between atoms: C_6  and  O_8
REMARK    7  A    between atoms: O_8  and  C_9
REMARK    8  A    between atoms: C_9  and  C_10
REMARK    9  A    between atoms: C_9  and  C_11
REMARK   10  A    between atoms: C_9  and  C_12
REMARK   11  A    between atoms: C_27  and  C_29
REMARK                            x       y       z     vdW  Elec       q    Type
REMARK                         _______ _______ _______ _____ _____    ______ ____
ROOT
ATOM      1  C   UNL     1      -1.761  11.823  22.627  0.00  0.00    +0.000 C 
ATOM      2  O   UNL     1      -2.735  11.299  23.177  0.00  0.00    +0.000 OA
ATOM      3  N   UNL     1      -0.597  11.105  22.418  0.00  0.00    +0.000 N 
ATOM      4  C   UNL     1      -0.265  10.019  23.370  0.00  0.00    +0.000 C 
ATOM      5  C   UNL     1       0.659   9.045  22.628  0.00  0.00    +0.000 C 
ATOM      6  C   UNL     1       0.285   9.362  21.201  0.00  0.00    +0.000 C 
ATOM      7  C   UNL     1       0.213  10.904  21.212  0.00  0.00    +0.000 C 
ATOM      8  C   UNL     1      -0.173  11.125  19.752  0.00  0.00    +0.000 C 
ATOM      9  C   UNL     1       0.188  12.484  19.060  0.00  0.00    +0.000 C 
ATOM     10  C   UNL     1      -1.293  12.827  19.009  0.00  0.00    +0.000 C 
ATOM     11  C   UNL     1      -1.640  11.357  19.296  0.00  0.00    +0.000 C 
ATOM     12  C   UNL     1       0.624   9.873  19.019  0.00  0.00    +0.000 C 
ATOM     13  O   UNL     1       0.840   9.722  17.825  0.00  0.00    +0.000 OA
ATOM     14  N   UNL     1       1.056   9.006  20.053  0.00  0.00    +0.000 N 
ATOM     15  C   UNL     1       1.742   7.790  20.003  0.00  0.00    +0.000 C 
ATOM     16  O   UNL     1       1.774   7.026  20.967  0.00  0.00    +0.000 OA
ENDROOT
BRANCH  15  17
ATOM     17  C   UNL     1       2.472   7.405  18.756  0.00  0.00    +0.000 C 
ATOM     18  C   UNL     1       3.446   6.244  18.774  0.00  0.00    +0.000 C 
ATOM     19  C   UNL     1       2.125   6.092  18.081  0.00  0.00    +0.000 C 
ENDBRANCH  15  17
BRANCH   1  20
ATOM     20  C   UNL     1      -1.772  13.329  22.297  0.00  0.00    +0.000 C 
BRANCH  20  21
ATOM     21  N   UNL     1      -3.024  13.963  22.750  0.00  0.00    +0.000 N 
ATOM     22  C   UNL     1      -3.960  14.385  21.847  0.00  0.00    +0.000 C 
ATOM     23  O   UNL     1      -3.811  14.259  20.642  0.00  0.00    +0.000 OA
ATOM     24  H   UNL     1      -3.224  14.046  23.739  0.00  0.00    +0.000 HD
BRANCH  22  25
ATOM     25  O   UNL     1      -5.072  14.899  22.445  0.00  0.00    +0.000 OA
BRANCH  25  26
ATOM     26  C   UNL     1      -5.006  16.290  22.896  0.00  0.00    +0.000 C 
ATOM     27  C   UNL     1      -3.965  17.122  22.122  0.00  0.00    +0.000 C 
ATOM     28  C   UNL     1      -6.387  16.914  22.627  0.00  0.00    +0.000 C 
ATOM     29  C   UNL     1      -4.766  16.345  24.413  0.00  0.00    +0.000 C 
ENDBRANCH  25  26
ENDBRANCH  22  25
ENDBRANCH  20  21
BRANCH  20  31
ATOM     30  C   UNL     1      -0.924  15.039  23.988  0.00  0.00    +0.000 C 
ATOM     31  C   UNL     1      -0.537  14.071  22.881  0.00  0.00    +0.000 C 
ATOM     32  C   UNL     1       0.339  14.737  21.818  0.00  0.00    +0.000 C 
ENDBRANCH  20  31
ENDBRANCH   1  20
TORSDOF 6
ENDMDL
MODEL 6
REMARK VINA RESULT:      -6.1      2.477      4.278
REMARK  Name = 
REMARK  11 active torsions:
REMARK  status: ('A' for Active; 'I' for Inactive)
REMARK    1  A    between atoms: C_1  and  C_2
REMARK    2  A    between atoms: C_2  and  C_3
REMARK    3  A    between atoms: C_2  and  C_4
REMARK    4  A    between atoms: C_4  and  N_5
REMARK    5  A    between atoms: C_4  and  C_13
REMARK    6  A    between atoms: C_6  and  O_8
REMARK    7  A    between atoms: O_8  and  C_9
REMARK    8  A    between atoms: C_9  and  C_10
REMARK    9  A    between atoms: C_9  and  C_11
REMARK   10  A    between atoms: C_9  and  C_12
REMARK   11  A    between atoms: C_27  and  C_29
REMARK                            x       y       z     vdW  Elec       q    Type
REMARK                         _______ _______ _______ _____ _____    ______ ____
ROOT
ATOM      1  C   UNL     1      -1.836  12.342  22.125  0.00  0.00    +0.000 C 
ATOM      2  O   UNL     1      -2.968  11.945  22.419  0.00  0.00    +0.000 OA
ATOM      3  N   UNL     1      -0.756  11.478  22.151  0.00  0.00    +0.000 N 
ATOM      4  C   UNL     1      -0.791  10.343  23.104  0.00  0.00    +0.000 C 
ATOM      5  C   UNL     1       0.147   9.266  22.546  0.00  0.00    +0.000 C 
ATOM      6  C   UNL     1       0.152   9.651  21.086  0.00  0.00    +0.000 C 
ATOM      7  C   UNL     1       0.276  11.188  21.149  0.00  0.00    +0.000 C 
ATOM      8  C   UNL     1       0.265  11.481  19.652  0.00  0.00    +0.000 C 
ATOM      9  C   UNL     1       0.944  12.789  19.120  0.00  0.00    +0.000 C 
ATOM     10  C   UNL     1      -0.431  13.328  18.754  0.00  0.00    +0.000 C 
ATOM     11  C   UNL     1      -1.018  11.913  18.889  0.00  0.00    +0.000 C 
ATOM     12  C   UNL     1       1.042  10.144  19.061  0.00  0.00    +0.000 C 
ATOM     13  O   UNL     1       1.505   9.983  17.940  0.00  0.00    +0.000 OA
ATOM     14  N   UNL     1       1.113   9.212  20.126  0.00  0.00    +0.000 N 
ATOM     15  C   UNL     1       1.632   7.915  20.177  0.00  0.00    +0.000 C 
ATOM     16  O   UNL     1       1.347   7.140  21.088  0.00  0.00    +0.000 OA
ENDROOT
BRANCH  15  17
ATOM     17  C   UNL     1       2.573   7.455  19.110  0.00  0.00    +0.000 C 
ATOM     18  C   UNL     1       3.210   6.083  19.199  0.00  0.00    +0.000 C 
ATOM     19  C   UNL     1       2.137   6.336  18.183  0.00  0.00    +0.000 C 
ENDBRANCH  15  17
BRANCH   1  20
ATOM     20  C   UNL     1      -1.580  13.841  21.869  0.00  0.00    +0.000 C 
BRANCH  20  21
ATOM     21  N   UNL     1      -2.810  14.631  22.067  0.00  0.00    +0.000 N 
ATOM     22  C   UNL     1      -3.128  15.653  21.217  0.00  0.00    +0.000 C 
ATOM     23  O   UNL     1      -2.424  15.956  20.266  0.00  0.00    +0.000 OA
ATOM     24  H   UNL     1      -3.455  14.390  22.809  0.00  0.00    +0.000 HD
BRANCH  22  25
ATOM     25  O   UNL     1      -4.321  16.237  21.522  0.00  0.00    +0.000 OA
BRANCH  25  26
ATOM     26  C   UNL     1      -5.454  15.941  20.644  0.00  0.00    +0.000 C 
ATOM     27  C   UNL     1      -5.472  14.477  20.161  0.00  0.00    +0.000 C 
ATOM     28  C   UNL     1      -6.733  16.170  21.470  0.00  0.00    +0.000 C 
ATOM     29  C   UNL     1      -5.486  16.929  19.467  0.00  0.00    +0.000 C 
ENDBRANCH  25  26
ENDBRANCH  22  25
ENDBRANCH  20  21
BRANCH  20  31
ATOM     30  C   UNL     1      -0.933  15.166  23.950  0.00  0.00    +0.000 C 
ATOM     31  C   UNL     1      -0.420  14.400  22.741  0.00  0.00    +0.000 C 
ATOM     32  C   UNL     1       0.611  15.206  21.947  0.00  0.00    +0.000 C 
ENDBRANCH  20  31
ENDBRANCH   1  20
TORSDOF 6
ENDMDL
MODEL 7
REMARK VINA RESULT:      -6.0      1.489      1.890
REMARK  Name = 
REMARK  11 active torsions:
REMARK  status: ('A' for Active; 'I' for Inactive)
REMARK    1  A    between atoms: C_1  and  C_2
REMARK    2  A    between atoms: C_2  and  C_3
REMARK    3  A    between atoms: C_2  and  C_4
REMARK    4  A    between atoms: C_4  and  N_5
REMARK    5  A    between atoms: C_4  and  C_13
REMARK    6  A    between atoms: C_6  and  O_8
REMARK    7  A    between atoms: O_8  and  C_9
REMARK    8  A    between atoms: C_9  and  C_10
REMARK    9  A    between atoms: C_9  and  C_11
REMARK   10  A    between atoms: C_9  and  C_12
REMARK   11  A    between atoms: C_27  and  C_29
REMARK                            x       y       z     vdW  Elec       q    Type
REMARK                         _______ _______ _______ _____ _____    ______ ____
ROOT
ATOM      1  C   UNL     1       1.141  11.830  19.852  0.00  0.00    +0.000 C 
ATOM      2  O   UNL     1       2.104  12.604  19.845  0.00  0.00    +0.000 OA
ATOM      3  N   UNL     1       1.172  10.660  19.114  0.00  0.00    +0.000 N 
ATOM      4  C   UNL     1       1.982  10.635  17.874  0.00  0.00    +0.000 C 
ATOM      5  C   UNL     1       2.332   9.167  17.601  0.00  0.00    +0.000 C 
ATOM      6  C   UNL     1       2.190   8.599  18.992  0.00  0.00    +0.000 C 
ATOM      7  C   UNL     1       0.893   9.270  19.493  0.00  0.00    +0.000 C 
ATOM      8  C   UNL     1       0.837   8.650  20.886  0.00  0.00    +0.000 C 
ATOM      9  C   UNL     1      -0.546   8.510  21.609  0.00  0.00    +0.000 C 
ATOM     10  C   UNL     1      -0.104   9.563  22.613  0.00  0.00    +0.000 C 
ATOM     11  C   UNL     1       1.354   9.384  22.154  0.00  0.00    +0.000 C 
ATOM     12  C   UNL     1       1.493   7.158  20.596  0.00  0.00    +0.000 C 
ATOM     13  O   UNL     1       1.468   6.176  21.326  0.00  0.00    +0.000 OA
ATOM     14  N   UNL     1       2.067   7.211  19.302  0.00  0.00    +0.000 N 
ATOM     15  C   UNL     1       2.774   6.251  18.572  0.00  0.00    +0.000 C 
ATOM     16  O   UNL     1       3.455   6.556  17.595  0.00  0.00    +0.000 OA
ENDROOT
BRANCH  15  17
ATOM     17  C   UNL     1       2.692   4.812  18.972  0.00  0.00    +0.000 C 
ATOM     18  C   UNL     1       1.470   3.992  18.612  0.00  0.00    +0.000 C 
ATOM     19  C   UNL     1       2.763   3.749  17.893  0.00  0.00    +0.000 C 
ENDBRANCH  15  17
BRANCH   1  20
ATOM     20  C   UNL     1      -0.169  12.224  20.563  0.00  0.00    +0.000 C 
BRANCH  20  21
ATOM     21  N   UNL     1      -0.191  13.666  20.874  0.00  0.00    +0.000 N 
ATOM     22  C   UNL     1      -0.176  14.101  22.170  0.00  0.00    +0.000 C 
ATOM     23  O   UNL     1      -0.141  13.333  23.118  0.00  0.00    +0.000 OA
ATOM     24  H   UNL     1      -0.168  14.347  20.127  0.00  0.00    +0.000 HD
BRANCH  22  25
ATOM     25  O   UNL     1      -0.149  15.460  22.266  0.00  0.00    +0.000 OA
BRANCH  25  26
ATOM     26  C   UNL     1       1.163  16.109  22.213  0.00  0.00    +0.000 C 
ATOM     27  C   UNL     1       2.317  15.109  22.005  0.00  0.00    +0.000 C 
ATOM     28  C   UNL     1       1.146  17.053  20.998  0.00  0.00    +0.000 C 
ATOM     29  C   UNL     1       1.377  16.975  23.465  0.00  0.00    +0.000 C 
ENDBRANCH  25  26
ENDBRANCH  22  25
ENDBRANCH  20  21
BRANCH  20  31
ATOM     30  C   UNL     1      -1.367  12.316  18.313  0.00  0.00    +0.000 C 
ATOM     31  C   UNL     1      -1.429  11.817  19.748  0.00  0.00    +0.000 C 
ATOM     32  C   UNL     1      -2.748  12.192  20.429  0.00  0.00    +0.000 C 
ENDBRANCH  20  31
ENDBRANCH   1  20
TORSDOF 6
ENDMDL
MODEL 8
REMARK VINA RESULT:      -5.8      2.031      8.443
REMARK  Name = 
REMARK  11 active torsions:
REMARK  status: ('A' for Active; 'I' for Inactive)
REMARK    1  A    between atoms: C_1  and  C_2
REMARK    2  A    between atoms: C_2  and  C_3
REMARK    3  A    between atoms: C_2  and  C_4
REMARK    4  A    between atoms: C_4  and  N_5
REMARK    5  A    between atoms: C_4  and  C_13
REMARK    6  A    between atoms: C_6  and  O_8
REMARK    7  A    between atoms: O_8  and  C_9
REMARK    8  A    between atoms: C_9  and  C_10
REMARK    9  A    between atoms: C_9  and  C_11
REMARK   10  A    between atoms: C_9  and  C_12
REMARK   11  A    between atoms: C_27  and  C_29
REMARK                            x       y       z     vdW  Elec       q    Type
REMARK                         _______ _______ _______ _____ _____    ______ ____
ROOT
ATOM      1  C   UNL     1      -0.240  10.652  20.348  0.00  0.00    +0.000 C 
ATOM      2  O   UNL     1       0.247   9.699  20.963  0.00  0.00    +0.000 OA
ATOM      3  N   UNL     1      -0.828  11.704  21.027  0.00  0.00    +0.000 N 
ATOM      4  C   UNL     1      -1.454  11.426  22.341  0.00  0.00    +0.000 C 
ATOM      5  C   UNL     1      -1.473  12.751  23.114  0.00  0.00    +0.000 C 
ATOM      6  C   UNL     1      -0.356  13.482  22.410  0.00  0.00    +0.000 C 
ATOM      7  C   UNL     1      -0.627  13.154  20.927  0.00  0.00    +0.000 C 
ATOM      8  C   UNL     1       0.539  13.918  20.306  0.00  0.00    +0.000 C 
ATOM      9  C   UNL     1       0.427  14.420  18.826  0.00  0.00    +0.000 C 
ATOM     10  C   UNL     1       1.493  13.412  18.426  0.00  0.00    +0.000 C 
ATOM     11  C   UNL     1       1.875  13.233  19.905  0.00  0.00    +0.000 C 
ATOM     12  C   UNL     1       0.667  15.201  21.344  0.00  0.00    +0.000 C 
ATOM     13  O   UNL     1       1.293  16.239  21.176  0.00  0.00    +0.000 OA
ATOM     14  N   UNL     1      -0.131  14.891  22.473  0.00  0.00    +0.000 N 
ATOM     15  C   UNL     1      -0.360  15.598  23.657  0.00  0.00    +0.000 C 
ATOM     16  O   UNL     1      -0.836  15.055  24.652  0.00  0.00    +0.000 OA
ENDROOT
BRANCH  15  17
ATOM     17  C   UNL     1      -0.036  17.057  23.719  0.00  0.00    +0.000 C 
ATOM     18  C   UNL     1      -0.133  17.800  25.036  0.00  0.00    +0.000 C 
ATOM     19  C   UNL     1       1.215  17.497  24.454  0.00  0.00    +0.000 C 
ENDBRANCH  15  17
BRANCH   1  20
ATOM     20  C   UNL     1      -0.334  10.618  18.809  0.00  0.00    +0.000 C 
BRANCH  20  21
ATOM     21  N   UNL     1       0.116   9.318  18.278  0.00  0.00    +0.000 N 
ATOM     22  C   UNL     1       1.405   9.144  17.857  0.00  0.00    +0.000 C 
ATOM     23  O   UNL     1       2.235  10.039  17.901  0.00  0.00    +0.000 OA
ATOM     24  H   UNL     1      -0.515   8.527  18.267  0.00  0.00    +0.000 HD
BRANCH  22  25
ATOM     25  O   UNL     1       1.655   7.869  17.447  0.00  0.00    +0.000 OA
BRANCH  25  26
ATOM     26  C   UNL     1       2.540   7.058  18.286  0.00  0.00    +0.000 C 
ATOM     27  C   UNL     1       2.356   7.332  19.791  0.00  0.00    +0.000 C 
ATOM     28  C   UNL     1       2.168   5.585  18.037  0.00  0.00    +0.000 C 
ATOM     29  C   UNL     1       4.002   7.242  17.848  0.00  0.00    +0.000 C 
ENDBRANCH  25  26
ENDBRANCH  22  25
ENDBRANCH  20  21
BRANCH  20  31
ATOM     30  C   UNL     1      -2.543   9.709  17.917  0.00  0.00    +0.000 C 
ATOM     31  C   UNL     1      -1.762  10.957  18.297  0.00  0.00    +0.000 C 
ATOM     32  C   UNL     1      -1.782  12.007  17.184  0.00  0.00    +0.000 C 
ENDBRANCH  20  31
ENDBRANCH   1  20
TORSDOF 6
ENDMDL
MODEL 9
REMARK VINA RESULT:      -5.7      0.914      1.336
REMARK  Name = 
REMARK  11 active torsions:
REMARK  status: ('A' for Active; 'I' for Inactive)
REMARK    1  A    between atoms: C_1  and  C_2
REMARK    2  A    between atoms: C_2  and  C_3
REMARK    3  A    between atoms: C_2  and  C_4
REMARK    4  A    between atoms: C_4  and  N_5
REMARK    5  A    between atoms: C_4  and  C_13
REMARK    6  A    between atoms: C_6  and  O_8
REMARK    7  A    between atoms: O_8  and  C_9
REMARK    8  A    between atoms: C_9  and  C_10
REMARK    9  A    between atoms: C_9  and  C_11
REMARK   10  A    between atoms: C_9  and  C_12
REMARK   11  A    between atoms: C_27  and  C_29
REMARK                            x       y       z     vdW  Elec       q    Type
REMARK                         _______ _______ _______ _____ _____    ______ ____
ROOT
ATOM      1  C   UNL     1       0.683  12.072  20.440  0.00  0.00    +0.000 C 
ATOM      2  O   UNL     1       1.560  12.934  20.563  0.00  0.00    +0.000 OA
ATOM      3  N   UNL     1       0.834  11.037  19.535  0.00  0.00    +0.000 N 
ATOM      4  C   UNL     1       1.639  11.284  18.316  0.00  0.00    +0.000 C 
ATOM      5  C   UNL     1       2.140   9.919  17.829  0.00  0.00    +0.000 C 
ATOM      6  C   UNL     1       2.061   9.135  19.117  0.00  0.00    +0.000 C 
ATOM      7  C   UNL     1       0.703   9.584  19.696  0.00  0.00    +0.000 C 
ATOM      8  C   UNL     1       0.716   8.758  20.979  0.00  0.00    +0.000 C 
ATOM      9  C   UNL     1      -0.642   8.367  21.655  0.00  0.00    +0.000 C 
ATOM     10  C   UNL     1      -0.309   9.296  22.812  0.00  0.00    +0.000 C 
ATOM     11  C   UNL     1       1.157   9.341  22.350  0.00  0.00    +0.000 C 
ATOM     12  C   UNL     1       1.524   7.403  20.476  0.00  0.00    +0.000 C 
ATOM     13  O   UNL     1       1.604   6.325  21.049  0.00  0.00    +0.000 OA
ATOM     14  N   UNL     1       2.085   7.711  19.212  0.00  0.00    +0.000 N 
ATOM     15  C   UNL     1       2.887   6.951  18.355  0.00  0.00    +0.000 C 
ATOM     16  O   UNL     1       3.530   7.469  17.444  0.00  0.00    +0.000 OA
ENDROOT
BRANCH  15  17
ATOM     17  C   UNL     1       2.957   5.468  18.532  0.00  0.00    +0.000 C 
ATOM     18  C   UNL     1       3.928   4.650  17.705  0.00  0.00    +0.000 C 
ATOM     19  C   UNL     1       4.196   4.865  19.165  0.00  0.00    +0.000 C 
ENDBRANCH  15  17
BRANCH   1  20
ATOM     20  C   UNL     1      -0.658  12.216  21.186  0.00  0.00    +0.000 C 
BRANCH  20  21
ATOM     21  N   UNL     1      -0.483  12.936  22.461  0.00  0.00    +0.000 N 
ATOM     22  C   UNL     1      -0.499  14.303  22.498  0.00  0.00    +0.000 C 
ATOM     23  O   UNL     1      -0.658  14.983  21.497  0.00  0.00    +0.000 OA
ATOM     24  H   UNL     1      -0.398  12.422  23.328  0.00  0.00    +0.000 HD
BRANCH  22  25
ATOM     25  O   UNL     1      -0.373  14.795  23.763  0.00  0.00    +0.000 OA
BRANCH  25  26
ATOM     26  C   UNL     1      -1.567  15.385  24.372  0.00  0.00    +0.000 C 
ATOM     27  C   UNL     1      -1.973  16.722  23.722  0.00  0.00    +0.000 C 
ATOM     28  C   UNL     1      -2.722  14.393  24.147  0.00  0.00    +0.000 C 
ATOM     29  C   UNL     1      -1.372  15.525  25.891  0.00  0.00    +0.000 C 
ENDBRANCH  25  26
ENDBRANCH  22  25
ENDBRANCH  20  21
BRANCH  20  31
ATOM     30  C   UNL     1      -3.152  12.618  20.828  0.00  0.00    +0.000 C 
ATOM     31  C   UNL     1      -1.749  12.900  20.313  0.00  0.00    +0.000 C 
ATOM     32  C   UNL     1      -1.616  12.600  18.818  0.00  0.00    +0.000 C 
ENDBRANCH  20  31
ENDBRANCH   1  20
TORSDOF 6
ENDMDL
