MODEL 1
REMARK VINA RESULT:      -7.7      0.000      0.000
REMARK  Name = 
REMARK  3 active torsions:
REMARK  status: ('A' for Active; 'I' for Inactive)
REMARK    1  A    between atoms: C_2  and  C_4
REMARK    2  A    between atoms: C_8  and  N_9
REMARK    3  A    between atoms: N_9  and  C_10
REMARK                            x       y       z     vdW  Elec       q    Type
REMARK                         _______ _______ _______ _____ _____    ______ ____
ROOT
ATOM      1  C   UNL     1       5.810   4.851  15.396  0.00  0.00    +0.000 A 
ATOM      2  C   UNL     1       5.444   6.149  15.760  0.00  0.00    +0.000 A 
ATOM      3  C   UNL     1       4.610   6.352  16.858  0.00  0.00    +0.000 A 
ATOM      4  C   UNL     1       4.164   5.260  17.607  0.00  0.00    +0.000 A 
ATOM      5  C   UNL     1       4.540   3.954  17.268  0.00  0.00    +0.000 A 
ATOM      6  C   UNL     1       5.350   3.760  16.144  0.00  0.00    +0.000 A 
ENDROOT
BRANCH   1   8
ATOM      7  N   UNL     1       6.448   3.634  13.385  0.00  0.00    +0.000 N 
ATOM      8  C   UNL     1       6.728   4.659  14.246  0.00  0.00    +0.000 C 
ATOM      9  O   UNL     1       7.684   5.401  14.058  0.00  0.00    +0.000 OA
ATOM     10  H   UNL     1       7.041   3.551  12.570  0.00  0.00    +0.000 HD
ATOM     11  H   UNL     1       5.568   3.142  13.386  0.00  0.00    +0.000 HD
ENDBRANCH   1   8
BRANCH   5  12
ATOM     12  N   UNL     1       4.057   2.873  18.024  0.00  0.00    +0.000 N 
ATOM     13  H   UNL     1       4.423   1.968  17.754  0.00  0.00    +0.000 HD
BRANCH  12  14
ATOM     14  C   UNL     1       3.122   2.844  19.072  0.00  0.00    +0.000 A 
ATOM     15  C   UNL     1       1.757   2.971  18.785  0.00  0.00    +0.000 A 
ATOM     16  C   UNL     1       0.806   2.964  19.808  0.00  0.00    +0.000 A 
ATOM     17  C   UNL     1       1.210   2.835  21.136  0.00  0.00    +0.000 A 
ATOM     18  C   UNL     1       2.564   2.734  21.440  0.00  0.00    +0.000 A 
ATOM     19  C   UNL     1       3.512   2.751  20.415  0.00  0.00    +0.000 A 
ENDBRANCH  12  14
ENDBRANCH   5  12
TORSDOF 3
ENDMDL
MODEL 2
REMARK VINA RESULT:      -7.6      0.050      1.204
REMARK  Name = 
REMARK  3 active torsions:
REMARK  status: ('A' for Active; 'I' for Inactive)
REMARK    1  A    between atoms: C_2  and  C_4
REMARK    2  A    between atoms: C_8  and  N_9
REMARK    3  A    between atoms: N_9  and  C_10
REMARK                            x       y       z     vdW  Elec       q    Type
REMARK                         _______ _______ _______ _____ _____    ______ ____
ROOT
ATOM      1  C   UNL     1       5.818   4.860  15.370  0.00  0.00    +0.000 A 
ATOM      2  C   UNL     1       5.475   6.166  15.732  0.00  0.00    +0.000 A 
ATOM      3  C   UNL     1       4.639   6.385  16.826  0.00  0.00    +0.000 A 
ATOM      4  C   UNL     1       4.170   5.302  17.574  0.00  0.00    +0.000 A 
ATOM      5  C   UNL     1       4.523   3.989  17.237  0.00  0.00    +0.000 A 
ATOM      6  C   UNL     1       5.335   3.779  16.117  0.00  0.00    +0.000 A 
ENDROOT
BRANCH   1   8
ATOM      7  N   UNL     1       6.454   3.618  13.374  0.00  0.00    +0.000 N 
ATOM      8  C   UNL     1       6.737   4.651  14.224  0.00  0.00    +0.000 C 
ATOM      9  O   UNL     1       7.698   5.385  14.030  0.00  0.00    +0.000 OA
ATOM     10  H   UNL     1       7.048   3.523  12.561  0.00  0.00    +0.000 HD
ATOM     11  H   UNL     1       5.570   3.131  13.378  0.00  0.00    +0.000 HD
ENDBRANCH   1   8
BRANCH   5  12
ATOM     12  N   UNL     1       4.018   2.917  17.992  0.00  0.00    +0.000 N 
ATOM     13  H   UNL     1       4.369   2.005  17.726  0.00  0.00    +0.000 HD
BRANCH  12  14
ATOM     14  C   UNL     1       3.076   2.907  19.035  0.00  0.00    +0.000 A 
ATOM     15  C   UNL     1       3.511   2.748  20.357  0.00  0.00    +0.000 A 
ATOM     16  C   UNL     1       2.596   2.716  21.413  0.00  0.00    +0.000 A 
ATOM     17  C   UNL     1       1.231   2.838  21.158  0.00  0.00    +0.000 A 
ATOM     18  C   UNL     1       0.781   2.972  19.848  0.00  0.00    +0.000 A 
ATOM     19  C   UNL     1       1.699   2.994  18.795  0.00  0.00    +0.000 A 
ENDBRANCH  12  14
ENDBRANCH   5  12
TORSDOF 3
ENDMDL
MODEL 3
REMARK VINA RESULT:      -7.6      1.519      1.973
REMARK  Name = 
REMARK  3 active torsions:
REMARK  status: ('A' for Active; 'I' for Inactive)
REMARK    1  A    between atoms: C_2  and  C_4
REMARK    2  A    between atoms: C_8  and  N_9
REMARK    3  A    between atoms: N_9  and  C_10
REMARK                            x       y       z     vdW  Elec       q    Type
REMARK                         _______ _______ _______ _____ _____    ______ ____
ROOT
ATOM      1  C   UNL     1       6.472   4.835  15.790  0.00  0.00    +0.000 A 
ATOM      2  C   UNL     1       7.402   4.708  16.826  0.00  0.00    +0.000 A 
ATOM      3  C   UNL     1       6.986   4.826  18.151  0.00  0.00    +0.000 A 
ATOM      4  C   UNL     1       5.636   5.044  18.441  0.00  0.00    +0.000 A 
ATOM      5  C   UNL     1       4.689   5.152  17.415  0.00  0.00    +0.000 A 
ATOM      6  C   UNL     1       5.123   5.065  16.088  0.00  0.00    +0.000 A 
ENDROOT
BRANCH   1   8
ATOM      7  N   UNL     1       6.378   3.650  13.665  0.00  0.00    +0.000 N 
ATOM      8  C   UNL     1       6.930   4.670  14.388  0.00  0.00    +0.000 C 
ATOM      9  O   UNL     1       7.751   5.429  13.889  0.00  0.00    +0.000 OA
ATOM     10  H   UNL     1       6.648   3.586  12.693  0.00  0.00    +0.000 HD
ATOM     11  H   UNL     1       5.559   3.144  13.967  0.00  0.00    +0.000 HD
ENDBRANCH   1   8
BRANCH   5  12
ATOM     12  N   UNL     1       3.342   5.395  17.735  0.00  0.00    +0.000 N 
ATOM     13  H   UNL     1       2.971   6.268  17.380  0.00  0.00    +0.000 HD
BRANCH  12  14
ATOM     14  C   UNL     1       2.440   4.637  18.500  0.00  0.00    +0.000 A 
ATOM     15  C   UNL     1       2.116   5.049  19.799  0.00  0.00    +0.000 A 
ATOM     16  C   UNL     1       1.236   4.305  20.588  0.00  0.00    +0.000 A 
ATOM     17  C   UNL     1       0.671   3.133  20.089  0.00  0.00    +0.000 A 
ATOM     18  C   UNL     1       1.001   2.696  18.809  0.00  0.00    +0.000 A 
ATOM     19  C   UNL     1       1.889   3.438  18.027  0.00  0.00    +0.000 A 
ENDBRANCH  12  14
ENDBRANCH   5  12
TORSDOF 3
ENDMDL
MODEL 4
REMARK VINA RESULT:      -7.5      1.490      1.738
REMARK  Name = 
REMARK  3 active torsions:
REMARK  status: ('A' for Active; 'I' for Inactive)
REMARK    1  A    between atoms: C_2  and  C_4
REMARK    2  A    between atoms: C_8  and  N_9
REMARK    3  A    between atoms: N_9  and  C_10
REMARK                            x       y       z     vdW  Elec       q    Type
REMARK                         _______ _______ _______ _____ _____    ______ ____
ROOT
ATOM      1  C   UNL     1       6.471   4.787  15.762  0.00  0.00    +0.000 A 
ATOM      2  C   UNL     1       7.394   4.670  16.806  0.00  0.00    +0.000 A 
ATOM      3  C   UNL     1       6.963   4.772  18.127  0.00  0.00    +0.000 A 
ATOM      4  C   UNL     1       5.607   4.964  18.406  0.00  0.00    +0.000 A 
ATOM      5  C   UNL     1       4.667   5.061  17.372  0.00  0.00    +0.000 A 
ATOM      6  C   UNL     1       5.116   4.990  16.049  0.00  0.00    +0.000 A 
ENDROOT
BRANCH   1   8
ATOM      7  N   UNL     1       6.415   3.618  13.627  0.00  0.00    +0.000 N 
ATOM      8  C   UNL     1       6.946   4.640  14.364  0.00  0.00    +0.000 C 
ATOM      9  O   UNL     1       7.761   5.414  13.878  0.00  0.00    +0.000 OA
ATOM     10  H   UNL     1       6.696   3.565  12.657  0.00  0.00    +0.000 HD
ATOM     11  H   UNL     1       5.600   3.099  13.916  0.00  0.00    +0.000 HD
ENDBRANCH   1   8
BRANCH   5  12
ATOM     12  N   UNL     1       3.314   5.277  17.681  0.00  0.00    +0.000 N 
ATOM     13  H   UNL     1       2.902   6.092  17.242  0.00  0.00    +0.000 HD
BRANCH  12  14
ATOM     14  C   UNL     1       2.451   4.563  18.529  0.00  0.00    +0.000 A 
ATOM     15  C   UNL     1       1.837   3.393  18.065  0.00  0.00    +0.000 A 
ATOM     16  C   UNL     1       0.961   2.672  18.880  0.00  0.00    +0.000 A 
ATOM     17  C   UNL     1       0.683   3.116  20.171  0.00  0.00    +0.000 A 
ATOM     18  C   UNL     1       1.266   4.290  20.639  0.00  0.00    +0.000 A 
ATOM     19  C   UNL     1       2.134   5.014  19.817  0.00  0.00    +0.000 A 
ENDBRANCH  12  14
ENDBRANCH   5  12
TORSDOF 3
ENDMDL
MODEL 5
REMARK VINA RESULT:      -7.5      2.236      2.762
REMARK  Name = 
REMARK  3 active torsions:
REMARK  status: ('A' for Active; 'I' for Inactive)
REMARK    1  A    between atoms: C_2  and  C_4
REMARK    2  A    between atoms: C_8  and  N_9
REMARK    3  A    between atoms: N_9  and  C_10
REMARK                            x       y       z     vdW  Elec       q    Type
REMARK                         _______ _______ _______ _____ _____    ______ ____
ROOT
ATOM      1  C   UNL     1       6.808   5.497  17.942  0.00  0.00    +0.000 A 
ATOM      2  C   UNL     1       6.709   5.923  16.615  0.00  0.00    +0.000 A 
ATOM      3  C   UNL     1       5.773   5.336  15.766  0.00  0.00    +0.000 A 
ATOM      4  C   UNL     1       4.918   4.342  16.250  0.00  0.00    +0.000 A 
ATOM      5  C   UNL     1       4.990   3.920  17.584  0.00  0.00    +0.000 A 
ATOM      6  C   UNL     1       5.955   4.492  18.418  0.00  0.00    +0.000 A 
ENDROOT
BRANCH   1   8
ATOM      7  N   UNL     1       8.176   5.476  19.957  0.00  0.00    +0.000 N 
ATOM      8  C   UNL     1       7.786   6.160  18.839  0.00  0.00    +0.000 C 
ATOM      9  O   UNL     1       8.247   7.265  18.580  0.00  0.00    +0.000 OA
ATOM     10  H   UNL     1       8.890   5.908  20.527  0.00  0.00    +0.000 HD
ATOM     11  H   UNL     1       7.985   4.495  20.094  0.00  0.00    +0.000 HD
ENDBRANCH   1   8
BRANCH   5  12
ATOM     12  N   UNL     1       4.134   2.902  18.037  0.00  0.00    +0.000 N 
ATOM     13  H   UNL     1       4.204   2.029  17.529  0.00  0.00    +0.000 HD
BRANCH  12  14
ATOM     14  C   UNL     1       3.172   2.914  19.062  0.00  0.00    +0.000 A 
ATOM     15  C   UNL     1       1.845   3.246  18.761  0.00  0.00    +0.000 A 
ATOM     16  C   UNL     1       0.872   3.283  19.763  0.00  0.00    +0.000 A 
ATOM     17  C   UNL     1       1.216   2.994  21.082  0.00  0.00    +0.000 A 
ATOM     18  C   UNL     1       2.535   2.688  21.402  0.00  0.00    +0.000 A 
ATOM     19  C   UNL     1       3.507   2.660  20.399  0.00  0.00    +0.000 A 
ENDBRANCH  12  14
ENDBRANCH   5  12
TORSDOF 3
ENDMDL
MODEL 6
REMARK VINA RESULT:      -7.5      2.243      3.023
REMARK  Name = 
REMARK  3 active torsions:
REMARK  status: ('A' for Active; 'I' for Inactive)
REMARK    1  A    between atoms: C_2  and  C_4
REMARK    2  A    between atoms: C_8  and  N_9
REMARK    3  A    between atoms: N_9  and  C_10
REMARK                            x       y       z     vdW  Elec       q    Type
REMARK                         _______ _______ _______ _____ _____    ______ ____
ROOT
ATOM      1  C   UNL     1       6.845   5.493  17.919  0.00  0.00    +0.000 A 
ATOM      2  C   UNL     1       6.817   5.868  16.573  0.00  0.00    +0.000 A 
ATOM      3  C   UNL     1       5.907   5.267  15.705  0.00  0.00    +0.000 A 
ATOM      4  C   UNL     1       5.009   4.311  16.187  0.00  0.00    +0.000 A 
ATOM      5  C   UNL     1       5.010   3.941  17.538  0.00  0.00    +0.000 A 
ATOM      6  C   UNL     1       5.949   4.526  18.393  0.00  0.00    +0.000 A 
ENDROOT
BRANCH   1   8
ATOM      7  N   UNL     1       8.175   5.493  19.960  0.00  0.00    +0.000 N 
ATOM      8  C   UNL     1       7.797   6.171  18.834  0.00  0.00    +0.000 C 
ATOM      9  O   UNL     1       8.247   7.282  18.583  0.00  0.00    +0.000 OA
ATOM     10  H   UNL     1       8.871   5.935  20.543  0.00  0.00    +0.000 HD
ATOM     11  H   UNL     1       7.995   4.509  20.094  0.00  0.00    +0.000 HD
ENDBRANCH   1   8
BRANCH   5  12
ATOM     12  N   UNL     1       4.112   2.960  17.990  0.00  0.00    +0.000 N 
ATOM     13  H   UNL     1       4.144   2.085  17.481  0.00  0.00    +0.000 HD
BRANCH  12  14
ATOM     14  C   UNL     1       3.152   3.012  19.015  0.00  0.00    +0.000 A 
ATOM     15  C   UNL     1       3.513   2.655  20.320  0.00  0.00    +0.000 A 
ATOM     16  C   UNL     1       2.575   2.681  21.356  0.00  0.00    +0.000 A 
ATOM     17  C   UNL     1       1.260   3.060  21.097  0.00  0.00    +0.000 A 
ATOM     18  C   UNL     1       0.878   3.394  19.801  0.00  0.00    +0.000 A 
ATOM     19  C   UNL     1       1.817   3.358  18.767  0.00  0.00    +0.000 A 
ENDBRANCH  12  14
ENDBRANCH   5  12
TORSDOF 3
ENDMDL
MODEL 7
REMARK VINA RESULT:      -7.4      2.326      3.023
REMARK  Name = 
REMARK  3 active torsions:
REMARK  status: ('A' for Active; 'I' for Inactive)
REMARK    1  A    between atoms: C_2  and  C_4
REMARK    2  A    between atoms: C_8  and  N_9
REMARK    3  A    between atoms: N_9  and  C_10
REMARK                            x       y       z     vdW  Elec       q    Type
REMARK                         _______ _______ _______ _____ _____    ______ ____
ROOT
ATOM      1  C   UNL     1       6.585   6.040  17.337  0.00  0.00    +0.000 A 
ATOM      2  C   UNL     1       6.987   5.040  16.447  0.00  0.00    +0.000 A 
ATOM      3  C   UNL     1       6.061   4.102  15.993  0.00  0.00    +0.000 A 
ATOM      4  C   UNL     1       4.729   4.180  16.407  0.00  0.00    +0.000 A 
ATOM      5  C   UNL     1       4.305   5.189  17.281  0.00  0.00    +0.000 A 
ATOM      6  C   UNL     1       5.250   6.105  17.757  0.00  0.00    +0.000 A 
ENDROOT
BRANCH   1   8
ATOM      7  N   UNL     1       8.257   6.794  18.938  0.00  0.00    +0.000 N 
ATOM      8  C   UNL     1       7.578   7.049  17.780  0.00  0.00    +0.000 C 
ATOM      9  O   UNL     1       7.800   8.061  17.125  0.00  0.00    +0.000 OA
ATOM     10  H   UNL     1       8.976   7.455  19.198  0.00  0.00    +0.000 HD
ATOM     11  H   UNL     1       8.256   5.890  19.386  0.00  0.00    +0.000 HD
ENDBRANCH   1   8
BRANCH   5  12
ATOM     12  N   UNL     1       2.965   5.229  17.700  0.00  0.00    +0.000 N 
ATOM     13  H   UNL     1       2.384   5.896  17.206  0.00  0.00    +0.000 HD
BRANCH  12  14
ATOM     14  C   UNL     1       2.310   4.515  18.717  0.00  0.00    +0.000 A 
ATOM     15  C   UNL     1       2.568   4.827  20.058  0.00  0.00    +0.000 A 
ATOM     16  C   UNL     1       1.945   4.122  21.091  0.00  0.00    +0.000 A 
ATOM     17  C   UNL     1       1.058   3.089  20.795  0.00  0.00    +0.000 A 
ATOM     18  C   UNL     1       0.809   2.750  19.468  0.00  0.00    +0.000 A 
ATOM     19  C   UNL     1       1.441   3.451  18.439  0.00  0.00    +0.000 A 
ENDBRANCH  12  14
ENDBRANCH   5  12
TORSDOF 3
ENDMDL
MODEL 8
REMARK VINA RESULT:      -7.4      1.501      1.644
REMARK  Name = 
REMARK  3 active torsions:
REMARK  status: ('A' for Active; 'I' for Inactive)
REMARK    1  A    between atoms: C_2  and  C_4
REMARK    2  A    between atoms: C_8  and  N_9
REMARK    3  A    between atoms: N_9  and  C_10
REMARK                            x       y       z     vdW  Elec       q    Type
REMARK                         _______ _______ _______ _____ _____    ______ ____
ROOT
ATOM      1  C   UNL     1       6.698   4.989  16.300  0.00  0.00    +0.000 A 
ATOM      2  C   UNL     1       7.275   6.110  16.903  0.00  0.00    +0.000 A 
ATOM      3  C   UNL     1       7.093   6.335  18.267  0.00  0.00    +0.000 A 
ATOM      4  C   UNL     1       6.357   5.426  19.032  0.00  0.00    +0.000 A 
ATOM      5  C   UNL     1       5.791   4.286  18.446  0.00  0.00    +0.000 A 
ATOM      6  C   UNL     1       5.952   4.088  17.071  0.00  0.00    +0.000 A 
ENDROOT
BRANCH   1   8
ATOM      7  N   UNL     1       6.304   3.677  14.286  0.00  0.00    +0.000 N 
ATOM      8  C   UNL     1       6.934   4.749  14.855  0.00  0.00    +0.000 C 
ATOM      9  O   UNL     1       7.645   5.492  14.189  0.00  0.00    +0.000 OA
ATOM     10  H   UNL     1       6.419   3.559  13.289  0.00  0.00    +0.000 HD
ATOM     11  H   UNL     1       5.557   3.175  14.742  0.00  0.00    +0.000 HD
ENDBRANCH   1   8
BRANCH   5  12
ATOM     12  N   UNL     1       5.036   3.402  19.234  0.00  0.00    +0.000 N 
ATOM     13  H   UNL     1       5.580   2.715  19.743  0.00  0.00    +0.000 HD
BRANCH  12  14
ATOM     14  C   UNL     1       3.645   3.297  19.402  0.00  0.00    +0.000 A 
ATOM     15  C   UNL     1       2.941   2.288  18.733  0.00  0.00    +0.000 A 
ATOM     16  C   UNL     1       1.555   2.170  18.867  0.00  0.00    +0.000 A 
ATOM     17  C   UNL     1       0.853   3.067  19.670  0.00  0.00    +0.000 A 
ATOM     18  C   UNL     1       1.534   4.091  20.322  0.00  0.00    +0.000 A 
ATOM     19  C   UNL     1       2.919   4.210  20.178  0.00  0.00    +0.000 A 
ENDBRANCH  12  14
ENDBRANCH   5  12
TORSDOF 3
ENDMDL
MODEL 9
REMARK VINA RESULT:      -7.4      2.781      3.260
REMARK  Name = 
REMARK  3 active torsions:
REMARK  status: ('A' for Active; 'I' for Inactive)
REMARK    1  A    between atoms: C_2  and  C_4
REMARK    2  A    between atoms: C_8  and  N_9
REMARK    3  A    between atoms: N_9  and  C_10
REMARK                            x       y       z     vdW  Elec       q    Type
REMARK                         _______ _______ _______ _____ _____    ______ ____
ROOT
ATOM      1  C   UNL     1       6.878   5.292  18.112  0.00  0.00    +0.000 A 
ATOM      2  C   UNL     1       7.372   4.713  16.940  0.00  0.00    +0.000 A 
ATOM      3  C   UNL     1       6.487   4.238  15.974  0.00  0.00    +0.000 A 
ATOM      4  C   UNL     1       5.109   4.367  16.167  0.00  0.00    +0.000 A 
ATOM      5  C   UNL     1       4.598   4.964  17.326  0.00  0.00    +0.000 A 
ATOM      6  C   UNL     1       5.495   5.407  18.304  0.00  0.00    +0.000 A 
ENDROOT
BRANCH   1   8
ATOM      7  N   UNL     1       8.348   7.072  18.887  0.00  0.00    +0.000 N 
ATOM      8  C   UNL     1       7.837   5.824  19.111  0.00  0.00    +0.000 C 
ATOM      9  O   UNL     1       8.143   5.184  20.110  0.00  0.00    +0.000 OA
ATOM     10  H   UNL     1       8.951   7.451  19.605  0.00  0.00    +0.000 HD
ATOM     11  H   UNL     1       7.967   7.705  18.201  0.00  0.00    +0.000 HD
ENDBRANCH   1   8
BRANCH   5  12
ATOM     12  N   UNL     1       3.208   5.058  17.505  0.00  0.00    +0.000 N 
ATOM     13  H   UNL     1       2.740   5.699  16.875  0.00  0.00    +0.000 HD
BRANCH  12  14
ATOM     14  C   UNL     1       2.368   4.430  18.441  0.00  0.00    +0.000 A 
ATOM     15  C   UNL     1       1.731   3.230  18.102  0.00  0.00    +0.000 A 
ATOM     16  C   UNL     1       0.878   2.592  19.006  0.00  0.00    +0.000 A 
ATOM     17  C   UNL     1       0.646   3.152  20.261  0.00  0.00    +0.000 A 
ATOM     18  C   UNL     1       1.251   4.358  20.604  0.00  0.00    +0.000 A 
ATOM     19  C   UNL     1       2.097   4.996  19.693  0.00  0.00    +0.000 A 
ENDBRANCH  12  14
ENDBRANCH   5  12
TORSDOF 3
ENDMDL
