MODEL 1
REMARK VINA RESULT:      -8.3      0.000      0.000
REMARK  Name = 
REMARK  10 active torsions:
REMARK  status: ('A' for Active; 'I' for Inactive)
REMARK    1  A    between atoms: C_1  and  C_2
REMARK    2  A    between atoms: C_2  and  O_3
REMARK    3  A    between atoms: O_3  and  C_4
REMARK    4  A    between atoms: C_6  and  N_7
REMARK    5  A    between atoms: C_10  and  O_11
REMARK    6  A    between atoms: O_11  and  C_12
REMARK    7  A    between atoms: C_15  and  C_16
REMARK    8  A    between atoms: C_16  and  C_17
REMARK    9  A    between atoms: C_16  and  N_18
REMARK   10  A    between atoms: C_19  and  C_20
REMARK                            x       y       z     vdW  Elec       q    Type
REMARK                         _______ _______ _______ _____ _____    ______ ____
ROOT
ATOM      1  N   UNL     1       4.549   5.909  18.763  0.00  0.00    +0.000 N 
ATOM      2  C   UNL     1       3.764   5.176  19.758  0.00  0.00    +0.000 C 
ATOM      3  C   UNL     1       2.325   5.293  19.274  0.00  0.00    +0.000 C 
ATOM      4  C   UNL     1       2.271   6.694  18.669  0.00  0.00    +0.000 C 
ATOM      5  C   UNL     1       3.652   6.781  17.969  0.00  0.00    +0.000 C 
ENDROOT
BRANCH   1   8
ATOM      6  C   UNL     1       6.380   4.149  16.104  0.00  0.00    +0.000 A 
ATOM      7  C   UNL     1       5.343   4.724  16.828  0.00  0.00    +0.000 A 
ATOM      8  C   UNL     1       5.601   5.306  18.077  0.00  0.00    +0.000 A 
ATOM      9  C   UNL     1       6.928   5.249  18.526  0.00  0.00    +0.000 A 
ATOM     10  F   UNL     1       7.284   5.701  19.738  0.00  0.00    +0.000 F 
ATOM     11  C   UNL     1       7.903   4.667  17.730  0.00  0.00    +0.000 A 
ATOM     12  N   UNL     1       7.662   4.114  16.523  0.00  0.00    +0.000 NA
BRANCH   6  13
ATOM     13  O   UNL     1       6.061   3.626  14.865  0.00  0.00    +0.000 OA
BRANCH  13  15
ATOM     14  C   UNL     1       6.397   3.621  12.496  0.00  0.00    +0.000 C 
ATOM     15  C   UNL     1       6.703   4.332  13.801  0.00  0.00    +0.000 C 
ENDBRANCH  13  15
ENDBRANCH   6  13
ENDBRANCH   1   8
BRANCH   4  16
ATOM     16  O   UNL     1       2.193   7.718  19.673  0.00  0.00    +0.000 OA
BRANCH  16  17
ATOM     17  C   UNL     1       1.285   8.719  19.457  0.00  0.00    +0.000 A 
ATOM     18  C   UNL     1       0.400   9.211  20.415  0.00  0.00    +0.000 A 
ATOM     19  C   UNL     1      -0.419  10.310  20.133  0.00  0.00    +0.000 A 
ATOM     20  C   UNL     1      -0.378  10.937  18.878  0.00  0.00    +0.000 A 
ATOM     21  C   UNL     1       0.499  10.417  17.910  0.00  0.00    +0.000 A 
ATOM     22  C   UNL     1       1.330   9.330  18.205  0.00  0.00    +0.000 A 
BRANCH  20  23
ATOM     23  C   UNL     1      -1.245  12.159  18.607  0.00  0.00    +0.000 C 
ATOM     24  C   UNL     1      -2.328  12.318  19.675  0.00  0.00    +0.000 C 
BRANCH  23  25
ATOM     25  N   UNL     1      -1.838  12.064  17.279  0.00  0.00    +0.000 N 
ATOM     26  C   UNL     1      -2.620  11.096  16.731  0.00  0.00    +0.000 C 
ATOM     27  C   UNL     1      -3.175   9.996  17.591  0.00  0.00    +0.000 C 
ATOM     28  O   UNL     1      -2.899  11.165  15.536  0.00  0.00    +0.000 OA
ATOM     29  H   UNL     1      -1.548  12.746  16.591  0.00  0.00    +0.000 HD
ENDBRANCH  23  25
ENDBRANCH  20  23
ENDBRANCH  16  17
ENDBRANCH   4  16
TORSDOF 7
ENDMDL
MODEL 2
REMARK VINA RESULT:      -8.2      3.021      9.420
REMARK  Name = 
REMARK  10 active torsions:
REMARK  status: ('A' for Active; 'I' for Inactive)
REMARK    1  A    between atoms: C_1  and  C_2
REMARK    2  A    between atoms: C_2  and  O_3
REMARK    3  A    between atoms: O_3  and  C_4
REMARK    4  A    between atoms: C_6  and  N_7
REMARK    5  A    between atoms: C_10  and  O_11
REMARK    6  A    between atoms: O_11  and  C_12
REMARK    7  A    between atoms: C_15  and  C_16
REMARK    8  A    between atoms: C_16  and  C_17
REMARK    9  A    between atoms: C_16  and  N_18
REMARK   10  A    between atoms: C_19  and  C_20
REMARK                            x       y       z     vdW  Elec       q    Type
REMARK                         _______ _______ _______ _____ _____    ______ ____
ROOT
ATOM      1  N   UNL     1      -1.028  10.068  18.439  0.00  0.00    +0.000 N 
ATOM      2  C   UNL     1      -0.539  10.881  19.554  0.00  0.00    +0.000 C 
ATOM      3  C   UNL     1       0.944  11.074  19.267  0.00  0.00    +0.000 C 
ATOM      4  C   UNL     1       1.353   9.747  18.630  0.00  0.00    +0.000 C 
ATOM      5  C   UNL     1       0.118   9.434  17.747  0.00  0.00    +0.000 C 
ENDROOT
BRANCH   1   8
ATOM      6  C   UNL     1      -3.130  10.534  15.458  0.00  0.00    +0.000 A 
ATOM      7  C   UNL     1      -2.071  10.156  16.275  0.00  0.00    +0.000 A 
ATOM      8  C   UNL     1      -2.084  10.493  17.636  0.00  0.00    +0.000 A 
ATOM      9  C   UNL     1      -3.193  11.225  18.083  0.00  0.00    +0.000 A 
ATOM     10  F   UNL     1      -3.282  11.673  19.345  0.00  0.00    +0.000 F 
ATOM     11  C   UNL     1      -4.212  11.548  17.199  0.00  0.00    +0.000 A 
ATOM     12  N   UNL     1      -4.209  11.218  15.891  0.00  0.00    +0.000 NA
BRANCH   6  13
ATOM     13  O   UNL     1      -3.068  10.137  14.136  0.00  0.00    +0.000 OA
BRANCH  13  15
ATOM     14  C   UNL     1      -4.285   9.826  12.098  0.00  0.00    +0.000 C 
ATOM     15  C   UNL     1      -4.356   9.800  13.614  0.00  0.00    +0.000 C 
ENDBRANCH  13  15
ENDBRANCH   6  13
ENDBRANCH   1   8
BRANCH   4  16
ATOM     16  O   UNL     1       1.507   8.702  19.603  0.00  0.00    +0.000 OA
BRANCH  16  17
ATOM     17  C   UNL     1       2.258   7.621  19.227  0.00  0.00    +0.000 A 
ATOM     18  C   UNL     1       2.241   6.380  19.862  0.00  0.00    +0.000 A 
ATOM     19  C   UNL     1       2.963   5.302  19.340  0.00  0.00    +0.000 A 
ATOM     20  C   UNL     1       3.732   5.444  18.174  0.00  0.00    +0.000 A 
ATOM     21  C   UNL     1       3.763   6.706  17.556  0.00  0.00    +0.000 A 
ATOM     22  C   UNL     1       3.022   7.776  18.071  0.00  0.00    +0.000 A 
BRANCH  20  23
ATOM     23  C   UNL     1       4.475   4.247  17.598  0.00  0.00    +0.000 C 
ATOM     24  C   UNL     1       3.815   2.932  18.016  0.00  0.00    +0.000 C 
BRANCH  23  25
ATOM     25  N   UNL     1       5.872   4.280  18.013  0.00  0.00    +0.000 N 
ATOM     26  C   UNL     1       7.000   4.502  17.289  0.00  0.00    +0.000 C 
ATOM     27  C   UNL     1       6.904   4.981  15.867  0.00  0.00    +0.000 C 
ATOM     28  O   UNL     1       8.093   4.349  17.830  0.00  0.00    +0.000 OA
ATOM     29  H   UNL     1       6.084   3.977  18.954  0.00  0.00    +0.000 HD
ENDBRANCH  23  25
ENDBRANCH  20  23
ENDBRANCH  16  17
ENDBRANCH   4  16
TORSDOF 7
ENDMDL
MODEL 3
REMARK VINA RESULT:      -8.1      1.434      2.105
REMARK  Name = 
REMARK  10 active torsions:
REMARK  status: ('A' for Active; 'I' for Inactive)
REMARK    1  A    between atoms: C_1  and  C_2
REMARK    2  A    between atoms: C_2  and  O_3
REMARK    3  A    between atoms: O_3  and  C_4
REMARK    4  A    between atoms: C_6  and  N_7
REMARK    5  A    between atoms: C_10  and  O_11
REMARK    6  A    between atoms: O_11  and  C_12
REMARK    7  A    between atoms: C_15  and  C_16
REMARK    8  A    between atoms: C_16  and  C_17
REMARK    9  A    between atoms: C_16  and  N_18
REMARK   10  A    between atoms: C_19  and  C_20
REMARK                            x       y       z     vdW  Elec       q    Type
REMARK                         _______ _______ _______ _____ _____    ______ ____
ROOT
ATOM      1  N   UNL     1       4.455   5.930  18.780  0.00  0.00    +0.000 N 
ATOM      2  C   UNL     1       3.505   5.136  19.563  0.00  0.00    +0.000 C 
ATOM      3  C   UNL     1       2.147   5.448  18.951  0.00  0.00    +0.000 C 
ATOM      4  C   UNL     1       2.267   6.921  18.562  0.00  0.00    +0.000 C 
ATOM      5  C   UNL     1       3.724   6.984  18.036  0.00  0.00    +0.000 C 
ENDROOT
BRANCH   1   8
ATOM      6  C   UNL     1       6.382   4.162  16.195  0.00  0.00    +0.000 A 
ATOM      7  C   UNL     1       5.316   4.726  16.887  0.00  0.00    +0.000 A 
ATOM      8  C   UNL     1       5.535   5.340  18.128  0.00  0.00    +0.000 A 
ATOM      9  C   UNL     1       6.853   5.325  18.604  0.00  0.00    +0.000 A 
ATOM     10  F   UNL     1       7.174   5.812  19.812  0.00  0.00    +0.000 F 
ATOM     11  C   UNL     1       7.859   4.752  17.839  0.00  0.00    +0.000 A 
ATOM     12  N   UNL     1       7.655   4.168  16.640  0.00  0.00    +0.000 NA
BRANCH   6  13
ATOM     13  O   UNL     1       6.100   3.606  14.962  0.00  0.00    +0.000 OA
BRANCH  13  15
ATOM     14  C   UNL     1       6.320   3.679  12.580  0.00  0.00    +0.000 C 
ATOM     15  C   UNL     1       6.618   4.392  13.886  0.00  0.00    +0.000 C 
ENDBRANCH  13  15
ENDBRANCH   6  13
ENDBRANCH   1   8
BRANCH   4  16
ATOM     16  O   UNL     1       2.144   7.794  19.696  0.00  0.00    +0.000 OA
BRANCH  16  17
ATOM     17  C   UNL     1       1.302   8.864  19.555  0.00  0.00    +0.000 A 
ATOM     18  C   UNL     1       1.037   9.516  18.353  0.00  0.00    +0.000 A 
ATOM     19  C   UNL     1       0.079  10.534  18.289  0.00  0.00    +0.000 A 
ATOM     20  C   UNL     1      -0.630  10.932  19.433  0.00  0.00    +0.000 A 
ATOM     21  C   UNL     1      -0.337  10.285  20.647  0.00  0.00    +0.000 A 
ATOM     22  C   UNL     1       0.609   9.254  20.701  0.00  0.00    +0.000 A 
BRANCH  20  23
ATOM     23  C   UNL     1      -1.700  12.010  19.333  0.00  0.00    +0.000 C 
ATOM     24  C   UNL     1      -2.891  11.533  18.501  0.00  0.00    +0.000 C 
BRANCH  23  25
ATOM     25  N   UNL     1      -1.129  13.228  18.771  0.00  0.00    +0.000 N 
ATOM     26  C   UNL     1      -0.627  14.331  19.387  0.00  0.00    +0.000 C 
ATOM     27  C   UNL     1      -0.404  14.330  20.873  0.00  0.00    +0.000 C 
ATOM     28  O   UNL     1      -0.318  15.303  18.703  0.00  0.00    +0.000 OA
ATOM     29  H   UNL     1      -1.213  13.361  17.772  0.00  0.00    +0.000 HD
ENDBRANCH  23  25
ENDBRANCH  20  23
ENDBRANCH  16  17
ENDBRANCH   4  16
TORSDOF 7
ENDMDL
MODEL 4
REMARK VINA RESULT:      -8.1      2.129      2.726
REMARK  Name = 
REMARK  10 active torsions:
REMARK  status: ('A' for Active; 'I' for Inactive)
REMARK    1  A    between atoms: C_1  and  C_2
REMARK    2  A    between atoms: C_2  and  O_3
REMARK    3  A    between atoms: O_3  and  C_4
REMARK    4  A    between atoms: C_6  and  N_7
REMARK    5  A    between atoms: C_10  and  O_11
REMARK    6  A    between atoms: O_11  and  C_12
REMARK    7  A    between atoms: C_15  and  C_16
REMARK    8  A    between atoms: C_16  and  C_17
REMARK    9  A    between atoms: C_16  and  N_18
REMARK   10  A    between atoms: C_19  and  C_20
REMARK                            x       y       z     vdW  Elec       q    Type
REMARK                         _______ _______ _______ _____ _____    ______ ____
ROOT
ATOM      1  N   UNL     1       4.396   5.696  18.663  0.00  0.00    +0.000 N 
ATOM      2  C   UNL     1       3.481   4.803  19.375  0.00  0.00    +0.000 C 
ATOM      3  C   UNL     1       2.091   5.265  18.960  0.00  0.00    +0.000 C 
ATOM      4  C   UNL     1       2.249   6.780  18.834  0.00  0.00    +0.000 C 
ATOM      5  C   UNL     1       3.656   6.891  18.193  0.00  0.00    +0.000 C 
ENDROOT
BRANCH   1   8
ATOM      6  C   UNL     1       5.993   4.327  15.647  0.00  0.00    +0.000 A 
ATOM      7  C   UNL     1       5.022   4.789  16.527  0.00  0.00    +0.000 A 
ATOM      8  C   UNL     1       5.386   5.202  17.817  0.00  0.00    +0.000 A 
ATOM      9  C   UNL     1       6.745   5.098  18.140  0.00  0.00    +0.000 A 
ATOM     10  F   UNL     1       7.204   5.388  19.367  0.00  0.00    +0.000 F 
ATOM     11  C   UNL     1       7.649   4.638  17.194  0.00  0.00    +0.000 A 
ATOM     12  N   UNL     1       7.306   4.249  15.949  0.00  0.00    +0.000 NA
BRANCH   6  13
ATOM     13  O   UNL     1       5.569   3.971  14.381  0.00  0.00    +0.000 OA
BRANCH  13  15
ATOM     14  C   UNL     1       6.178   3.342  12.154  0.00  0.00    +0.000 C 
ATOM     15  C   UNL     1       6.621   4.057  13.417  0.00  0.00    +0.000 C 
ENDBRANCH  13  15
ENDBRANCH   6  13
ENDBRANCH   1   8
BRANCH   4  16
ATOM     16  O   UNL     1       2.267   7.433  20.113  0.00  0.00    +0.000 OA
BRANCH  16  17
ATOM     17  C   UNL     1       1.347   8.429  20.305  0.00  0.00    +0.000 A 
ATOM     18  C   UNL     1       0.657   8.655  21.494  0.00  0.00    +0.000 A 
ATOM     19  C   UNL     1      -0.186   9.764  21.630  0.00  0.00    +0.000 A 
ATOM     20  C   UNL     1      -0.365  10.669  20.571  0.00  0.00    +0.000 A 
ATOM     21  C   UNL     1       0.316  10.417  19.367  0.00  0.00    +0.000 A 
ATOM     22  C   UNL     1       1.173   9.317  19.244  0.00  0.00    +0.000 A 
BRANCH  20  23
ATOM     23  C   UNL     1      -1.251  11.893  20.754  0.00  0.00    +0.000 C 
ATOM     24  C   UNL     1      -1.281  12.749  19.487  0.00  0.00    +0.000 C 
BRANCH  23  25
ATOM     25  N   UNL     1      -0.793  12.674  21.896  0.00  0.00    +0.000 N 
ATOM     26  C   UNL     1      -1.431  13.000  23.052  0.00  0.00    +0.000 C 
ATOM     27  C   UNL     1      -2.746  12.360  23.396  0.00  0.00    +0.000 C 
ATOM     28  O   UNL     1      -0.892  13.788  23.825  0.00  0.00    +0.000 OA
ATOM     29  H   UNL     1       0.085  13.166  21.800  0.00  0.00    +0.000 HD
ENDBRANCH  23  25
ENDBRANCH  20  23
ENDBRANCH  16  17
ENDBRANCH   4  16
TORSDOF 7
ENDMDL
MODEL 5
REMARK VINA RESULT:      -8.0      2.340      2.881
REMARK  Name = 
REMARK  10 active torsions:
REMARK  status: ('A' for Active; 'I' for Inactive)
REMARK    1  A    between atoms: C_1  and  C_2
REMARK    2  A    between atoms: C_2  and  O_3
REMARK    3  A    between atoms: O_3  and  C_4
REMARK    4  A    between atoms: C_6  and  N_7
REMARK    5  A    between atoms: C_10  and  O_11
REMARK    6  A    between atoms: O_11  and  C_12
REMARK    7  A    between atoms: C_15  and  C_16
REMARK    8  A    between atoms: C_16  and  C_17
REMARK    9  A    between atoms: C_16  and  N_18
REMARK   10  A    between atoms: C_19  and  C_20
REMARK                            x       y       z     vdW  Elec       q    Type
REMARK                         _______ _______ _______ _____ _____    ______ ____
ROOT
ATOM      1  N   UNL     1       4.191   5.555  18.808  0.00  0.00    +0.000 N 
ATOM      2  C   UNL     1       3.141   4.634  19.249  0.00  0.00    +0.000 C 
ATOM      3  C   UNL     1       1.845   5.271  18.770  0.00  0.00    +0.000 C 
ATOM      4  C   UNL     1       2.110   6.767  18.928  0.00  0.00    +0.000 C 
ATOM      5  C   UNL     1       3.589   6.868  18.475  0.00  0.00    +0.000 C 
ENDROOT
BRANCH   1   8
ATOM      6  C   UNL     1       5.997   4.320  15.853  0.00  0.00    +0.000 A 
ATOM      7  C   UNL     1       4.962   4.715  16.692  0.00  0.00    +0.000 A 
ATOM      8  C   UNL     1       5.244   5.129  18.002  0.00  0.00    +0.000 A 
ATOM      9  C   UNL     1       6.591   5.096  18.387  0.00  0.00    +0.000 A 
ATOM     10  F   UNL     1       6.976   5.393  19.637  0.00  0.00    +0.000 F 
ATOM     11  C   UNL     1       7.561   4.701  17.478  0.00  0.00    +0.000 A 
ATOM     12  N   UNL     1       7.297   4.311  16.213  0.00  0.00    +0.000 NA
BRANCH   6  13
ATOM     13  O   UNL     1       5.651   3.960  14.564  0.00  0.00    +0.000 OA
BRANCH  13  15
ATOM     14  C   UNL     1       6.416   3.527  12.339  0.00  0.00    +0.000 C 
ATOM     15  C   UNL     1       6.667   4.302  13.619  0.00  0.00    +0.000 C 
ENDBRANCH  13  15
ENDBRANCH   6  13
ENDBRANCH   1   8
BRANCH   4  16
ATOM     16  O   UNL     1       2.012   7.196  20.296  0.00  0.00    +0.000 OA
BRANCH  16  17
ATOM     17  C   UNL     1       1.389   8.394  20.519  0.00  0.00    +0.000 A 
ATOM     18  C   UNL     1       1.034   9.304  19.525  0.00  0.00    +0.000 A 
ATOM     19  C   UNL     1       0.303  10.455  19.839  0.00  0.00    +0.000 A 
ATOM     20  C   UNL     1      -0.081  10.728  21.162  0.00  0.00    +0.000 A 
ATOM     21  C   UNL     1       0.304   9.817  22.161  0.00  0.00    +0.000 A 
ATOM     22  C   UNL     1       1.018   8.657  21.837  0.00  0.00    +0.000 A 
BRANCH  20  23
ATOM     23  C   UNL     1      -0.914  11.962  21.476  0.00  0.00    +0.000 C 
ATOM     24  C   UNL     1      -0.025  13.178  21.742  0.00  0.00    +0.000 C 
BRANCH  23  25
ATOM     25  N   UNL     1      -1.786  11.700  22.614  0.00  0.00    +0.000 N 
ATOM     26  C   UNL     1      -3.020  12.188  22.909  0.00  0.00    +0.000 C 
ATOM     27  C   UNL     1      -3.781  12.986  21.888  0.00  0.00    +0.000 C 
ATOM     28  O   UNL     1      -3.516  11.926  24.002  0.00  0.00    +0.000 OA
ATOM     29  H   UNL     1      -1.398  11.171  23.384  0.00  0.00    +0.000 HD
ENDBRANCH  23  25
ENDBRANCH  20  23
ENDBRANCH  16  17
ENDBRANCH   4  16
TORSDOF 7
ENDMDL
MODEL 6
REMARK VINA RESULT:      -7.8      2.141      2.863
REMARK  Name = 
REMARK  10 active torsions:
REMARK  status: ('A' for Active; 'I' for Inactive)
REMARK    1  A    between atoms: C_1  and  C_2
REMARK    2  A    between atoms: C_2  and  O_3
REMARK    3  A    between atoms: O_3  and  C_4
REMARK    4  A    between atoms: C_6  and  N_7
REMARK    5  A    between atoms: C_10  and  O_11
REMARK    6  A    between atoms: O_11  and  C_12
REMARK    7  A    between atoms: C_15  and  C_16
REMARK    8  A    between atoms: C_16  and  C_17
REMARK    9  A    between atoms: C_16  and  N_18
REMARK   10  A    between atoms: C_19  and  C_20
REMARK                            x       y       z     vdW  Elec       q    Type
REMARK                         _______ _______ _______ _____ _____    ______ ____
ROOT
ATOM      1  N   UNL     1       4.368   5.750  18.454  0.00  0.00    +0.000 N 
ATOM      2  C   UNL     1       3.272   4.834  18.775  0.00  0.00    +0.000 C 
ATOM      3  C   UNL     1       2.035   5.490  18.177  0.00  0.00    +0.000 C 
ATOM      4  C   UNL     1       2.297   6.982  18.381  0.00  0.00    +0.000 C 
ATOM      5  C   UNL     1       3.815   7.073  18.081  0.00  0.00    +0.000 C 
ENDROOT
BRANCH   1   8
ATOM      6  C   UNL     1       6.556   4.895  15.625  0.00  0.00    +0.000 A 
ATOM      7  C   UNL     1       5.436   5.282  16.353  0.00  0.00    +0.000 A 
ATOM      8  C   UNL     1       5.493   5.322  17.753  0.00  0.00    +0.000 A 
ATOM      9  C   UNL     1       6.710   4.941  18.336  0.00  0.00    +0.000 A 
ATOM     10  F   UNL     1       6.863   4.865  19.667  0.00  0.00    +0.000 F 
ATOM     11  C   UNL     1       7.781   4.583  17.531  0.00  0.00    +0.000 A 
ATOM     12  N   UNL     1       7.735   4.552  16.183  0.00  0.00    +0.000 NA
BRANCH   6  13
ATOM     13  O   UNL     1       6.440   4.913  14.248  0.00  0.00    +0.000 OA
BRANCH  13  15
ATOM     14  C   UNL     1       6.440   3.594  12.252  0.00  0.00    +0.000 C 
ATOM     15  C   UNL     1       6.069   3.637  13.722  0.00  0.00    +0.000 C 
ENDBRANCH  13  15
ENDBRANCH   6  13
ENDBRANCH   1   8
BRANCH   4  16
ATOM     16  O   UNL     1       2.066   7.394  19.737  0.00  0.00    +0.000 OA
BRANCH  16  17
ATOM     17  C   UNL     1       1.388   8.571  19.912  0.00  0.00    +0.000 A 
ATOM     18  C   UNL     1       1.145   9.506  18.908  0.00  0.00    +0.000 A 
ATOM     19  C   UNL     1       0.349  10.630  19.158  0.00  0.00    +0.000 A 
ATOM     20  C   UNL     1      -0.214  10.850  20.425  0.00  0.00    +0.000 A 
ATOM     21  C   UNL     1       0.059   9.913  21.438  0.00  0.00    +0.000 A 
ATOM     22  C   UNL     1       0.839   8.780  21.177  0.00  0.00    +0.000 A 
BRANCH  20  23
ATOM     23  C   UNL     1      -1.112  12.055  20.663  0.00  0.00    +0.000 C 
ATOM     24  C   UNL     1      -1.687  12.586  19.349  0.00  0.00    +0.000 C 
BRANCH  23  25
ATOM     25  N   UNL     1      -0.373  13.097  21.364  0.00  0.00    +0.000 N 
ATOM     26  C   UNL     1      -0.644  13.732  22.536  0.00  0.00    +0.000 C 
ATOM     27  C   UNL     1      -1.750  13.238  23.425  0.00  0.00    +0.000 C 
ATOM     28  O   UNL     1       0.059  14.682  22.872  0.00  0.00    +0.000 OA
ATOM     29  H   UNL     1       0.402  13.525  20.876  0.00  0.00    +0.000 HD
ENDBRANCH  23  25
ENDBRANCH  20  23
ENDBRANCH  16  17
ENDBRANCH   4  16
TORSDOF 7
ENDMDL
MODEL 7
REMARK VINA RESULT:      -7.7      2.019      2.512
REMARK  Name = 
REMARK  10 active torsions:
REMARK  status: ('A' for Active; 'I' for Inactive)
REMARK    1  A    between atoms: C_1  and  C_2
REMARK    2  A    between atoms: C_2  and  O_3
REMARK    3  A    between atoms: O_3  and  C_4
REMARK    4  A    between atoms: C_6  and  N_7
REMARK    5  A    between atoms: C_10  and  O_11
REMARK    6  A    between atoms: O_11  and  C_12
REMARK    7  A    between atoms: C_15  and  C_16
REMARK    8  A    between atoms: C_16  and  C_17
REMARK    9  A    between atoms: C_16  and  N_18
REMARK   10  A    between atoms: C_19  and  C_20
REMARK                            x       y       z     vdW  Elec       q    Type
REMARK                         _______ _______ _______ _____ _____    ______ ____
ROOT
ATOM      1  N   UNL     1       4.342   5.359  18.861  0.00  0.00    +0.000 N 
ATOM      2  C   UNL     1       3.287   4.408  19.217  0.00  0.00    +0.000 C 
ATOM      3  C   UNL     1       2.013   5.018  18.651  0.00  0.00    +0.000 C 
ATOM      4  C   UNL     1       2.229   6.519  18.840  0.00  0.00    +0.000 C 
ATOM      5  C   UNL     1       3.734   6.660  18.496  0.00  0.00    +0.000 C 
ENDROOT
BRANCH   1   8
ATOM      6  C   UNL     1       6.372   4.058  16.084  0.00  0.00    +0.000 A 
ATOM      7  C   UNL     1       5.272   4.424  16.852  0.00  0.00    +0.000 A 
ATOM      8  C   UNL     1       5.461   4.966  18.131  0.00  0.00    +0.000 A 
ATOM      9  C   UNL     1       6.789   5.086  18.563  0.00  0.00    +0.000 A 
ATOM     10  F   UNL     1       7.094   5.517  19.797  0.00  0.00    +0.000 F 
ATOM     11  C   UNL     1       7.827   4.708  17.725  0.00  0.00    +0.000 A 
ATOM     12  N   UNL     1       7.651   4.196  16.489  0.00  0.00    +0.000 NA
BRANCH   6  13
ATOM     13  O   UNL     1       6.113   3.566  14.820  0.00  0.00    +0.000 OA
BRANCH  13  15
ATOM     14  C   UNL     1       6.471   3.700  12.458  0.00  0.00    +0.000 C 
ATOM     15  C   UNL     1       6.689   4.380  13.796  0.00  0.00    +0.000 C 
ENDBRANCH  13  15
ENDBRANCH   6  13
ENDBRANCH   1   8
BRANCH   4  16
ATOM     16  O   UNL     1       2.021   6.931  20.200  0.00  0.00    +0.000 OA
BRANCH  16  17
ATOM     17  C   UNL     1       1.470   8.170  20.386  0.00  0.00    +0.000 A 
ATOM     18  C   UNL     1       1.129   8.711  21.625  0.00  0.00    +0.000 A 
ATOM     19  C   UNL     1       0.669  10.029  21.726  0.00  0.00    +0.000 A 
ATOM     20  C   UNL     1       0.529  10.834  20.584  0.00  0.00    +0.000 A 
ATOM     21  C   UNL     1       0.852  10.271  19.337  0.00  0.00    +0.000 A 
ATOM     22  C   UNL     1       1.330   8.958  19.245  0.00  0.00    +0.000 A 
BRANCH  20  23
ATOM     23  C   UNL     1       0.070  12.279  20.721  0.00  0.00    +0.000 C 
ATOM     24  C   UNL     1      -1.456  12.375  20.755  0.00  0.00    +0.000 C 
BRANCH  23  25
ATOM     25  N   UNL     1       0.615  13.081  19.632  0.00  0.00    +0.000 N 
ATOM     26  C   UNL     1       1.731  13.856  19.582  0.00  0.00    +0.000 C 
ATOM     27  C   UNL     1       2.733  13.810  20.702  0.00  0.00    +0.000 C 
ATOM     28  O   UNL     1       1.925  14.554  18.590  0.00  0.00    +0.000 OA
ATOM     29  H   UNL     1       0.039  13.199  18.809  0.00  0.00    +0.000 HD
ENDBRANCH  23  25
ENDBRANCH  20  23
ENDBRANCH  16  17
ENDBRANCH   4  16
TORSDOF 7
ENDMDL
MODEL 8
REMARK VINA RESULT:      -7.7      1.975      2.488
REMARK  Name = 
REMARK  10 active torsions:
REMARK  status: ('A' for Active; 'I' for Inactive)
REMARK    1  A    between atoms: C_1  and  C_2
REMARK    2  A    between atoms: C_2  and  O_3
REMARK    3  A    between atoms: O_3  and  C_4
REMARK    4  A    between atoms: C_6  and  N_7
REMARK    5  A    between atoms: C_10  and  O_11
REMARK    6  A    between atoms: O_11  and  C_12
REMARK    7  A    between atoms: C_15  and  C_16
REMARK    8  A    between atoms: C_16  and  C_17
REMARK    9  A    between atoms: C_16  and  N_18
REMARK   10  A    between atoms: C_19  and  C_20
REMARK                            x       y       z     vdW  Elec       q    Type
REMARK                         _______ _______ _______ _____ _____    ______ ____
ROOT
ATOM      1  N   UNL     1       4.279   5.316  18.663  0.00  0.00    +0.000 N 
ATOM      2  C   UNL     1       3.204   4.374  18.981  0.00  0.00    +0.000 C 
ATOM      3  C   UNL     1       1.941   5.042  18.457  0.00  0.00    +0.000 C 
ATOM      4  C   UNL     1       2.194   6.525  18.719  0.00  0.00    +0.000 C 
ATOM      5  C   UNL     1       3.700   6.648  18.370  0.00  0.00    +0.000 C 
ENDROOT
BRANCH   1   8
ATOM      6  C   UNL     1       6.254   4.093  15.813  0.00  0.00    +0.000 A 
ATOM      7  C   UNL     1       5.170   4.447  16.607  0.00  0.00    +0.000 A 
ATOM      8  C   UNL     1       5.383   4.934  17.905  0.00  0.00    +0.000 A 
ATOM      9  C   UNL     1       6.718   5.015  18.325  0.00  0.00    +0.000 A 
ATOM     10  F   UNL     1       7.044   5.392  19.571  0.00  0.00    +0.000 F 
ATOM     11  C   UNL     1       7.739   4.654  17.459  0.00  0.00    +0.000 A 
ATOM     12  N   UNL     1       7.540   4.193  16.207  0.00  0.00    +0.000 NA
BRANCH   6  13
ATOM     13  O   UNL     1       5.972   3.656  14.533  0.00  0.00    +0.000 OA
BRANCH  13  15
ATOM     14  C   UNL     1       6.622   3.557  12.232  0.00  0.00    +0.000 C 
ATOM     15  C   UNL     1       6.811   4.275  13.555  0.00  0.00    +0.000 C 
ENDBRANCH  13  15
ENDBRANCH   6  13
ENDBRANCH   1   8
BRANCH   4  16
ATOM     16  O   UNL     1       2.007   6.874  20.099  0.00  0.00    +0.000 OA
BRANCH  16  17
ATOM     17  C   UNL     1       1.564   8.143  20.356  0.00  0.00    +0.000 A 
ATOM     18  C   UNL     1       1.312   9.110  19.385  0.00  0.00    +0.000 A 
ATOM     19  C   UNL     1       0.758  10.346  19.735  0.00  0.00    +0.000 A 
ATOM     20  C   UNL     1       0.453  10.648  21.072  0.00  0.00    +0.000 A 
ATOM     21  C   UNL     1       0.735   9.676  22.047  0.00  0.00    +0.000 A 
ATOM     22  C   UNL     1       1.271   8.433  21.688  0.00  0.00    +0.000 A 
BRANCH  20  23
ATOM     23  C   UNL     1      -0.191  11.981  21.426  0.00  0.00    +0.000 C 
ATOM     24  C   UNL     1      -1.466  11.780  22.247  0.00  0.00    +0.000 C 
BRANCH  23  25
ATOM     25  N   UNL     1      -0.470  12.739  20.213  0.00  0.00    +0.000 N 
ATOM     26  C   UNL     1       0.084  13.889  19.746  0.00  0.00    +0.000 C 
ATOM     27  C   UNL     1       1.309  14.460  20.404  0.00  0.00    +0.000 C 
ATOM     28  O   UNL     1      -0.406  14.424  18.754  0.00  0.00    +0.000 OA
ATOM     29  H   UNL     1      -1.276  12.463  19.668  0.00  0.00    +0.000 HD
ENDBRANCH  23  25
ENDBRANCH  20  23
ENDBRANCH  16  17
ENDBRANCH   4  16
TORSDOF 7
ENDMDL
MODEL 9
REMARK VINA RESULT:      -7.6      3.134      9.399
REMARK  Name = 
REMARK  10 active torsions:
REMARK  status: ('A' for Active; 'I' for Inactive)
REMARK    1  A    between atoms: C_1  and  C_2
REMARK    2  A    between atoms: C_2  and  O_3
REMARK    3  A    between atoms: O_3  and  C_4
REMARK    4  A    between atoms: C_6  and  N_7
REMARK    5  A    between atoms: C_10  and  O_11
REMARK    6  A    between atoms: O_11  and  C_12
REMARK    7  A    between atoms: C_15  and  C_16
REMARK    8  A    between atoms: C_16  and  C_17
REMARK    9  A    between atoms: C_16  and  N_18
REMARK   10  A    between atoms: C_19  and  C_20
REMARK                            x       y       z     vdW  Elec       q    Type
REMARK                         _______ _______ _______ _____ _____    ______ ____
ROOT
ATOM      1  N   UNL     1      -1.522  10.665  18.729  0.00  0.00    +0.000 N 
ATOM      2  C   UNL     1      -1.028  11.650  19.694  0.00  0.00    +0.000 C 
ATOM      3  C   UNL     1       0.463  11.754  19.407  0.00  0.00    +0.000 C 
ATOM      4  C   UNL     1       0.847  10.326  19.024  0.00  0.00    +0.000 C 
ATOM      5  C   UNL     1      -0.381   9.891  18.184  0.00  0.00    +0.000 C 
ENDROOT
BRANCH   1   8
ATOM      6  C   UNL     1      -3.401  10.929  15.580  0.00  0.00    +0.000 A 
ATOM      7  C   UNL     1      -2.375  10.674  16.483  0.00  0.00    +0.000 A 
ATOM      8  C   UNL     1      -2.553  10.966  17.843  0.00  0.00    +0.000 A 
ATOM      9  C   UNL     1      -3.786  11.528  18.201  0.00  0.00    +0.000 A 
ATOM     10  F   UNL     1      -4.045  11.922  19.457  0.00  0.00    +0.000 F 
ATOM     11  C   UNL     1      -4.759  11.735  17.235  0.00  0.00    +0.000 A 
ATOM     12  N   UNL     1      -4.597  11.447  15.927  0.00  0.00    +0.000 NA
BRANCH   6  13
ATOM     13  O   UNL     1      -3.172  10.583  14.262  0.00  0.00    +0.000 OA
BRANCH  13  15
ATOM     14  C   UNL     1      -4.204   9.857  12.229  0.00  0.00    +0.000 C 
ATOM     15  C   UNL     1      -4.197   9.734  13.742  0.00  0.00    +0.000 C 
ENDBRANCH  13  15
ENDBRANCH   6  13
ENDBRANCH   1   8
BRANCH   4  16
ATOM     16  O   UNL     1       0.957   9.466  20.168  0.00  0.00    +0.000 OA
BRANCH  16  17
ATOM     17  C   UNL     1       1.569   8.258  19.970  0.00  0.00    +0.000 A 
ATOM     18  C   UNL     1       1.450   7.157  20.817  0.00  0.00    +0.000 A 
ATOM     19  C   UNL     1       2.028   5.929  20.475  0.00  0.00    +0.000 A 
ATOM     20  C   UNL     1       2.749   5.777  19.281  0.00  0.00    +0.000 A 
ATOM     21  C   UNL     1       2.885   6.900  18.446  0.00  0.00    +0.000 A 
ATOM     22  C   UNL     1       2.288   8.121  18.783  0.00  0.00    +0.000 A 
BRANCH  20  23
ATOM     23  C   UNL     1       3.332   4.421  18.907  0.00  0.00    +0.000 C 
ATOM     24  C   UNL     1       2.753   3.309  19.783  0.00  0.00    +0.000 C 
BRANCH  23  25
ATOM     25  N   UNL     1       4.785   4.457  19.009  0.00  0.00    +0.000 N 
ATOM     26  C   UNL     1       5.737   4.418  18.039  0.00  0.00    +0.000 C 
ATOM     27  C   UNL     1       5.347   4.541  16.592  0.00  0.00    +0.000 C 
ATOM     28  O   UNL     1       6.917   4.326  18.368  0.00  0.00    +0.000 OA
ATOM     29  H   UNL     1       5.188   4.379  19.933  0.00  0.00    +0.000 HD
ENDBRANCH  23  25
ENDBRANCH  20  23
ENDBRANCH  16  17
ENDBRANCH   4  16
TORSDOF 7
ENDMDL
