MODEL 1
REMARK VINA RESULT:      -7.9      0.000      0.000
REMARK  Name = 
REMARK  6 active torsions:
REMARK  status: ('A' for Active; 'I' for Inactive)
REMARK    1  A    between atoms: C_1  and  C_2
REMARK    2  A    between atoms: C_4  and  C_5
REMARK    3  A    between atoms: N_10  and  C_11
REMARK    4  A    between atoms: C_11  and  C_12
REMARK    5  A    between atoms: C_12  and  C_13
REMARK    6  A    between atoms: N_20  and  C_21
REMARK                            x       y       z     vdW  Elec       q    Type
REMARK                         _______ _______ _______ _____ _____    ______ ____
ROOT
ATOM      1  C   UNL     1       4.553   3.854  18.659  0.00  0.00    +0.000 A 
ATOM      2  N   UNL     1       4.849   2.955  19.558  0.00  0.00    +0.000 NA
ATOM      3  N   UNL     1       3.749   2.882  20.343  0.00  0.00    +0.000 N 
ATOM      4  C   UNL     1       2.776   3.754  19.900  0.00  0.00    +0.000 A 
ATOM      5  O   UNL     1       1.681   3.873  20.424  0.00  0.00    +0.000 OA
ATOM      6  N   UNL     1       3.304   4.393  18.803  0.00  0.00    +0.000 N 
ATOM      7  H   UNL     1       3.667   2.254  21.131  0.00  0.00    +0.000 HD
ENDROOT
BRANCH   1  11
ATOM      8  C   UNL     1       7.048   4.753  14.335  0.00  0.00    +0.000 C 
ATOM      9  C   UNL     1       6.624   4.635  15.750  0.00  0.00    +0.000 A 
ATOM     10  C   UNL     1       5.524   3.931  16.287  0.00  0.00    +0.000 A 
ATOM     11  C   UNL     1       5.510   4.209  17.645  0.00  0.00    +0.000 A 
ATOM     12  N   UNL     1       6.612   5.023  17.836  0.00  0.00    +0.000 N 
ATOM     13  C   UNL     1       7.132   5.611  19.049  0.00  0.00    +0.000 C 
ATOM     14  N   UNL     1       7.301   5.273  16.703  0.00  0.00    +0.000 NA
ENDBRANCH   1  11
BRANCH   6  15
ATOM     15  C   UNL     1       2.604   5.392  17.981  0.00  0.00    +0.000 C 
BRANCH  15  16
ATOM     16  C   UNL     1       3.149   6.823  18.093  0.00  0.00    +0.000 C 
BRANCH  16  17
ATOM     17  C   UNL     1       2.217   7.832  18.718  0.00  0.00    +0.000 A 
ATOM     18  C   UNL     1       1.887   7.746  20.080  0.00  0.00    +0.000 A 
ATOM     19  C   UNL     1       1.111   8.739  20.681  0.00  0.00    +0.000 A 
ATOM     20  C   UNL     1       0.663   9.813  19.922  0.00  0.00    +0.000 A 
ATOM     21  F   UNL     1      -0.067  10.773  20.505  0.00  0.00    +0.000 F 
ATOM     22  C   UNL     1       0.971   9.912  18.571  0.00  0.00    +0.000 A 
ATOM     23  C   UNL     1       1.745   8.921  17.967  0.00  0.00    +0.000 A 
ENDBRANCH  16  17
ENDBRANCH  15  16
ENDBRANCH   6  15
TORSDOF 4
ENDMDL
MODEL 2
REMARK VINA RESULT:      -7.9      0.110      1.037
REMARK  Name = 
REMARK  6 active torsions:
REMARK  status: ('A' for Active; 'I' for Inactive)
REMARK    1  A    between atoms: C_1  and  C_2
REMARK    2  A    between atoms: C_4  and  C_5
REMARK    3  A    between atoms: N_10  and  C_11
REMARK    4  A    between atoms: C_11  and  C_12
REMARK    5  A    between atoms: C_12  and  C_13
REMARK    6  A    between atoms: N_20  and  C_21
REMARK                            x       y       z     vdW  Elec       q    Type
REMARK                         _______ _______ _______ _____ _____    ______ ____
ROOT
ATOM      1  C   UNL     1       4.551   3.836  18.652  0.00  0.00    +0.000 A 
ATOM      2  N   UNL     1       4.859   2.935  19.545  0.00  0.00    +0.000 NA
ATOM      3  N   UNL     1       3.767   2.854  20.340  0.00  0.00    +0.000 N 
ATOM      4  C   UNL     1       2.786   3.723  19.911  0.00  0.00    +0.000 A 
ATOM      5  O   UNL     1       1.696   3.835  20.447  0.00  0.00    +0.000 OA
ATOM      6  N   UNL     1       3.301   4.370  18.812  0.00  0.00    +0.000 N 
ATOM      7  H   UNL     1       3.696   2.222  21.126  0.00  0.00    +0.000 HD
ENDROOT
BRANCH   1  11
ATOM      8  C   UNL     1       6.993   4.780  14.309  0.00  0.00    +0.000 C 
ATOM      9  C   UNL     1       6.587   4.645  15.727  0.00  0.00    +0.000 A 
ATOM     10  C   UNL     1       5.491   3.939  16.269  0.00  0.00    +0.000 A 
ATOM     11  C   UNL     1       5.496   4.200  17.631  0.00  0.00    +0.000 A 
ATOM     12  N   UNL     1       6.604   5.007  17.818  0.00  0.00    +0.000 N 
ATOM     13  C   UNL     1       7.143   5.576  19.032  0.00  0.00    +0.000 C 
ATOM     14  N   UNL     1       7.280   5.268  16.679  0.00  0.00    +0.000 NA
ENDBRANCH   1  11
BRANCH   6  15
ATOM     15  C   UNL     1       2.589   5.369  18.002  0.00  0.00    +0.000 C 
BRANCH  15  16
ATOM     16  C   UNL     1       3.183   6.785  18.046  0.00  0.00    +0.000 C 
BRANCH  16  17
ATOM     17  C   UNL     1       2.317   7.840  18.687  0.00  0.00    +0.000 A 
ATOM     18  C   UNL     1       1.776   8.881  17.915  0.00  0.00    +0.000 A 
ATOM     19  C   UNL     1       0.889   9.795  18.486  0.00  0.00    +0.000 A 
ATOM     20  C   UNL     1       0.548   9.673  19.828  0.00  0.00    +0.000 A 
ATOM     21  F   UNL     1      -0.317  10.541  20.370  0.00  0.00    +0.000 F 
ATOM     22  C   UNL     1       1.080   8.656  20.611  0.00  0.00    +0.000 A 
ATOM     23  C   UNL     1       1.967   7.741  20.043  0.00  0.00    +0.000 A 
ENDBRANCH  16  17
ENDBRANCH  15  16
ENDBRANCH   6  15
TORSDOF 4
ENDMDL
MODEL 3
REMARK VINA RESULT:      -7.7      4.062      7.244
REMARK  Name = 
REMARK  6 active torsions:
REMARK  status: ('A' for Active; 'I' for Inactive)
REMARK    1  A    between atoms: C_1  and  C_2
REMARK    2  A    between atoms: C_4  and  C_5
REMARK    3  A    between atoms: N_10  and  C_11
REMARK    4  A    between atoms: C_11  and  C_12
REMARK    5  A    between atoms: C_12  and  C_13
REMARK    6  A    between atoms: N_20  and  C_21
REMARK                            x       y       z     vdW  Elec       q    Type
REMARK                         _______ _______ _______ _____ _____    ______ ____
ROOT
ATOM      1  C   UNL     1       5.448   4.524  18.951  0.00  0.00    +0.000 A 
ATOM      2  N   UNL     1       6.402   4.855  19.778  0.00  0.00    +0.000 NA
ATOM      3  N   UNL     1       7.513   4.921  19.008  0.00  0.00    +0.000 N 
ATOM      4  C   UNL     1       7.214   4.627  17.694  0.00  0.00    +0.000 A 
ATOM      5  O   UNL     1       8.036   4.630  16.793  0.00  0.00    +0.000 OA
ATOM      6  N   UNL     1       5.865   4.361  17.659  0.00  0.00    +0.000 N 
ATOM      7  H   UNL     1       8.425   5.172  19.366  0.00  0.00    +0.000 HD
ENDROOT
BRANCH   1  11
ATOM      8  C   UNL     1       1.205   3.002  21.276  0.00  0.00    +0.000 C 
ATOM      9  C   UNL     1       2.220   3.707  20.459  0.00  0.00    +0.000 A 
ATOM     10  C   UNL     1       3.532   3.297  20.133  0.00  0.00    +0.000 A 
ATOM     11  C   UNL     1       4.102   4.347  19.429  0.00  0.00    +0.000 A 
ATOM     12  N   UNL     1       3.095   5.290  19.351  0.00  0.00    +0.000 N 
ATOM     13  C   UNL     1       3.084   6.586  18.709  0.00  0.00    +0.000 C 
ATOM     14  N   UNL     1       1.950   4.909  19.953  0.00  0.00    +0.000 NA
ENDBRANCH   1  11
BRANCH   6  15
ATOM     15  C   UNL     1       5.095   4.030  16.450  0.00  0.00    +0.000 C 
BRANCH  15  16
ATOM     16  C   UNL     1       5.204   5.054  15.310  0.00  0.00    +0.000 C 
BRANCH  16  17
ATOM     17  C   UNL     1       5.807   4.542  14.025  0.00  0.00    +0.000 A 
ATOM     18  C   UNL     1       7.055   5.013  13.589  0.00  0.00    +0.000 A 
ATOM     19  C   UNL     1       7.660   4.462  12.458  0.00  0.00    +0.000 A 
ATOM     20  C   UNL     1       7.017   3.447  11.761  0.00  0.00    +0.000 A 
ATOM     21  F   UNL     1       7.607   2.908  10.686  0.00  0.00    +0.000 F 
ATOM     22  C   UNL     1       5.776   2.974  12.171  0.00  0.00    +0.000 A 
ATOM     23  C   UNL     1       5.169   3.523  13.300  0.00  0.00    +0.000 A 
ENDBRANCH  16  17
ENDBRANCH  15  16
ENDBRANCH   6  15
TORSDOF 4
ENDMDL
MODEL 4
REMARK VINA RESULT:      -7.6      1.335      2.269
REMARK  Name = 
REMARK  6 active torsions:
REMARK  status: ('A' for Active; 'I' for Inactive)
REMARK    1  A    between atoms: C_1  and  C_2
REMARK    2  A    between atoms: C_4  and  C_5
REMARK    3  A    between atoms: N_10  and  C_11
REMARK    4  A    between atoms: C_11  and  C_12
REMARK    5  A    between atoms: C_12  and  C_13
REMARK    6  A    between atoms: N_20  and  C_21
REMARK                            x       y       z     vdW  Elec       q    Type
REMARK                         _______ _______ _______ _____ _____    ______ ____
ROOT
ATOM      1  C   UNL     1       4.042   3.454  18.010  0.00  0.00    +0.000 A 
ATOM      2  N   UNL     1       4.119   2.151  18.042  0.00  0.00    +0.000 NA
ATOM      3  N   UNL     1       2.834   1.735  18.128  0.00  0.00    +0.000 N 
ATOM      4  C   UNL     1       1.973   2.813  18.146  0.00  0.00    +0.000 A 
ATOM      5  O   UNL     1       0.759   2.712  18.204  0.00  0.00    +0.000 OA
ATOM      6  N   UNL     1       2.764   3.936  18.076  0.00  0.00    +0.000 N 
ATOM      7  H   UNL     1       2.563   0.762  18.156  0.00  0.00    +0.000 HD
ENDROOT
BRANCH   1  11
ATOM      8  C   UNL     1       8.162   6.262  18.941  0.00  0.00    +0.000 C 
ATOM      9  C   UNL     1       7.074   5.472  18.319  0.00  0.00    +0.000 A 
ATOM     10  C   UNL     1       5.868   5.019  18.898  0.00  0.00    +0.000 A 
ATOM     11  C   UNL     1       5.238   4.249  17.932  0.00  0.00    +0.000 A 
ATOM     12  N   UNL     1       6.081   4.321  16.839  0.00  0.00    +0.000 N 
ATOM     13  C   UNL     1       5.943   3.743  15.521  0.00  0.00    +0.000 C 
ATOM     14  N   UNL     1       7.183   5.070  17.054  0.00  0.00    +0.000 NA
ENDBRANCH   1  11
BRANCH   6  15
ATOM     15  C   UNL     1       2.272   5.321  18.033  0.00  0.00    +0.000 C 
BRANCH  15  16
ATOM     16  C   UNL     1       2.461   6.118  19.332  0.00  0.00    +0.000 C 
BRANCH  16  17
ATOM     17  C   UNL     1       2.040   7.566  19.279  0.00  0.00    +0.000 A 
ATOM     18  C   UNL     1       2.137   8.292  18.081  0.00  0.00    +0.000 A 
ATOM     19  C   UNL     1       1.650   9.598  18.006  0.00  0.00    +0.000 A 
ATOM     20  C   UNL     1       1.070  10.179  19.127  0.00  0.00    +0.000 A 
ATOM     21  F   UNL     1       0.588  11.426  19.048  0.00  0.00    +0.000 F 
ATOM     22  C   UNL     1       0.973   9.482  20.325  0.00  0.00    +0.000 A 
ATOM     23  C   UNL     1       1.460   8.177  20.403  0.00  0.00    +0.000 A 
ENDBRANCH  16  17
ENDBRANCH  15  16
ENDBRANCH   6  15
TORSDOF 4
ENDMDL
MODEL 5
REMARK VINA RESULT:      -7.6      3.152      5.513
REMARK  Name = 
REMARK  6 active torsions:
REMARK  status: ('A' for Active; 'I' for Inactive)
REMARK    1  A    between atoms: C_1  and  C_2
REMARK    2  A    between atoms: C_4  and  C_5
REMARK    3  A    between atoms: N_10  and  C_11
REMARK    4  A    between atoms: C_11  and  C_12
REMARK    5  A    between atoms: C_12  and  C_13
REMARK    6  A    between atoms: N_20  and  C_21
REMARK                            x       y       z     vdW  Elec       q    Type
REMARK                         _______ _______ _______ _____ _____    ______ ____
ROOT
ATOM      1  C   UNL     1       4.809   5.646  16.574  0.00  0.00    +0.000 A 
ATOM      2  N   UNL     1       5.290   6.609  15.836  0.00  0.00    +0.000 NA
ATOM      3  N   UNL     1       5.800   5.985  14.749  0.00  0.00    +0.000 N 
ATOM      4  C   UNL     1       5.617   4.622  14.840  0.00  0.00    +0.000 A 
ATOM      5  O   UNL     1       5.974   3.830  13.982  0.00  0.00    +0.000 OA
ATOM      6  N   UNL     1       4.976   4.399  16.035  0.00  0.00    +0.000 N 
ATOM      7  H   UNL     1       6.236   6.474  13.979  0.00  0.00    +0.000 HD
ENDROOT
BRANCH   1  11
ATOM      8  C   UNL     1       1.620   6.758  20.357  0.00  0.00    +0.000 C 
ATOM      9  C   UNL     1       2.797   6.408  19.528  0.00  0.00    +0.000 A 
ATOM     10  C   UNL     1       2.932   6.452  18.123  0.00  0.00    +0.000 A 
ATOM     11  C   UNL     1       4.188   5.940  17.838  0.00  0.00    +0.000 A 
ATOM     12  N   UNL     1       4.730   5.660  19.079  0.00  0.00    +0.000 N 
ATOM     13  C   UNL     1       6.031   5.133  19.426  0.00  0.00    +0.000 C 
ATOM     14  N   UNL     1       3.907   5.954  20.106  0.00  0.00    +0.000 NA
ENDBRANCH   1  11
BRANCH   6  15
ATOM     15  C   UNL     1       4.545   3.086  16.539  0.00  0.00    +0.000 C 
BRANCH  15  16
ATOM     16  C   UNL     1       3.029   2.926  16.722  0.00  0.00    +0.000 C 
BRANCH  16  17
ATOM     17  C   UNL     1       2.550   2.803  18.147  0.00  0.00    +0.000 A 
ATOM     18  C   UNL     1       3.448   2.462  19.172  0.00  0.00    +0.000 A 
ATOM     19  C   UNL     1       3.027   2.453  20.503  0.00  0.00    +0.000 A 
ATOM     20  C   UNL     1       1.711   2.778  20.809  0.00  0.00    +0.000 A 
ATOM     21  F   UNL     1       1.315   2.785  22.089  0.00  0.00    +0.000 F 
ATOM     22  C   UNL     1       0.805   3.108  19.809  0.00  0.00    +0.000 A 
ATOM     23  C   UNL     1       1.222   3.118  18.478  0.00  0.00    +0.000 A 
ENDBRANCH  16  17
ENDBRANCH  15  16
ENDBRANCH   6  15
TORSDOF 4
ENDMDL
MODEL 6
REMARK VINA RESULT:      -7.6      1.037      1.069
REMARK  Name = 
REMARK  6 active torsions:
REMARK  status: ('A' for Active; 'I' for Inactive)
REMARK    1  A    between atoms: C_1  and  C_2
REMARK    2  A    between atoms: C_4  and  C_5
REMARK    3  A    between atoms: N_10  and  C_11
REMARK    4  A    between atoms: C_11  and  C_12
REMARK    5  A    between atoms: C_12  and  C_13
REMARK    6  A    between atoms: N_20  and  C_21
REMARK                            x       y       z     vdW  Elec       q    Type
REMARK                         _______ _______ _______ _____ _____    ______ ____
ROOT
ATOM      1  C   UNL     1       4.215   3.378  19.388  0.00  0.00    +0.000 A 
ATOM      2  N   UNL     1       4.691   2.343  20.025  0.00  0.00    +0.000 NA
ATOM      3  N   UNL     1       3.848   2.165  21.068  0.00  0.00    +0.000 N 
ATOM      4  C   UNL     1       2.846   3.113  21.051  0.00  0.00    +0.000 A 
ATOM      5  O   UNL     1       1.947   3.166  21.875  0.00  0.00    +0.000 OA
ATOM      6  N   UNL     1       3.090   3.910  19.958  0.00  0.00    +0.000 N 
ATOM      7  H   UNL     1       3.947   1.421  21.745  0.00  0.00    +0.000 HD
ENDROOT
BRANCH   1  11
ATOM      8  C   UNL     1       5.547   4.720  14.683  0.00  0.00    +0.000 C 
ATOM      9  C   UNL     1       5.476   4.495  16.145  0.00  0.00    +0.000 A 
ATOM     10  C   UNL     1       4.596   3.661  16.869  0.00  0.00    +0.000 A 
ATOM     11  C   UNL     1       4.875   3.874  18.210  0.00  0.00    +0.000 A 
ATOM     12  N   UNL     1       5.916   4.784  18.200  0.00  0.00    +0.000 N 
ATOM     13  C   UNL     1       6.652   5.364  19.301  0.00  0.00    +0.000 C 
ATOM     14  N   UNL     1       6.299   5.153  16.960  0.00  0.00    +0.000 NA
ENDBRANCH   1  11
BRANCH   6  15
ATOM     15  C   UNL     1       2.253   5.039  19.524  0.00  0.00    +0.000 C 
BRANCH  15  16
ATOM     16  C   UNL     1       3.013   6.349  19.265  0.00  0.00    +0.000 C 
BRANCH  16  17
ATOM     17  C   UNL     1       2.172   7.601  19.248  0.00  0.00    +0.000 A 
ATOM     18  C   UNL     1       1.573   8.072  20.427  0.00  0.00    +0.000 A 
ATOM     19  C   UNL     1       0.884   9.286  20.432  0.00  0.00    +0.000 A 
ATOM     20  C   UNL     1       0.790  10.026  19.260  0.00  0.00    +0.000 A 
ATOM     21  F   UNL     1       0.143  11.199  19.271  0.00  0.00    +0.000 F 
ATOM     22  C   UNL     1       1.367   9.573  18.080  0.00  0.00    +0.000 A 
ATOM     23  C   UNL     1       2.056   8.360  18.072  0.00  0.00    +0.000 A 
ENDBRANCH  16  17
ENDBRANCH  15  16
ENDBRANCH   6  15
TORSDOF 4
ENDMDL
MODEL 7
REMARK VINA RESULT:      -7.6      2.911      5.357
REMARK  Name = 
REMARK  6 active torsions:
REMARK  status: ('A' for Active; 'I' for Inactive)
REMARK    1  A    between atoms: C_1  and  C_2
REMARK    2  A    between atoms: C_4  and  C_5
REMARK    3  A    between atoms: N_10  and  C_11
REMARK    4  A    between atoms: C_11  and  C_12
REMARK    5  A    between atoms: C_12  and  C_13
REMARK    6  A    between atoms: N_20  and  C_21
REMARK                            x       y       z     vdW  Elec       q    Type
REMARK                         _______ _______ _______ _____ _____    ______ ____
ROOT
ATOM      1  C   UNL     1       2.464   4.058  18.451  0.00  0.00    +0.000 A 
ATOM      2  N   UNL     1       1.385   3.382  18.163  0.00  0.00    +0.000 NA
ATOM      3  N   UNL     1       1.803   2.099  18.062  0.00  0.00    +0.000 N 
ATOM      4  C   UNL     1       3.159   2.008  18.298  0.00  0.00    +0.000 A 
ATOM      5  O   UNL     1       3.783   0.960  18.282  0.00  0.00    +0.000 OA
ATOM      6  N   UNL     1       3.592   3.290  18.545  0.00  0.00    +0.000 N 
ATOM      7  H   UNL     1       1.185   1.326  17.858  0.00  0.00    +0.000 HD
ENDROOT
BRANCH   1  11
ATOM      8  C   UNL     1       2.176   9.086  17.847  0.00  0.00    +0.000 C 
ATOM      9  C   UNL     1       2.254   7.707  18.383  0.00  0.00    +0.000 A 
ATOM     10  C   UNL     1       2.542   6.507  17.695  0.00  0.00    +0.000 A 
ATOM     11  C   UNL     1       2.402   5.485  18.622  0.00  0.00    +0.000 A 
ATOM     12  N   UNL     1       2.079   6.137  19.798  0.00  0.00    +0.000 N 
ATOM     13  C   UNL     1       1.840   5.601  21.120  0.00  0.00    +0.000 C 
ATOM     14  N   UNL     1       2.004   7.477  19.670  0.00  0.00    +0.000 NA
ENDBRANCH   1  11
BRANCH   6  15
ATOM     15  C   UNL     1       4.971   3.672  18.883  0.00  0.00    +0.000 C 
BRANCH  15  16
ATOM     16  C   UNL     1       5.821   4.151  17.696  0.00  0.00    +0.000 C 
BRANCH  16  17
ATOM     17  C   UNL     1       6.522   5.474  17.884  0.00  0.00    +0.000 A 
ATOM     18  C   UNL     1       7.557   5.602  18.824  0.00  0.00    +0.000 A 
ATOM     19  C   UNL     1       8.276   6.795  18.923  0.00  0.00    +0.000 A 
ATOM     20  C   UNL     1       7.958   7.858  18.087  0.00  0.00    +0.000 A 
ATOM     21  F   UNL     1       8.661   8.996  18.172  0.00  0.00    +0.000 F 
ATOM     22  C   UNL     1       6.931   7.755  17.157  0.00  0.00    +0.000 A 
ATOM     23  C   UNL     1       6.211   6.565  17.057  0.00  0.00    +0.000 A 
ENDBRANCH  16  17
ENDBRANCH  15  16
ENDBRANCH   6  15
TORSDOF 4
ENDMDL
MODEL 8
REMARK VINA RESULT:      -7.5      3.129      5.539
REMARK  Name = 
REMARK  6 active torsions:
REMARK  status: ('A' for Active; 'I' for Inactive)
REMARK    1  A    between atoms: C_1  and  C_2
REMARK    2  A    between atoms: C_4  and  C_5
REMARK    3  A    between atoms: N_10  and  C_11
REMARK    4  A    between atoms: C_11  and  C_12
REMARK    5  A    between atoms: C_12  and  C_13
REMARK    6  A    between atoms: N_20  and  C_21
REMARK                            x       y       z     vdW  Elec       q    Type
REMARK                         _______ _______ _______ _____ _____    ______ ____
ROOT
ATOM      1  C   UNL     1       4.811   5.703  16.548  0.00  0.00    +0.000 A 
ATOM      2  N   UNL     1       5.313   6.635  15.785  0.00  0.00    +0.000 NA
ATOM      3  N   UNL     1       5.832   5.969  14.728  0.00  0.00    +0.000 N 
ATOM      4  C   UNL     1       5.631   4.611  14.862  0.00  0.00    +0.000 A 
ATOM      5  O   UNL     1       5.991   3.786  14.038  0.00  0.00    +0.000 OA
ATOM      6  N   UNL     1       4.970   4.437  16.056  0.00  0.00    +0.000 N 
ATOM      7  H   UNL     1       6.284   6.426  13.948  0.00  0.00    +0.000 HD
ENDROOT
BRANCH   1  11
ATOM      8  C   UNL     1       1.595   7.046  20.233  0.00  0.00    +0.000 C 
ATOM      9  C   UNL     1       2.770   6.617  19.440  0.00  0.00    +0.000 A 
ATOM     10  C   UNL     1       2.945   6.638  18.039  0.00  0.00    +0.000 A 
ATOM     11  C   UNL     1       4.176   6.047  17.793  0.00  0.00    +0.000 A 
ATOM     12  N   UNL     1       4.666   5.748  19.050  0.00  0.00    +0.000 N 
ATOM     13  C   UNL     1       5.922   5.147  19.438  0.00  0.00    +0.000 C 
ATOM     14  N   UNL     1       3.835   6.103  20.052  0.00  0.00    +0.000 NA
ENDBRANCH   1  11
BRANCH   6  15
ATOM     15  C   UNL     1       4.518   3.147  16.597  0.00  0.00    +0.000 C 
BRANCH  15  16
ATOM     16  C   UNL     1       3.000   3.026  16.804  0.00  0.00    +0.000 C 
BRANCH  16  17
ATOM     17  C   UNL     1       2.534   3.006  18.238  0.00  0.00    +0.000 A 
ATOM     18  C   UNL     1       1.213   3.357  18.561  0.00  0.00    +0.000 A 
ATOM     19  C   UNL     1       0.752   3.236  19.873  0.00  0.00    +0.000 A 
ATOM     20  C   UNL     1       1.610   2.770  20.862  0.00  0.00    +0.000 A 
ATOM     21  F   UNL     1       1.161   2.639  22.117  0.00  0.00    +0.000 F 
ATOM     22  C   UNL     1       2.923   2.427  20.565  0.00  0.00    +0.000 A 
ATOM     23  C   UNL     1       3.387   2.547  19.255  0.00  0.00    +0.000 A 
ENDBRANCH  16  17
ENDBRANCH  15  16
ENDBRANCH   6  15
TORSDOF 4
ENDMDL
MODEL 9
REMARK VINA RESULT:      -7.5      3.999      7.184
REMARK  Name = 
REMARK  6 active torsions:
REMARK  status: ('A' for Active; 'I' for Inactive)
REMARK    1  A    between atoms: C_1  and  C_2
REMARK    2  A    between atoms: C_4  and  C_5
REMARK    3  A    between atoms: N_10  and  C_11
REMARK    4  A    between atoms: C_11  and  C_12
REMARK    5  A    between atoms: C_12  and  C_13
REMARK    6  A    between atoms: N_20  and  C_21
REMARK                            x       y       z     vdW  Elec       q    Type
REMARK                         _______ _______ _______ _____ _____    ______ ____
ROOT
ATOM      1  C   UNL     1       5.416   4.577  19.069  0.00  0.00    +0.000 A 
ATOM      2  N   UNL     1       6.336   5.046  19.866  0.00  0.00    +0.000 NA
ATOM      3  N   UNL     1       7.453   5.101  19.104  0.00  0.00    +0.000 N 
ATOM      4  C   UNL     1       7.191   4.658  17.824  0.00  0.00    +0.000 A 
ATOM      5  O   UNL     1       8.025   4.620  16.934  0.00  0.00    +0.000 OA
ATOM      6  N   UNL     1       5.861   4.309  17.804  0.00  0.00    +0.000 N 
ATOM      7  H   UNL     1       8.343   5.441  19.442  0.00  0.00    +0.000 HD
ENDROOT
BRANCH   1  11
ATOM      8  C   UNL     1       1.206   2.919  21.361  0.00  0.00    +0.000 C 
ATOM      9  C   UNL     1       2.208   3.668  20.568  0.00  0.00    +0.000 A 
ATOM     10  C   UNL     1       3.520   3.283  20.212  0.00  0.00    +0.000 A 
ATOM     11  C   UNL     1       4.076   4.367  19.550  0.00  0.00    +0.000 A 
ATOM     12  N   UNL     1       3.061   5.305  19.523  0.00  0.00    +0.000 N 
ATOM     13  C   UNL     1       3.035   6.628  18.940  0.00  0.00    +0.000 C 
ATOM     14  N   UNL     1       1.924   4.888  20.118  0.00  0.00    +0.000 NA
ENDBRANCH   1  11
BRANCH   6  15
ATOM     15  C   UNL     1       5.130   3.812  16.628  0.00  0.00    +0.000 C 
BRANCH  15  16
ATOM     16  C   UNL     1       5.045   4.797  15.453  0.00  0.00    +0.000 C 
BRANCH  16  17
ATOM     17  C   UNL     1       5.804   4.402  14.210  0.00  0.00    +0.000 A 
ATOM     18  C   UNL     1       5.268   3.457  13.320  0.00  0.00    +0.000 A 
ATOM     19  C   UNL     1       5.919   3.171  12.119  0.00  0.00    +0.000 A 
ATOM     20  C   UNL     1       7.106   3.824  11.811  0.00  0.00    +0.000 A 
ATOM     21  F   UNL     1       7.721   3.560  10.650  0.00  0.00    +0.000 F 
ATOM     22  C   UNL     1       7.658   4.754  12.682  0.00  0.00    +0.000 A 
ATOM     23  C   UNL     1       7.010   5.042  13.883  0.00  0.00    +0.000 A 
ENDBRANCH  16  17
ENDBRANCH  15  16
ENDBRANCH   6  15
TORSDOF 4
ENDMDL
