MODEL 1
REMARK VINA RESULT:      -7.7      0.000      0.000
REMARK  Name = 
REMARK  1 active torsions:
REMARK  status: ('A' for Active; 'I' for Inactive)
REMARK    1  A    between atoms: C_1  and  N_2
REMARK                            x       y       z     vdW  Elec       q    Type
REMARK                         _______ _______ _______ _____ _____    ______ ____
ROOT
ATOM      1  C   UNL     1       2.202   3.718  21.671  0.00  0.00    +0.000 C 
ATOM      2  N   UNL     1       2.316   3.521  20.224  0.00  0.00    +0.000 N 
ATOM      3  C   UNL     1       1.337   2.918  19.532  0.00  0.00    +0.000 A 
ATOM      4  C   UNL     1       1.431   2.725  18.166  0.00  0.00    +0.000 A 
ATOM      5  C   UNL     1       2.554   3.153  17.462  0.00  0.00    +0.000 A 
ATOM      6  C   UNL     1       3.575   3.783  18.182  0.00  0.00    +0.000 A 
ATOM      7  C   UNL     1       3.456   3.963  19.557  0.00  0.00    +0.000 A 
ATOM      8  N   UNL     1       4.535   4.589  20.099  0.00  0.00    +0.000 NA
ATOM      9  C   UNL     1       5.346   4.812  19.081  0.00  0.00    +0.000 A 
ATOM     10  C   UNL     1       6.618   5.437  19.078  0.00  0.00    +0.000 A 
ATOM     11  C   UNL     1       7.313   5.580  17.939  0.00  0.00    +0.000 A 
ATOM     12  C   UNL     1       6.769   5.090  16.669  0.00  0.00    +0.000 A 
ATOM     13  C   UNL     1       7.502   5.243  15.485  0.00  0.00    +0.000 A 
ATOM     14  C   UNL     1       6.987   4.780  14.274  0.00  0.00    +0.000 A 
ATOM     15  C   UNL     1       5.743   4.161  14.243  0.00  0.00    +0.000 A 
ATOM     16  C   UNL     1       5.004   4.001  15.415  0.00  0.00    +0.000 A 
ATOM     17  C   UNL     1       5.508   4.461  16.633  0.00  0.00    +0.000 A 
ATOM     18  N   UNL     1       4.815   4.339  17.874  0.00  0.00    +0.000 N 
ENDROOT
TORSDOF 0
ENDMDL
MODEL 2
REMARK VINA RESULT:      -7.2      3.981      6.000
REMARK  Name = 
REMARK  1 active torsions:
REMARK  status: ('A' for Active; 'I' for Inactive)
REMARK    1  A    between atoms: C_1  and  N_2
REMARK                            x       y       z     vdW  Elec       q    Type
REMARK                         _______ _______ _______ _____ _____    ______ ____
ROOT
ATOM      1  C   UNL     1       4.083   2.938  17.847  0.00  0.00    +0.000 C 
ATOM      2  N   UNL     1       3.390   3.574  18.970  0.00  0.00    +0.000 N 
ATOM      3  C   UNL     1       3.115   2.885  20.089  0.00  0.00    +0.000 A 
ATOM      4  C   UNL     1       2.462   3.472  21.157  0.00  0.00    +0.000 A 
ATOM      5  C   UNL     1       2.065   4.806  21.102  0.00  0.00    +0.000 A 
ATOM      6  C   UNL     1       2.352   5.526  19.938  0.00  0.00    +0.000 A 
ATOM      7  C   UNL     1       3.010   4.910  18.876  0.00  0.00    +0.000 A 
ATOM      8  N   UNL     1       3.208   5.750  17.825  0.00  0.00    +0.000 NA
ATOM      9  C   UNL     1       2.681   6.900  18.203  0.00  0.00    +0.000 A 
ATOM     10  C   UNL     1       2.610   8.124  17.490  0.00  0.00    +0.000 A 
ATOM     11  C   UNL     1       2.032   9.205  18.034  0.00  0.00    +0.000 A 
ATOM     12  C   UNL     1       1.458   9.145  19.382  0.00  0.00    +0.000 A 
ATOM     13  C   UNL     1       0.857  10.279  19.941  0.00  0.00    +0.000 A 
ATOM     14  C   UNL     1       0.312  10.226  21.224  0.00  0.00    +0.000 A 
ATOM     15  C   UNL     1       0.364   9.041  21.950  0.00  0.00    +0.000 A 
ATOM     16  C   UNL     1       0.960   7.905  21.403  0.00  0.00    +0.000 A 
ATOM     17  C   UNL     1       1.510   7.945  20.121  0.00  0.00    +0.000 A 
ATOM     18  N   UNL     1       2.137   6.829  19.492  0.00  0.00    +0.000 N 
ENDROOT
TORSDOF 0
ENDMDL
MODEL 3
REMARK VINA RESULT:      -7.0      3.627      4.182
REMARK  Name = 
REMARK  1 active torsions:
REMARK  status: ('A' for Active; 'I' for Inactive)
REMARK    1  A    between atoms: C_1  and  N_2
REMARK                            x       y       z     vdW  Elec       q    Type
REMARK                         _______ _______ _______ _____ _____    ______ ____
ROOT
ATOM      1  C   UNL     1       0.293   8.720  21.415  0.00  0.00    +0.000 C 
ATOM      2  N   UNL     1       1.055   8.780  20.166  0.00  0.00    +0.000 N 
ATOM      3  C   UNL     1       1.028   9.879  19.395  0.00  0.00    +0.000 A 
ATOM      4  C   UNL     1       1.742   9.950  18.213  0.00  0.00    +0.000 A 
ATOM      5  C   UNL     1       2.516   8.875  17.783  0.00  0.00    +0.000 A 
ATOM      6  C   UNL     1       2.547   7.729  18.586  0.00  0.00    +0.000 A 
ATOM      7  C   UNL     1       1.816   7.684  19.770  0.00  0.00    +0.000 A 
ATOM      8  N   UNL     1       1.957   6.500  20.426  0.00  0.00    +0.000 NA
ATOM      9  C   UNL     1       2.770   5.786  19.670  0.00  0.00    +0.000 A 
ATOM     10  C   UNL     1       3.254   4.470  19.880  0.00  0.00    +0.000 A 
ATOM     11  C   UNL     1       4.082   3.892  18.998  0.00  0.00    +0.000 A 
ATOM     12  C   UNL     1       4.508   4.611  17.793  0.00  0.00    +0.000 A 
ATOM     13  C   UNL     1       5.373   3.998  16.878  0.00  0.00    +0.000 A 
ATOM     14  C   UNL     1       5.781   4.680  15.731  0.00  0.00    +0.000 A 
ATOM     15  C   UNL     1       5.324   5.972  15.495  0.00  0.00    +0.000 A 
ATOM     16  C   UNL     1       4.461   6.591  16.399  0.00  0.00    +0.000 A 
ATOM     17  C   UNL     1       4.046   5.921  17.550  0.00  0.00    +0.000 A 
ATOM     18  N   UNL     1       3.168   6.484  18.523  0.00  0.00    +0.000 N 
ENDROOT
TORSDOF 0
ENDMDL
MODEL 4
REMARK VINA RESULT:      -7.0      4.829      6.891
REMARK  Name = 
REMARK  1 active torsions:
REMARK  status: ('A' for Active; 'I' for Inactive)
REMARK    1  A    between atoms: C_1  and  N_2
REMARK                            x       y       z     vdW  Elec       q    Type
REMARK                         _______ _______ _______ _____ _____    ______ ____
ROOT
ATOM      1  C   UNL     1       4.259   4.886  17.147  0.00  0.00    +0.000 C 
ATOM      2  N   UNL     1       3.506   5.151  18.375  0.00  0.00    +0.000 N 
ATOM      3  C   UNL     1       3.363   4.201  19.313  0.00  0.00    +0.000 A 
ATOM      4  C   UNL     1       2.654   4.437  20.478  0.00  0.00    +0.000 A 
ATOM      5  C   UNL     1       2.062   5.675  20.712  0.00  0.00    +0.000 A 
ATOM      6  C   UNL     1       2.210   6.666  19.736  0.00  0.00    +0.000 A 
ATOM      7  C   UNL     1       2.927   6.402  18.572  0.00  0.00    +0.000 A 
ATOM      8  N   UNL     1       2.973   7.471  17.731  0.00  0.00    +0.000 NA
ATOM      9  C   UNL     1       2.289   8.418  18.347  0.00  0.00    +0.000 A 
ATOM     10  C   UNL     1       2.020   9.742  17.918  0.00  0.00    +0.000 A 
ATOM     11  C   UNL     1       1.299  10.579  18.679  0.00  0.00    +0.000 A 
ATOM     12  C   UNL     1       0.773  10.141  19.976  0.00  0.00    +0.000 A 
ATOM     13  C   UNL     1       0.022  11.023  20.763  0.00  0.00    +0.000 A 
ATOM     14  C   UNL     1      -0.479  10.610  21.998  0.00  0.00    +0.000 A 
ATOM     15  C   UNL     1      -0.233   9.318  22.448  0.00  0.00    +0.000 A 
ATOM     16  C   UNL     1       0.513   8.431  21.672  0.00  0.00    +0.000 A 
ATOM     17  C   UNL     1       1.020   8.831  20.435  0.00  0.00    +0.000 A 
ATOM     18  N   UNL     1       1.793   7.987  19.584  0.00  0.00    +0.000 N 
ENDROOT
TORSDOF 0
ENDMDL
MODEL 5
REMARK VINA RESULT:      -6.9      1.190      5.947
REMARK  Name = 
REMARK  1 active torsions:
REMARK  status: ('A' for Active; 'I' for Inactive)
REMARK    1  A    between atoms: C_1  and  N_2
REMARK                            x       y       z     vdW  Elec       q    Type
REMARK                         _______ _______ _______ _____ _____    ______ ____
ROOT
ATOM      1  C   UNL     1       7.168   5.079  15.276  0.00  0.00    +0.000 C 
ATOM      2  N   UNL     1       6.770   5.144  16.684  0.00  0.00    +0.000 N 
ATOM      3  C   UNL     1       7.535   5.778  17.587  0.00  0.00    +0.000 A 
ATOM      4  C   UNL     1       7.172   5.848  18.920  0.00  0.00    +0.000 A 
ATOM      5  C   UNL     1       5.993   5.257  19.368  0.00  0.00    +0.000 A 
ATOM      6  C   UNL     1       5.194   4.597  18.428  0.00  0.00    +0.000 A 
ATOM      7  C   UNL     1       5.584   4.540  17.093  0.00  0.00    +0.000 A 
ATOM      8  N   UNL     1       4.696   3.862  16.317  0.00  0.00    +0.000 NA
ATOM      9  C   UNL     1       3.740   3.482  17.144  0.00  0.00    +0.000 A 
ATOM     10  C   UNL     1       2.564   2.742  16.866  0.00  0.00    +0.000 A 
ATOM     11  C   UNL     1       1.692   2.441  17.840  0.00  0.00    +0.000 A 
ATOM     12  C   UNL     1       1.938   2.873  19.219  0.00  0.00    +0.000 A 
ATOM     13  C   UNL     1       1.021   2.554  20.229  0.00  0.00    +0.000 A 
ATOM     14  C   UNL     1       1.251   2.966  21.542  0.00  0.00    +0.000 A 
ATOM     15  C   UNL     1       2.395   3.693  21.850  0.00  0.00    +0.000 A 
ATOM     16  C   UNL     1       3.315   4.016  20.853  0.00  0.00    +0.000 A 
ATOM     17  C   UNL     1       3.097   3.611  19.535  0.00  0.00    +0.000 A 
ATOM     18  N   UNL     1       3.987   3.902  18.458  0.00  0.00    +0.000 N 
ENDROOT
TORSDOF 0
ENDMDL
MODEL 6
REMARK VINA RESULT:      -6.9      5.871      7.160
REMARK  Name = 
REMARK  1 active torsions:
REMARK  status: ('A' for Active; 'I' for Inactive)
REMARK    1  A    between atoms: C_1  and  N_2
REMARK                            x       y       z     vdW  Elec       q    Type
REMARK                         _______ _______ _______ _____ _____    ______ ____
ROOT
ATOM      1  C   UNL     1      -0.602  12.915  21.006  0.00  0.00    +0.000 C 
ATOM      2  N   UNL     1      -0.341  11.547  21.460  0.00  0.00    +0.000 N 
ATOM      3  C   UNL     1      -0.744  11.136  22.673  0.00  0.00    +0.000 A 
ATOM      4  C   UNL     1      -0.505   9.847  23.115  0.00  0.00    +0.000 A 
ATOM      5  C   UNL     1       0.167   8.932  22.309  0.00  0.00    +0.000 A 
ATOM      6  C   UNL     1       0.586   9.358  21.044  0.00  0.00    +0.000 A 
ATOM      7  C   UNL     1       0.334  10.662  20.625  0.00  0.00    +0.000 A 
ATOM      8  N   UNL     1       0.809  10.910  19.374  0.00  0.00    +0.000 NA
ATOM      9  C   UNL     1       1.364   9.776  18.989  0.00  0.00    +0.000 A 
ATOM     10  C   UNL     1       2.013   9.474  17.765  0.00  0.00    +0.000 A 
ATOM     11  C   UNL     1       2.527   8.255  17.540  0.00  0.00    +0.000 A 
ATOM     12  C   UNL     1       2.428   7.205  18.559  0.00  0.00    +0.000 A 
ATOM     13  C   UNL     1       2.967   5.936  18.315  0.00  0.00    +0.000 A 
ATOM     14  C   UNL     1       2.873   4.934  19.282  0.00  0.00    +0.000 A 
ATOM     15  C   UNL     1       2.243   5.198  20.493  0.00  0.00    +0.000 A 
ATOM     16  C   UNL     1       1.703   6.458  20.747  0.00  0.00    +0.000 A 
ATOM     17  C   UNL     1       1.790   7.469  19.789  0.00  0.00    +0.000 A 
ATOM     18  N   UNL     1       1.262   8.782  19.971  0.00  0.00    +0.000 N 
ENDROOT
TORSDOF 0
ENDMDL
MODEL 7
REMARK VINA RESULT:      -6.9      1.952      5.619
REMARK  Name = 
REMARK  1 active torsions:
REMARK  status: ('A' for Active; 'I' for Inactive)
REMARK    1  A    between atoms: C_1  and  N_2
REMARK                            x       y       z     vdW  Elec       q    Type
REMARK                         _______ _______ _______ _____ _____    ______ ____
ROOT
ATOM      1  C   UNL     1       8.721   5.797  12.860  0.00  0.00    +0.000 C 
ATOM      2  N   UNL     1       7.535   5.018  13.222  0.00  0.00    +0.000 N 
ATOM      3  C   UNL     1       6.896   4.272  12.308  0.00  0.00    +0.000 A 
ATOM      4  C   UNL     1       5.774   3.531  12.635  0.00  0.00    +0.000 A 
ATOM      5  C   UNL     1       5.271   3.539  13.933  0.00  0.00    +0.000 A 
ATOM      6  C   UNL     1       5.935   4.315  14.888  0.00  0.00    +0.000 A 
ATOM      7  C   UNL     1       7.061   5.053  14.531  0.00  0.00    +0.000 A 
ATOM      8  N   UNL     1       7.582   5.751  15.576  0.00  0.00    +0.000 NA
ATOM      9  C   UNL     1       6.799   5.467  16.600  0.00  0.00    +0.000 A 
ATOM     10  C   UNL     1       6.884   5.925  17.939  0.00  0.00    +0.000 A 
ATOM     11  C   UNL     1       5.992   5.530  18.860  0.00  0.00    +0.000 A 
ATOM     12  C   UNL     1       4.906   4.613  18.501  0.00  0.00    +0.000 A 
ATOM     13  C   UNL     1       3.980   4.207  19.469  0.00  0.00    +0.000 A 
ATOM     14  C   UNL     1       2.946   3.333  19.131  0.00  0.00    +0.000 A 
ATOM     15  C   UNL     1       2.834   2.866  17.826  0.00  0.00    +0.000 A 
ATOM     16  C   UNL     1       3.750   3.264  16.853  0.00  0.00    +0.000 A 
ATOM     17  C   UNL     1       4.789   4.137  17.178  0.00  0.00    +0.000 A 
ATOM     18  N   UNL     1       5.766   4.590  16.243  0.00  0.00    +0.000 N 
ENDROOT
TORSDOF 0
ENDMDL
MODEL 8
REMARK VINA RESULT:      -6.9      3.916      5.817
REMARK  Name = 
REMARK  1 active torsions:
REMARK  status: ('A' for Active; 'I' for Inactive)
REMARK    1  A    between atoms: C_1  and  N_2
REMARK                            x       y       z     vdW  Elec       q    Type
REMARK                         _______ _______ _______ _____ _____    ______ ____
ROOT
ATOM      1  C   UNL     1       1.684  10.890  18.208  0.00  0.00    +0.000 C 
ATOM      2  N   UNL     1       1.456   9.849  19.212  0.00  0.00    +0.000 N 
ATOM      3  C   UNL     1       0.745  10.107  20.322  0.00  0.00    +0.000 A 
ATOM      4  C   UNL     1       0.521   9.134  21.279  0.00  0.00    +0.000 A 
ATOM      5  C   UNL     1       1.031   7.848  21.120  0.00  0.00    +0.000 A 
ATOM      6  C   UNL     1       1.771   7.577  19.964  0.00  0.00    +0.000 A 
ATOM      7  C   UNL     1       1.983   8.575  19.017  0.00  0.00    +0.000 A 
ATOM      8  N   UNL     1       2.722   8.145  17.959  0.00  0.00    +0.000 NA
ATOM      9  C   UNL     1       2.986   6.878  18.220  0.00  0.00    +0.000 A 
ATOM     10  C   UNL     1       3.725   5.946  17.449  0.00  0.00    +0.000 A 
ATOM     11  C   UNL     1       3.897   4.684  17.872  0.00  0.00    +0.000 A 
ATOM     12  C   UNL     1       3.321   4.241  19.146  0.00  0.00    +0.000 A 
ATOM     13  C   UNL     1       3.506   2.922  19.579  0.00  0.00    +0.000 A 
ATOM     14  C   UNL     1       2.959   2.496  20.789  0.00  0.00    +0.000 A 
ATOM     15  C   UNL     1       2.229   3.386  21.570  0.00  0.00    +0.000 A 
ATOM     16  C   UNL     1       2.039   4.702  21.149  0.00  0.00    +0.000 A 
ATOM     17  C   UNL     1       2.581   5.140  19.940  0.00  0.00    +0.000 A 
ATOM     18  N   UNL     1       2.431   6.467  19.439  0.00  0.00    +0.000 N 
ENDROOT
TORSDOF 0
ENDMDL
MODEL 9
REMARK VINA RESULT:      -6.8      3.248      4.730
REMARK  Name = 
REMARK  1 active torsions:
REMARK  status: ('A' for Active; 'I' for Inactive)
REMARK    1  A    between atoms: C_1  and  N_2
REMARK                            x       y       z     vdW  Elec       q    Type
REMARK                         _______ _______ _______ _____ _____    ______ ____
ROOT
ATOM      1  C   UNL     1       4.567   1.560  19.726  0.00  0.00    +0.000 C 
ATOM      2  N   UNL     1       3.699   2.620  20.246  0.00  0.00    +0.000 N 
ATOM      3  C   UNL     1       2.976   2.432  21.362  0.00  0.00    +0.000 A 
ATOM      4  C   UNL     1       2.153   3.423  21.865  0.00  0.00    +0.000 A 
ATOM      5  C   UNL     1       2.048   4.654  21.223  0.00  0.00    +0.000 A 
ATOM      6  C   UNL     1       2.802   4.853  20.061  0.00  0.00    +0.000 A 
ATOM      7  C   UNL     1       3.621   3.837  19.575  0.00  0.00    +0.000 A 
ATOM      8  N   UNL     1       4.280   4.194  18.440  0.00  0.00    +0.000 NA
ATOM      9  C   UNL     1       3.889   5.431  18.193  0.00  0.00    +0.000 A 
ATOM     10  C   UNL     1       4.266   6.288  17.128  0.00  0.00    +0.000 A 
ATOM     11  C   UNL     1       3.763   7.527  17.031  0.00  0.00    +0.000 A 
ATOM     12  C   UNL     1       2.810   8.025  18.028  0.00  0.00    +0.000 A 
ATOM     13  C   UNL     1       2.291   9.321  17.917  0.00  0.00    +0.000 A 
ATOM     14  C   UNL     1       1.385   9.799  18.865  0.00  0.00    +0.000 A 
ATOM     15  C   UNL     1       0.994   8.984  19.921  0.00  0.00    +0.000 A 
ATOM     16  C   UNL     1       1.503   7.691  20.040  0.00  0.00    +0.000 A 
ATOM     17  C   UNL     1       2.411   7.201  19.100  0.00  0.00    +0.000 A 
ATOM     18  N   UNL     1       2.979   5.894  19.152  0.00  0.00    +0.000 N 
ENDROOT
TORSDOF 0
ENDMDL
