MODEL 1
REMARK VINA RESULT:      -7.1      0.000      0.000
REMARK  Name = 
REMARK  9 active torsions:
REMARK  status: ('A' for Active; 'I' for Inactive)
REMARK    1  A    between atoms: C_1  and  O_2
REMARK    2  A    between atoms: O_2  and  C_3
REMARK    3  A    between atoms: C_5  and  C_6
REMARK    4  A    between atoms: C_8  and  C_9
REMARK    5  A    between atoms: C_20  and  C_21
REMARK    6  A    between atoms: C_30  and  O_31
REMARK    7  A    between atoms: O_31  and  C_32
REMARK    8  A    between atoms: C_33  and  O_34
REMARK    9  A    between atoms: O_34  and  C_35
REMARK                            x       y       z     vdW  Elec       q    Type
REMARK                         _______ _______ _______ _____ _____    ______ ____
ROOT
ATOM      1  C   UNL     1       7.559  15.898  20.846  0.00  0.00    +0.000 C 
ATOM      2  C   UNL     1       8.846  15.062  20.943  0.00  0.00    +0.000 C 
ATOM      3  C   UNL     1       8.767  14.279  19.658  0.00  0.00    +0.000 C 
ATOM      4  N   UNL     1       7.683  14.451  18.970  0.00  0.00    +0.000 NA
ATOM      5  N   UNL     1       6.945  15.383  19.623  0.00  0.00    +0.000 N 
ATOM      6  C   UNL     1       5.727  15.825  19.112  0.00  0.00    +0.000 A 
ATOM      7  C   UNL     1       4.928  14.942  18.396  0.00  0.00    +0.000 A 
ATOM      8  C   UNL     1       3.651  15.319  17.984  0.00  0.00    +0.000 A 
ATOM      9  C   UNL     1       3.197  16.599  18.258  0.00  0.00    +0.000 A 
ATOM     10  N   UNL     1       4.011  17.470  18.893  0.00  0.00    +0.000 NA
ATOM     11  N   UNL     1       5.271  17.073  19.335  0.00  0.00    +0.000 NA
ENDROOT
BRANCH   1  14
ATOM     12  C   UNL     1       5.662  14.261  23.725  0.00  0.00    +0.000 A 
ATOM     13  C   UNL     1       6.281  14.468  22.479  0.00  0.00    +0.000 A 
ATOM     14  C   UNL     1       6.597  15.750  22.015  0.00  0.00    +0.000 A 
ATOM     15  C   UNL     1       6.156  16.837  22.778  0.00  0.00    +0.000 A 
ATOM     16  C   UNL     1       5.439  16.654  23.971  0.00  0.00    +0.000 A 
ATOM     17  C   UNL     1       5.183  15.358  24.465  0.00  0.00    +0.000 A 
BRANCH  12  19
ATOM     18  C   UNL     1       6.286  11.992  23.503  0.00  0.00    +0.000 C 
ATOM     19  O   UNL     1       5.522  12.980  24.206  0.00  0.00    +0.000 OA
ENDBRANCH  12  19
BRANCH  16  20
ATOM     20  O   UNL     1       5.038  17.850  24.521  0.00  0.00    +0.000 OA
ATOM     21  C   UNL     1       4.114  18.631  23.773  0.00  0.00    +0.000 C 
ENDBRANCH  16  20
BRANCH  17  22
ATOM     22  O   UNL     1       4.473  15.307  25.633  0.00  0.00    +0.000 OA
ATOM     23  C   UNL     1       5.130  15.229  26.884  0.00  0.00    +0.000 C 
ENDBRANCH  17  22
ENDBRANCH   1  14
BRANCH   3  24
ATOM     24  C   UNL     1       9.853  13.384  19.204  0.00  0.00    +0.000 A 
ATOM     25  C   UNL     1      10.171  13.248  17.850  0.00  0.00    +0.000 A 
ATOM     26  C   UNL     1      11.187  12.373  17.460  0.00  0.00    +0.000 A 
ATOM     27  C   UNL     1      11.883  11.635  18.417  0.00  0.00    +0.000 A 
ATOM     28  C   UNL     1      11.574  11.770  19.766  0.00  0.00    +0.000 A 
ATOM     29  C   UNL     1      10.561  12.645  20.162  0.00  0.00    +0.000 A 
ENDBRANCH   3  24
BRANCH   9  30
ATOM     30  C   UNL     1       1.848  17.075  17.905  0.00  0.00    +0.000 A 
ATOM     31  C   UNL     1       1.641  18.047  16.907  0.00  0.00    +0.000 A 
ATOM     32  C   UNL     1       0.359  18.508  16.592  0.00  0.00    +0.000 A 
ATOM     33  C   UNL     1      -0.747  18.003  17.265  0.00  0.00    +0.000 A 
ATOM     34  C   UNL     1      -0.575  17.028  18.242  0.00  0.00    +0.000 A 
ATOM     35  C   UNL     1       0.709  16.567  18.558  0.00  0.00    +0.000 A 
ENDBRANCH   9  30
TORSDOF 6
ENDMDL
MODEL 2
REMARK VINA RESULT:      -7.0      7.279     11.051
REMARK  Name = 
REMARK  9 active torsions:
REMARK  status: ('A' for Active; 'I' for Inactive)
REMARK    1  A    between atoms: C_1  and  O_2
REMARK    2  A    between atoms: O_2  and  C_3
REMARK    3  A    between atoms: C_5  and  C_6
REMARK    4  A    between atoms: C_8  and  C_9
REMARK    5  A    between atoms: C_20  and  C_21
REMARK    6  A    between atoms: C_30  and  O_31
REMARK    7  A    between atoms: O_31  and  C_32
REMARK    8  A    between atoms: C_33  and  O_34
REMARK    9  A    between atoms: O_34  and  C_35
REMARK                            x       y       z     vdW  Elec       q    Type
REMARK                         _______ _______ _______ _____ _____    ______ ____
ROOT
ATOM      1  C   UNL     1      -0.352  13.260  19.652  0.00  0.00    +0.000 C 
ATOM      2  C   UNL     1      -0.640  14.577  20.391  0.00  0.00    +0.000 C 
ATOM      3  C   UNL     1       0.058  14.319  21.703  0.00  0.00    +0.000 C 
ATOM      4  N   UNL     1       0.555  13.131  21.841  0.00  0.00    +0.000 NA
ATOM      5  N   UNL     1       0.338  12.474  20.675  0.00  0.00    +0.000 N 
ATOM      6  C   UNL     1       0.796  11.173  20.486  0.00  0.00    +0.000 A 
ATOM      7  C   UNL     1       0.842  10.302  21.568  0.00  0.00    +0.000 A 
ATOM      8  C   UNL     1       1.173   8.961  21.383  0.00  0.00    +0.000 A 
ATOM      9  C   UNL     1       1.498   8.508  20.115  0.00  0.00    +0.000 A 
ATOM     10  N   UNL     1       1.518   9.380  19.084  0.00  0.00    +0.000 NA
ATOM     11  N   UNL     1       1.148  10.710  19.270  0.00  0.00    +0.000 NA
ENDROOT
BRANCH   1  14
ATOM     12  C   UNL     1      -3.959  12.023  19.498  0.00  0.00    +0.000 A 
ATOM     13  C   UNL     1      -2.702  12.418  19.989  0.00  0.00    +0.000 A 
ATOM     14  C   UNL     1      -1.580  12.509  19.159  0.00  0.00    +0.000 A 
ATOM     15  C   UNL     1      -1.718  12.066  17.839  0.00  0.00    +0.000 A 
ATOM     16  C   UNL     1      -2.937  11.563  17.357  0.00  0.00    +0.000 A 
ATOM     17  C   UNL     1      -4.081  11.537  18.182  0.00  0.00    +0.000 A 
BRANCH  12  19
ATOM     18  C   UNL     1      -4.899  12.967  21.450  0.00  0.00    +0.000 C 
ATOM     19  O   UNL     1      -5.062  12.108  20.314  0.00  0.00    +0.000 OA
ENDBRANCH  12  19
BRANCH  16  20
ATOM     20  O   UNL     1      -2.834  11.114  16.061  0.00  0.00    +0.000 OA
ATOM     21  C   UNL     1      -2.714   9.710  15.868  0.00  0.00    +0.000 C 
ENDBRANCH  16  20
BRANCH  17  22
ATOM     22  O   UNL     1      -5.208  11.022  17.602  0.00  0.00    +0.000 OA
ATOM     23  C   UNL     1      -6.296  11.858  17.254  0.00  0.00    +0.000 C 
ENDBRANCH  17  22
ENDBRANCH   1  14
BRANCH   3  24
ATOM     24  C   UNL     1       0.179  15.351  22.755  0.00  0.00    +0.000 A 
ATOM     25  C   UNL     1       1.183  16.321  22.716  0.00  0.00    +0.000 A 
ATOM     26  C   UNL     1       1.280  17.262  23.744  0.00  0.00    +0.000 A 
ATOM     27  C   UNL     1       0.377  17.236  24.806  0.00  0.00    +0.000 A 
ATOM     28  C   UNL     1      -0.627  16.275  24.848  0.00  0.00    +0.000 A 
ATOM     29  C   UNL     1      -0.730  15.333  23.823  0.00  0.00    +0.000 A 
ENDBRANCH   3  24
BRANCH   9  30
ATOM     30  C   UNL     1       1.816   7.101  19.812  0.00  0.00    +0.000 A 
ATOM     31  C   UNL     1       1.541   6.064  20.725  0.00  0.00    +0.000 A 
ATOM     32  C   UNL     1       1.865   4.735  20.437  0.00  0.00    +0.000 A 
ATOM     33  C   UNL     1       2.466   4.411  19.226  0.00  0.00    +0.000 A 
ATOM     34  C   UNL     1       2.732   5.412  18.297  0.00  0.00    +0.000 A 
ATOM     35  C   UNL     1       2.408   6.744  18.586  0.00  0.00    +0.000 A 
ENDBRANCH   9  30
TORSDOF 6
ENDMDL
MODEL 3
REMARK VINA RESULT:      -6.9      6.176      8.200
REMARK  Name = 
REMARK  9 active torsions:
REMARK  status: ('A' for Active; 'I' for Inactive)
REMARK    1  A    between atoms: C_1  and  O_2
REMARK    2  A    between atoms: O_2  and  C_3
REMARK    3  A    between atoms: C_5  and  C_6
REMARK    4  A    between atoms: C_8  and  C_9
REMARK    5  A    between atoms: C_20  and  C_21
REMARK    6  A    between atoms: C_30  and  O_31
REMARK    7  A    between atoms: O_31  and  C_32
REMARK    8  A    between atoms: C_33  and  O_34
REMARK    9  A    between atoms: O_34  and  C_35
REMARK                            x       y       z     vdW  Elec       q    Type
REMARK                         _______ _______ _______ _____ _____    ______ ____
ROOT
ATOM      1  C   UNL     1       0.675  11.703  18.901  0.00  0.00    +0.000 C 
ATOM      2  C   UNL     1       1.643  10.559  18.558  0.00  0.00    +0.000 C 
ATOM      3  C   UNL     1       1.157   9.489  19.503  0.00  0.00    +0.000 C 
ATOM      4  N   UNL     1       0.222   9.856  20.320  0.00  0.00    +0.000 NA
ATOM      5  N   UNL     1      -0.091  11.140  20.012  0.00  0.00    +0.000 N 
ATOM      6  C   UNL     1      -1.101  11.817  20.690  0.00  0.00    +0.000 A 
ATOM      7  C   UNL     1      -1.327  11.539  22.032  0.00  0.00    +0.000 A 
ATOM      8  C   UNL     1      -2.243  12.290  22.766  0.00  0.00    +0.000 A 
ATOM      9  C   UNL     1      -2.960  13.294  22.137  0.00  0.00    +0.000 A 
ATOM     10  N   UNL     1      -2.782  13.508  20.815  0.00  0.00    +0.000 NA
ATOM     11  N   UNL     1      -1.837  12.778  20.097  0.00  0.00    +0.000 NA
ENDROOT
BRANCH   1  14
ATOM     12  C   UNL     1       1.398  15.446  19.089  0.00  0.00    +0.000 A 
ATOM     13  C   UNL     1       1.089  14.168  18.589  0.00  0.00    +0.000 A 
ATOM     14  C   UNL     1       1.333  13.006  19.329  0.00  0.00    +0.000 A 
ATOM     15  C   UNL     1       2.020  13.147  20.540  0.00  0.00    +0.000 A 
ATOM     16  C   UNL     1       2.436  14.404  21.006  0.00  0.00    +0.000 A 
ATOM     17  C   UNL     1       2.127  15.577  20.286  0.00  0.00    +0.000 A 
BRANCH  12  19
ATOM     18  C   UNL     1      -0.418  16.820  18.458  0.00  0.00    +0.000 C 
ATOM     19  O   UNL     1       0.990  16.561  18.395  0.00  0.00    +0.000 OA
ENDBRANCH  12  19
BRANCH  16  20
ATOM     20  O   UNL     1       3.158  14.308  22.174  0.00  0.00    +0.000 OA
ATOM     21  C   UNL     1       4.568  14.162  22.055  0.00  0.00    +0.000 C 
ENDBRANCH  16  20
BRANCH  17  22
ATOM     22  O   UNL     1       2.589  16.740  20.838  0.00  0.00    +0.000 OA
ATOM     23  C   UNL     1       1.771  17.519  21.690  0.00  0.00    +0.000 C 
ENDBRANCH  17  22
ENDBRANCH   1  14
BRANCH   3  24
ATOM     24  C   UNL     1       1.697   8.113  19.492  0.00  0.00    +0.000 A 
ATOM     25  C   UNL     1       2.414   7.617  18.400  0.00  0.00    +0.000 A 
ATOM     26  C   UNL     1       2.886   6.303  18.418  0.00  0.00    +0.000 A 
ATOM     27  C   UNL     1       2.644   5.486  19.522  0.00  0.00    +0.000 A 
ATOM     28  C   UNL     1       1.935   5.976  20.614  0.00  0.00    +0.000 A 
ATOM     29  C   UNL     1       1.463   7.289  20.602  0.00  0.00    +0.000 A 
ENDBRANCH   3  24
BRANCH   9  30
ATOM     30  C   UNL     1      -3.915  14.172  22.836  0.00  0.00    +0.000 A 
ATOM     31  C   UNL     1      -5.297  14.132  22.564  0.00  0.00    +0.000 A 
ATOM     32  C   UNL     1      -6.193  14.983  23.218  0.00  0.00    +0.000 A 
ATOM     33  C   UNL     1      -5.730  15.888  24.165  0.00  0.00    +0.000 A 
ATOM     34  C   UNL     1      -4.373  15.936  24.469  0.00  0.00    +0.000 A 
ATOM     35  C   UNL     1      -3.475  15.085  23.812  0.00  0.00    +0.000 A 
ENDBRANCH   9  30
TORSDOF 6
ENDMDL
MODEL 4
REMARK VINA RESULT:      -6.9      7.832     11.326
REMARK  Name = 
REMARK  9 active torsions:
REMARK  status: ('A' for Active; 'I' for Inactive)
REMARK    1  A    between atoms: C_1  and  O_2
REMARK    2  A    between atoms: O_2  and  C_3
REMARK    3  A    between atoms: C_5  and  C_6
REMARK    4  A    between atoms: C_8  and  C_9
REMARK    5  A    between atoms: C_20  and  C_21
REMARK    6  A    between atoms: C_30  and  O_31
REMARK    7  A    between atoms: O_31  and  C_32
REMARK    8  A    between atoms: C_33  and  O_34
REMARK    9  A    between atoms: O_34  and  C_35
REMARK                            x       y       z     vdW  Elec       q    Type
REMARK                         _______ _______ _______ _____ _____    ______ ____
ROOT
ATOM      1  C   UNL     1      -1.178  13.567  20.460  0.00  0.00    +0.000 C 
ATOM      2  C   UNL     1      -1.584  14.764  21.336  0.00  0.00    +0.000 C 
ATOM      3  C   UNL     1      -0.818  14.458  22.598  0.00  0.00    +0.000 C 
ATOM      4  N   UNL     1      -0.188  13.326  22.603  0.00  0.00    +0.000 NA
ATOM      5  N   UNL     1      -0.371  12.768  21.381  0.00  0.00    +0.000 N 
ATOM      6  C   UNL     1       0.221  11.551  21.050  0.00  0.00    +0.000 A 
ATOM      7  C   UNL     1       0.399  10.589  22.036  0.00  0.00    +0.000 A 
ATOM      8  C   UNL     1       0.869   9.319  21.708  0.00  0.00    +0.000 A 
ATOM      9  C   UNL     1       1.199   9.033  20.393  0.00  0.00    +0.000 A 
ATOM     10  N   UNL     1       1.088  10.000  19.456  0.00  0.00    +0.000 NA
ATOM     11  N   UNL     1       0.581  11.255  19.785  0.00  0.00    +0.000 NA
ENDROOT
BRANCH   1  14
ATOM     12  C   UNL     1      -4.762  12.446  19.783  0.00  0.00    +0.000 A 
ATOM     13  C   UNL     1      -3.617  12.938  20.433  0.00  0.00    +0.000 A 
ATOM     14  C   UNL     1      -2.331  12.735  19.920  0.00  0.00    +0.000 A 
ATOM     15  C   UNL     1      -2.209  11.907  18.799  0.00  0.00    +0.000 A 
ATOM     16  C   UNL     1      -3.331  11.314  18.199  0.00  0.00    +0.000 A 
ATOM     17  C   UNL     1      -4.630  11.578  18.682  0.00  0.00    +0.000 A 
BRANCH  12  19
ATOM     18  C   UNL     1      -6.252  12.509  21.617  0.00  0.00    +0.000 C 
ATOM     19  O   UNL     1      -6.008  12.811  20.237  0.00  0.00    +0.000 OA
ENDBRANCH  12  19
BRANCH  16  20
ATOM     20  O   UNL     1      -2.982  10.481  17.161  0.00  0.00    +0.000 OA
ATOM     21  C   UNL     1      -2.767  11.083  15.890  0.00  0.00    +0.000 C 
ENDBRANCH  16  20
BRANCH  17  22
ATOM     22  O   UNL     1      -5.642  10.941  18.019  0.00  0.00    +0.000 OA
ATOM     23  C   UNL     1      -6.557  10.110  18.708  0.00  0.00    +0.000 C 
ENDBRANCH  17  22
ENDBRANCH   1  14
BRANCH   3  24
ATOM     24  C   UNL     1      -0.776  15.387  23.748  0.00  0.00    +0.000 A 
ATOM     25  C   UNL     1      -0.008  16.554  23.717  0.00  0.00    +0.000 A 
ATOM     26  C   UNL     1       0.025  17.393  24.834  0.00  0.00    +0.000 A 
ATOM     27  C   UNL     1      -0.704  17.068  25.977  0.00  0.00    +0.000 A 
ATOM     28  C   UNL     1      -1.474  15.910  26.011  0.00  0.00    +0.000 A 
ATOM     29  C   UNL     1      -1.513  15.069  24.898  0.00  0.00    +0.000 A 
ENDBRANCH   3  24
BRANCH   9  30
ATOM     30  C   UNL     1       1.660   7.708  19.940  0.00  0.00    +0.000 A 
ATOM     31  C   UNL     1       2.282   7.526  18.690  0.00  0.00    +0.000 A 
ATOM     32  C   UNL     1       2.698   6.262  18.260  0.00  0.00    +0.000 A 
ATOM     33  C   UNL     1       2.508   5.152  19.074  0.00  0.00    +0.000 A 
ATOM     34  C   UNL     1       1.913   5.305  20.322  0.00  0.00    +0.000 A 
ATOM     35  C   UNL     1       1.495   6.571  20.752  0.00  0.00    +0.000 A 
ENDBRANCH   9  30
TORSDOF 6
ENDMDL
MODEL 5
REMARK VINA RESULT:      -6.8      7.019     10.932
REMARK  Name = 
REMARK  9 active torsions:
REMARK  status: ('A' for Active; 'I' for Inactive)
REMARK    1  A    between atoms: C_1  and  O_2
REMARK    2  A    between atoms: O_2  and  C_3
REMARK    3  A    between atoms: C_5  and  C_6
REMARK    4  A    between atoms: C_8  and  C_9
REMARK    5  A    between atoms: C_20  and  C_21
REMARK    6  A    between atoms: C_30  and  O_31
REMARK    7  A    between atoms: O_31  and  C_32
REMARK    8  A    between atoms: C_33  and  O_34
REMARK    9  A    between atoms: O_34  and  C_35
REMARK                            x       y       z     vdW  Elec       q    Type
REMARK                         _______ _______ _______ _____ _____    ______ ____
ROOT
ATOM      1  C   UNL     1      -0.257  13.090  19.453  0.00  0.00    +0.000 C 
ATOM      2  C   UNL     1      -0.432  14.464  20.121  0.00  0.00    +0.000 C 
ATOM      3  C   UNL     1       0.408  14.281  21.360  0.00  0.00    +0.000 C 
ATOM      4  N   UNL     1       0.895  13.092  21.528  0.00  0.00    +0.000 NA
ATOM      5  N   UNL     1       0.532  12.360  20.445  0.00  0.00    +0.000 N 
ATOM      6  C   UNL     1       0.940  11.037  20.302  0.00  0.00    +0.000 A 
ATOM      7  C   UNL     1       1.094  10.244  21.432  0.00  0.00    +0.000 A 
ATOM      8  C   UNL     1       1.376   8.885  21.311  0.00  0.00    +0.000 A 
ATOM      9  C   UNL     1       1.543   8.334  20.051  0.00  0.00    +0.000 A 
ATOM     10  N   UNL     1       1.461   9.130  18.962  0.00  0.00    +0.000 NA
ATOM     11  N   UNL     1       1.141  10.480  19.091  0.00  0.00    +0.000 NA
ENDROOT
BRANCH   1  14
ATOM     12  C   UNL     1      -3.956  12.161  19.581  0.00  0.00    +0.000 A 
ATOM     13  C   UNL     1      -2.666  12.567  19.968  0.00  0.00    +0.000 A 
ATOM     14  C   UNL     1      -1.547  12.340  19.159  0.00  0.00    +0.000 A 
ATOM     15  C   UNL     1      -1.733  11.575  18.003  0.00  0.00    +0.000 A 
ATOM     16  C   UNL     1      -2.994  11.065  17.654  0.00  0.00    +0.000 A 
ATOM     17  C   UNL     1      -4.130  11.355  18.440  0.00  0.00    +0.000 A 
BRANCH  12  19
ATOM     18  C   UNL     1      -5.084  13.951  20.633  0.00  0.00    +0.000 C 
ATOM     19  O   UNL     1      -5.041  12.551  20.330  0.00  0.00    +0.000 OA
ENDBRANCH  12  19
BRANCH  16  20
ATOM     20  O   UNL     1      -2.940  10.281  16.525  0.00  0.00    +0.000 OA
ATOM     21  C   UNL     1      -3.136  10.929  15.275  0.00  0.00    +0.000 C 
ENDBRANCH  16  20
BRANCH  17  22
ATOM     22  O   UNL     1      -5.300  10.800  18.002  0.00  0.00    +0.000 OA
ATOM     23  C   UNL     1      -6.402  11.612  17.640  0.00  0.00    +0.000 C 
ENDBRANCH  17  22
ENDBRANCH   1  14
BRANCH   3  24
ATOM     24  C   UNL     1       0.669  15.380  22.313  0.00  0.00    +0.000 A 
ATOM     25  C   UNL     1       1.896  16.048  22.341  0.00  0.00    +0.000 A 
ATOM     26  C   UNL     1       2.113  17.064  23.274  0.00  0.00    +0.000 A 
ATOM     27  C   UNL     1       1.109  17.414  24.176  0.00  0.00    +0.000 A 
ATOM     28  C   UNL     1      -0.116  16.756  24.151  0.00  0.00    +0.000 A 
ATOM     29  C   UNL     1      -0.339  15.740  23.219  0.00  0.00    +0.000 A 
ENDBRANCH   3  24
BRANCH   9  30
ATOM     30  C   UNL     1       1.798   6.901  19.817  0.00  0.00    +0.000 A 
ATOM     31  C   UNL     1       2.369   6.434  18.617  0.00  0.00    +0.000 A 
ATOM     32  C   UNL     1       2.589   5.071  18.397  0.00  0.00    +0.000 A 
ATOM     33  C   UNL     1       2.248   4.144  19.374  0.00  0.00    +0.000 A 
ATOM     34  C   UNL     1       1.699   4.577  20.576  0.00  0.00    +0.000 A 
ATOM     35  C   UNL     1       1.478   5.943  20.797  0.00  0.00    +0.000 A 
ENDBRANCH   9  30
TORSDOF 6
ENDMDL
MODEL 6
REMARK VINA RESULT:      -6.8      6.142      8.141
REMARK  Name = 
REMARK  9 active torsions:
REMARK  status: ('A' for Active; 'I' for Inactive)
REMARK    1  A    between atoms: C_1  and  O_2
REMARK    2  A    between atoms: O_2  and  C_3
REMARK    3  A    between atoms: C_5  and  C_6
REMARK    4  A    between atoms: C_8  and  C_9
REMARK    5  A    between atoms: C_20  and  C_21
REMARK    6  A    between atoms: C_30  and  O_31
REMARK    7  A    between atoms: O_31  and  C_32
REMARK    8  A    between atoms: C_33  and  O_34
REMARK    9  A    between atoms: O_34  and  C_35
REMARK                            x       y       z     vdW  Elec       q    Type
REMARK                         _______ _______ _______ _____ _____    ______ ____
ROOT
ATOM      1  C   UNL     1       0.803  11.659  18.815  0.00  0.00    +0.000 C 
ATOM      2  C   UNL     1       1.776  10.518  18.475  0.00  0.00    +0.000 C 
ATOM      3  C   UNL     1       1.273   9.437  19.398  0.00  0.00    +0.000 C 
ATOM      4  N   UNL     1       0.325   9.795  20.205  0.00  0.00    +0.000 NA
ATOM      5  N   UNL     1       0.019  11.083  19.907  0.00  0.00    +0.000 N 
ATOM      6  C   UNL     1      -1.002  11.753  20.577  0.00  0.00    +0.000 A 
ATOM      7  C   UNL     1      -1.250  11.459  21.911  0.00  0.00    +0.000 A 
ATOM      8  C   UNL     1      -2.177  12.202  22.640  0.00  0.00    +0.000 A 
ATOM      9  C   UNL     1      -2.883  13.215  22.011  0.00  0.00    +0.000 A 
ATOM     10  N   UNL     1      -2.683  13.444  20.694  0.00  0.00    +0.000 NA
ATOM     11  N   UNL     1      -1.727  12.722  19.983  0.00  0.00    +0.000 NA
ENDROOT
BRANCH   1  14
ATOM     12  C   UNL     1       1.551  15.395  19.035  0.00  0.00    +0.000 A 
ATOM     13  C   UNL     1       1.251  14.120  18.522  0.00  0.00    +0.000 A 
ATOM     14  C   UNL     1       1.455  12.956  19.270  0.00  0.00    +0.000 A 
ATOM     15  C   UNL     1       2.095  13.089  20.507  0.00  0.00    +0.000 A 
ATOM     16  C   UNL     1       2.504  14.342  20.990  0.00  0.00    +0.000 A 
ATOM     17  C   UNL     1       2.234  15.519  20.259  0.00  0.00    +0.000 A 
BRANCH  12  19
ATOM     18  C   UNL     1      -0.168  16.943  18.553  0.00  0.00    +0.000 C 
ATOM     19  O   UNL     1       1.180  16.514  18.327  0.00  0.00    +0.000 OA
ENDBRANCH  12  19
BRANCH  16  20
ATOM     20  O   UNL     1       3.179  14.240  22.185  0.00  0.00    +0.000 OA
ATOM     21  C   UNL     1       4.598  14.171  22.125  0.00  0.00    +0.000 C 
ENDBRANCH  16  20
BRANCH  17  22
ATOM     22  O   UNL     1       2.685  16.678  20.830  0.00  0.00    +0.000 OA
ATOM     23  C   UNL     1       1.866  17.423  21.711  0.00  0.00    +0.000 C 
ENDBRANCH  17  22
ENDBRANCH   1  14
BRANCH   3  24
ATOM     24  C   UNL     1       1.812   8.060  19.379  0.00  0.00    +0.000 A 
ATOM     25  C   UNL     1       1.624   7.187  20.453  0.00  0.00    +0.000 A 
ATOM     26  C   UNL     1       2.172   5.903  20.408  0.00  0.00    +0.000 A 
ATOM     27  C   UNL     1       2.904   5.491  19.295  0.00  0.00    +0.000 A 
ATOM     28  C   UNL     1       3.090   6.355  18.221  0.00  0.00    +0.000 A 
ATOM     29  C   UNL     1       2.543   7.639  18.260  0.00  0.00    +0.000 A 
ENDBRANCH   3  24
BRANCH   9  30
ATOM     30  C   UNL     1      -3.848  14.085  22.705  0.00  0.00    +0.000 A 
ATOM     31  C   UNL     1      -3.456  14.943  23.752  0.00  0.00    +0.000 A 
ATOM     32  C   UNL     1      -4.383  15.750  24.418  0.00  0.00    +0.000 A 
ATOM     33  C   UNL     1      -5.723  15.722  24.050  0.00  0.00    +0.000 A 
ATOM     34  C   UNL     1      -6.136  14.900  23.007  0.00  0.00    +0.000 A 
ATOM     35  C   UNL     1      -5.207  14.090  22.340  0.00  0.00    +0.000 A 
ENDBRANCH   9  30
TORSDOF 6
ENDMDL
MODEL 7
REMARK VINA RESULT:      -6.8      0.949      1.466
REMARK  Name = 
REMARK  9 active torsions:
REMARK  status: ('A' for Active; 'I' for Inactive)
REMARK    1  A    between atoms: C_1  and  O_2
REMARK    2  A    between atoms: O_2  and  C_3
REMARK    3  A    between atoms: C_5  and  C_6
REMARK    4  A    between atoms: C_8  and  C_9
REMARK    5  A    between atoms: C_20  and  C_21
REMARK    6  A    between atoms: C_30  and  O_31
REMARK    7  A    between atoms: O_31  and  C_32
REMARK    8  A    between atoms: C_33  and  O_34
REMARK    9  A    between atoms: O_34  and  C_35
REMARK                            x       y       z     vdW  Elec       q    Type
REMARK                         _______ _______ _______ _____ _____    ______ ____
ROOT
ATOM      1  C   UNL     1       7.556  15.919  20.486  0.00  0.00    +0.000 C 
ATOM      2  C   UNL     1       8.916  15.217  20.340  0.00  0.00    +0.000 C 
ATOM      3  C   UNL     1       8.822  14.719  18.919  0.00  0.00    +0.000 C 
ATOM      4  N   UNL     1       7.683  14.923  18.336  0.00  0.00    +0.000 NA
ATOM      5  N   UNL     1       6.911  15.615  19.210  0.00  0.00    +0.000 N 
ATOM      6  C   UNL     1       5.627  16.029  18.863  0.00  0.00    +0.000 A 
ATOM      7  C   UNL     1       4.863  15.242  18.010  0.00  0.00    +0.000 A 
ATOM      8  C   UNL     1       3.533  15.566  17.750  0.00  0.00    +0.000 A 
ATOM      9  C   UNL     1       2.986  16.705  18.316  0.00  0.00    +0.000 A 
ATOM     10  N   UNL     1       3.760  17.500  19.088  0.00  0.00    +0.000 NA
ATOM     11  N   UNL     1       5.077  17.149  19.374  0.00  0.00    +0.000 NA
ENDROOT
BRANCH   1  14
ATOM     12  C   UNL     1       6.262  13.644  23.264  0.00  0.00    +0.000 A 
ATOM     13  C   UNL     1       6.781  14.090  22.035  0.00  0.00    +0.000 A 
ATOM     14  C   UNL     1       6.692  15.429  21.638  0.00  0.00    +0.000 A 
ATOM     15  C   UNL     1       5.948  16.293  22.449  0.00  0.00    +0.000 A 
ATOM     16  C   UNL     1       5.327  15.843  23.625  0.00  0.00    +0.000 A 
ATOM     17  C   UNL     1       5.478  14.507  24.053  0.00  0.00    +0.000 A 
BRANCH  12  19
ATOM     18  C   UNL     1       7.514  11.671  22.913  0.00  0.00    +0.000 C 
ATOM     19  O   UNL     1       6.519  12.359  23.681  0.00  0.00    +0.000 OA
ENDBRANCH  12  19
BRANCH  16  20
ATOM     20  O   UNL     1       4.587  16.833  24.230  0.00  0.00    +0.000 OA
ATOM     21  C   UNL     1       5.280  17.725  25.093  0.00  0.00    +0.000 C 
ENDBRANCH  16  20
BRANCH  17  22
ATOM     22  O   UNL     1       4.824  14.187  25.211  0.00  0.00    +0.000 OA
ATOM     23  C   UNL     1       5.497  14.195  26.456  0.00  0.00    +0.000 C 
ENDBRANCH  17  22
ENDBRANCH   1  14
BRANCH   3  24
ATOM     24  C   UNL     1       9.951  14.056  18.232  0.00  0.00    +0.000 A 
ATOM     25  C   UNL     1      10.108  12.668  18.255  0.00  0.00    +0.000 A 
ATOM     26  C   UNL     1      11.202  12.082  17.615  0.00  0.00    +0.000 A 
ATOM     27  C   UNL     1      12.136  12.878  16.954  0.00  0.00    +0.000 A 
ATOM     28  C   UNL     1      11.983  14.260  16.923  0.00  0.00    +0.000 A 
ATOM     29  C   UNL     1      10.890  14.851  17.560  0.00  0.00    +0.000 A 
ENDBRANCH   3  24
BRANCH   9  30
ATOM     30  C   UNL     1       1.579  17.106  18.138  0.00  0.00    +0.000 A 
ATOM     31  C   UNL     1       0.546  16.560  18.924  0.00  0.00    +0.000 A 
ATOM     32  C   UNL     1      -0.789  16.931  18.735  0.00  0.00    +0.000 A 
ATOM     33  C   UNL     1      -1.120  17.863  17.758  0.00  0.00    +0.000 A 
ATOM     34  C   UNL     1      -0.119  18.433  16.979  0.00  0.00    +0.000 A 
ATOM     35  C   UNL     1       1.218  18.060  17.168  0.00  0.00    +0.000 A 
ENDBRANCH   9  30
TORSDOF 6
ENDMDL
MODEL 8
REMARK VINA RESULT:      -6.8      7.056     10.793
REMARK  Name = 
REMARK  9 active torsions:
REMARK  status: ('A' for Active; 'I' for Inactive)
REMARK    1  A    between atoms: C_1  and  O_2
REMARK    2  A    between atoms: O_2  and  C_3
REMARK    3  A    between atoms: C_5  and  C_6
REMARK    4  A    between atoms: C_8  and  C_9
REMARK    5  A    between atoms: C_20  and  C_21
REMARK    6  A    between atoms: C_30  and  O_31
REMARK    7  A    between atoms: O_31  and  C_32
REMARK    8  A    between atoms: C_33  and  O_34
REMARK    9  A    between atoms: O_34  and  C_35
REMARK                            x       y       z     vdW  Elec       q    Type
REMARK                         _______ _______ _______ _____ _____    ______ ____
ROOT
ATOM      1  C   UNL     1       0.169  12.764  19.187  0.00  0.00    +0.000 C 
ATOM      2  C   UNL     1       0.094  14.170  19.806  0.00  0.00    +0.000 C 
ATOM      3  C   UNL     1       0.930  13.975  21.045  0.00  0.00    +0.000 C 
ATOM      4  N   UNL     1       1.336  12.763  21.254  0.00  0.00    +0.000 NA
ATOM      5  N   UNL     1       0.915  12.019  20.201  0.00  0.00    +0.000 N 
ATOM      6  C   UNL     1       1.231  10.666  20.103  0.00  0.00    +0.000 A 
ATOM      7  C   UNL     1       1.341   9.906  21.261  0.00  0.00    +0.000 A 
ATOM      8  C   UNL     1       1.528   8.527  21.188  0.00  0.00    +0.000 A 
ATOM      9  C   UNL     1       1.647   7.921  19.947  0.00  0.00    +0.000 A 
ATOM     10  N   UNL     1       1.609   8.681  18.831  0.00  0.00    +0.000 NA
ATOM     11  N   UNL     1       1.382  10.053  18.912  0.00  0.00    +0.000 NA
ENDROOT
BRANCH   1  14
ATOM     12  C   UNL     1      -3.580  12.080  19.393  0.00  0.00    +0.000 A 
ATOM     13  C   UNL     1      -2.260  12.408  19.751  0.00  0.00    +0.000 A 
ATOM     14  C   UNL     1      -1.172  12.094  18.930  0.00  0.00    +0.000 A 
ATOM     15  C   UNL     1      -1.427  11.320  17.792  0.00  0.00    +0.000 A 
ATOM     16  C   UNL     1      -2.724  10.887  17.475  0.00  0.00    +0.000 A 
ATOM     17  C   UNL     1      -3.825  11.265  18.272  0.00  0.00    +0.000 A 
BRANCH  12  19
ATOM     18  C   UNL     1      -4.297  13.674  20.984  0.00  0.00    +0.000 C 
ATOM     19  O   UNL     1      -4.625  12.555  20.152  0.00  0.00    +0.000 OA
ENDBRANCH  12  19
BRANCH  16  20
ATOM     20  O   UNL     1      -2.740  10.079  16.361  0.00  0.00    +0.000 OA
ATOM     21  C   UNL     1      -3.039  10.696  15.115  0.00  0.00    +0.000 C 
ENDBRANCH  16  20
BRANCH  17  22
ATOM     22  O   UNL     1      -5.036  10.779  17.864  0.00  0.00    +0.000 OA
ATOM     23  C   UNL     1      -6.077  11.652  17.470  0.00  0.00    +0.000 C 
ENDBRANCH  17  22
ENDBRANCH   1  14
BRANCH   3  24
ATOM     24  C   UNL     1       1.274  15.088  21.956  0.00  0.00    +0.000 A 
ATOM     25  C   UNL     1       0.294  15.770  22.681  0.00  0.00    +0.000 A 
ATOM     26  C   UNL     1       0.657  16.833  23.511  0.00  0.00    +0.000 A 
ATOM     27  C   UNL     1       1.994  17.213  23.617  0.00  0.00    +0.000 A 
ATOM     28  C   UNL     1       2.975  16.535  22.902  0.00  0.00    +0.000 A 
ATOM     29  C   UNL     1       2.618  15.471  22.072  0.00  0.00    +0.000 A 
ENDBRANCH   3  24
BRANCH   9  30
ATOM     30  C   UNL     1       1.801   6.467  19.765  0.00  0.00    +0.000 A 
ATOM     31  C   UNL     1       2.241   5.914  18.547  0.00  0.00    +0.000 A 
ATOM     32  C   UNL     1       2.366   4.532  18.377  0.00  0.00    +0.000 A 
ATOM     33  C   UNL     1       2.058   3.670  19.423  0.00  0.00    +0.000 A 
ATOM     34  C   UNL     1       1.639   4.189  20.644  0.00  0.00    +0.000 A 
ATOM     35  C   UNL     1       1.513   5.574  20.814  0.00  0.00    +0.000 A 
ENDBRANCH   9  30
TORSDOF 6
ENDMDL
MODEL 9
REMARK VINA RESULT:      -6.7      6.115      8.283
REMARK  Name = 
REMARK  9 active torsions:
REMARK  status: ('A' for Active; 'I' for Inactive)
REMARK    1  A    between atoms: C_1  and  O_2
REMARK    2  A    between atoms: O_2  and  C_3
REMARK    3  A    between atoms: C_5  and  C_6
REMARK    4  A    between atoms: C_8  and  C_9
REMARK    5  A    between atoms: C_20  and  C_21
REMARK    6  A    between atoms: C_30  and  O_31
REMARK    7  A    between atoms: O_31  and  C_32
REMARK    8  A    between atoms: C_33  and  O_34
REMARK    9  A    between atoms: O_34  and  C_35
REMARK                            x       y       z     vdW  Elec       q    Type
REMARK                         _______ _______ _______ _____ _____    ______ ____
ROOT
ATOM      1  C   UNL     1       0.374  11.635  18.815  0.00  0.00    +0.000 C 
ATOM      2  C   UNL     1       1.259  10.449  18.398  0.00  0.00    +0.000 C 
ATOM      3  C   UNL     1       1.069   9.530  19.578  0.00  0.00    +0.000 C 
ATOM      4  N   UNL     1       0.365  10.016  20.551  0.00  0.00    +0.000 NA
ATOM      5  N   UNL     1      -0.059  11.242  20.156  0.00  0.00    +0.000 N 
ATOM      6  C   UNL     1      -0.883  12.015  20.970  0.00  0.00    +0.000 A 
ATOM      7  C   UNL     1      -0.745  11.937  22.350  0.00  0.00    +0.000 A 
ATOM      8  C   UNL     1      -1.465  12.791  23.183  0.00  0.00    +0.000 A 
ATOM      9  C   UNL     1      -2.354  13.696  22.626  0.00  0.00    +0.000 A 
ATOM     10  N   UNL     1      -2.530  13.714  21.287  0.00  0.00    +0.000 NA
ATOM     11  N   UNL     1      -1.778  12.884  20.459  0.00  0.00    +0.000 NA
ENDROOT
BRANCH   1  14
ATOM     12  C   UNL     1       0.846  15.421  18.742  0.00  0.00    +0.000 A 
ATOM     13  C   UNL     1       0.392  14.125  18.438  0.00  0.00    +0.000 A 
ATOM     14  C   UNL     1       1.076  12.983  18.868  0.00  0.00    +0.000 A 
ATOM     15  C   UNL     1       2.307  13.172  19.506  0.00  0.00    +0.000 A 
ATOM     16  C   UNL     1       2.833  14.456  19.721  0.00  0.00    +0.000 A 
ATOM     17  C   UNL     1       2.105  15.605  19.344  0.00  0.00    +0.000 A 
BRANCH  12  19
ATOM     18  C   UNL     1      -0.987  16.766  19.388  0.00  0.00    +0.000 C 
ATOM     19  O   UNL     1       0.054  16.504  18.438  0.00  0.00    +0.000 OA
ENDBRANCH  12  19
BRANCH  16  20
ATOM     20  O   UNL     1       4.083  14.413  20.293  0.00  0.00    +0.000 OA
ATOM     21  C   UNL     1       4.146  14.256  21.705  0.00  0.00    +0.000 C 
ENDBRANCH  16  20
BRANCH  17  22
ATOM     22  O   UNL     1       2.721  16.798  19.602  0.00  0.00    +0.000 OA
ATOM     23  C   UNL     1       2.464  17.508  20.798  0.00  0.00    +0.000 C 
ENDBRANCH  17  22
ENDBRANCH   1  14
BRANCH   3  24
ATOM     24  C   UNL     1       1.634   8.164  19.622  0.00  0.00    +0.000 A 
ATOM     25  C   UNL     1       1.422   7.319  20.715  0.00  0.00    +0.000 A 
ATOM     26  C   UNL     1       1.994   6.046  20.729  0.00  0.00    +0.000 A 
ATOM     27  C   UNL     1       2.776   5.616  19.658  0.00  0.00    +0.000 A 
ATOM     28  C   UNL     1       2.988   6.450  18.566  0.00  0.00    +0.000 A 
ATOM     29  C   UNL     1       2.416   7.724  18.545  0.00  0.00    +0.000 A 
ENDBRANCH   3  24
BRANCH   9  30
ATOM     30  C   UNL     1      -3.125  14.670  23.419  0.00  0.00    +0.000 A 
ATOM     31  C   UNL     1      -4.480  14.942  23.147  0.00  0.00    +0.000 A 
ATOM     32  C   UNL     1      -5.198  15.883  23.891  0.00  0.00    +0.000 A 
ATOM     33  C   UNL     1      -4.579  16.569  24.930  0.00  0.00    +0.000 A 
ATOM     34  C   UNL     1      -3.248  16.308  25.233  0.00  0.00    +0.000 A 
ATOM     35  C   UNL     1      -2.527  15.366  24.486  0.00  0.00    +0.000 A 
ENDBRANCH   9  30
TORSDOF 6
ENDMDL
