MODEL 1
REMARK VINA RESULT:      -7.5      0.000      0.000
REMARK  Name = 
REMARK  6 active torsions:
REMARK  status: ('A' for Active; 'I' for Inactive)
REMARK    1  A    between atoms: C_1  and  N_2
REMARK    2  A    between atoms: C_3  and  C_4
REMARK    3  A    between atoms: C_4  and  N_5
REMARK    4  A    between atoms: C_8  and  O_9
REMARK    5  A    between atoms: C_14  and  C_15
REMARK    6  A    between atoms: C_20  and  C_22
REMARK                            x       y       z     vdW  Elec       q    Type
REMARK                         _______ _______ _______ _____ _____    ______ ____
ROOT
ATOM      1  C   UNL     1       2.234   8.647  18.179  0.00  0.00    +0.000 C 
ATOM      2  N   UNL     1       1.833   8.217  19.484  0.00  0.00    +0.000 N 
ATOM      3  C   UNL     1       1.141   8.941  20.436  0.00  0.00    +0.000 A 
ATOM      4  N   UNL     1       0.895   8.138  21.451  0.00  0.00    +0.000 NA
ATOM      5  N   UNL     1       1.452   6.917  21.193  0.00  0.00    +0.000 NA
ATOM      6  C   UNL     1       2.049   6.962  20.017  0.00  0.00    +0.000 A 
ENDROOT
BRANCH   6   7
ATOM      7  C   UNL     1       2.784   5.794  19.436  0.00  0.00    +0.000 C 
ATOM      8  C   UNL     1       2.586   4.484  20.214  0.00  0.00    +0.000 C 
ATOM      9  C   UNL     1       3.608   3.446  19.730  0.00  0.00    +0.000 C 
ATOM     10  C   UNL     1       3.510   3.241  18.216  0.00  0.00    +0.000 C 
ATOM     11  N   UNL     1       3.566   4.524  17.510  0.00  0.00    +0.000 N 
ATOM     12  C   UNL     1       4.675   4.987  16.786  0.00  0.00    +0.000 C 
ATOM     13  O   UNL     1       4.623   6.083  16.211  0.00  0.00    +0.000 OA
ATOM     14  C   UNL     1       2.566   5.516  17.940  0.00  0.00    +0.000 C 
BRANCH  12  15
ATOM     15  C   UNL     1       5.956   4.119  16.775  0.00  0.00    +0.000 C 
ATOM     16  C   UNL     1       7.040   4.484  15.734  0.00  0.00    +0.000 C 
ATOM     17  N   UNL     1       8.069   4.295  16.773  0.00  0.00    +0.000 NA
ATOM     18  C   UNL     1       7.043   4.481  17.811  0.00  0.00    +0.000 C 
ATOM     19  H   UNL     1       8.795   5.013  16.769  0.00  0.00    +0.000 HD
ENDBRANCH  12  15
ENDBRANCH   6   7
BRANCH   3  20
ATOM     20  C   UNL     1       0.849  10.418  20.426  0.00  0.00    +0.000 C 
BRANCH  20  21
ATOM     21  N   UNL     1      -0.506  10.870  20.029  0.00  0.00    +0.000 NA
ATOM     22  C   UNL     1      -1.073  10.067  18.940  0.00  0.00    +0.000 C 
ATOM     23  C   UNL     1      -2.379  10.596  18.331  0.00  0.00    +0.000 C 
ATOM     24  C   UNL     1      -2.386  12.106  18.138  0.00  0.00    +0.000 C 
ATOM     25  C   UNL     1      -1.981  12.788  19.433  0.00  0.00    +0.000 C 
ATOM     26  C   UNL     1      -0.597  12.317  19.870  0.00  0.00    +0.000 C 
BRANCH  24  27
ATOM     27  O   UNL     1      -1.485  12.499  17.103  0.00  0.00    +0.000 OA
ATOM     28  H   UNL     1      -1.708  13.410  16.847  0.00  0.00    +0.000 HD
ENDBRANCH  24  27
ENDBRANCH  20  21
ENDBRANCH   3  20
TORSDOF 5
ENDMDL
MODEL 2
REMARK VINA RESULT:      -7.4      1.224      1.479
REMARK  Name = 
REMARK  6 active torsions:
REMARK  status: ('A' for Active; 'I' for Inactive)
REMARK    1  A    between atoms: C_1  and  N_2
REMARK    2  A    between atoms: C_3  and  C_4
REMARK    3  A    between atoms: C_4  and  N_5
REMARK    4  A    between atoms: C_8  and  O_9
REMARK    5  A    between atoms: C_14  and  C_15
REMARK    6  A    between atoms: C_20  and  C_22
REMARK                            x       y       z     vdW  Elec       q    Type
REMARK                         _______ _______ _______ _____ _____    ______ ____
ROOT
ATOM      1  C   UNL     1       1.951   9.066  17.893  0.00  0.00    +0.000 C 
ATOM      2  N   UNL     1       1.605   8.837  19.263  0.00  0.00    +0.000 N 
ATOM      3  C   UNL     1       0.967   9.704  20.129  0.00  0.00    +0.000 A 
ATOM      4  N   UNL     1       0.759   9.062  21.260  0.00  0.00    +0.000 NA
ATOM      5  N   UNL     1       1.288   7.806  21.159  0.00  0.00    +0.000 NA
ATOM      6  C   UNL     1       1.832   7.669  19.964  0.00  0.00    +0.000 A 
ENDROOT
BRANCH   6   7
ATOM      7  C   UNL     1       2.525   6.416  19.528  0.00  0.00    +0.000 C 
ATOM      8  C   UNL     1       2.155   5.178  20.359  0.00  0.00    +0.000 C 
ATOM      9  C   UNL     1       3.134   4.040  20.040  0.00  0.00    +0.000 C 
ATOM     10  C   UNL     1       3.163   3.743  18.539  0.00  0.00    +0.000 C 
ATOM     11  N   UNL     1       3.384   4.969  17.767  0.00  0.00    +0.000 N 
ATOM     12  C   UNL     1       4.588   5.303  17.129  0.00  0.00    +0.000 C 
ATOM     13  O   UNL     1       4.675   6.359  16.487  0.00  0.00    +0.000 OA
ATOM     14  C   UNL     1       2.427   6.056  18.037  0.00  0.00    +0.000 C 
BRANCH  12  15
ATOM     15  C   UNL     1       5.793   4.347  17.295  0.00  0.00    +0.000 C 
ATOM     16  C   UNL     1       6.793   4.269  16.117  0.00  0.00    +0.000 C 
ATOM     17  N   UNL     1       7.903   4.299  17.086  0.00  0.00    +0.000 NA
ATOM     18  C   UNL     1       7.002   4.893  18.087  0.00  0.00    +0.000 C 
ATOM     19  H   UNL     1       8.676   4.905  16.808  0.00  0.00    +0.000 HD
ENDBRANCH  12  15
ENDBRANCH   6   7
BRANCH   3  20
ATOM     20  C   UNL     1       0.691  11.169  19.917  0.00  0.00    +0.000 C 
BRANCH  20  21
ATOM     21  N   UNL     1      -0.507  11.765  20.554  0.00  0.00    +0.000 NA
ATOM     22  C   UNL     1      -1.649  11.854  19.637  0.00  0.00    +0.000 C 
ATOM     23  C   UNL     1      -2.859  12.646  20.153  0.00  0.00    +0.000 C 
ATOM     24  C   UNL     1      -2.475  13.923  20.888  0.00  0.00    +0.000 C 
ATOM     25  C   UNL     1      -1.437  13.608  21.950  0.00  0.00    +0.000 C 
ATOM     26  C   UNL     1      -0.204  12.971  21.315  0.00  0.00    +0.000 C 
BRANCH  24  27
ATOM     27  O   UNL     1      -1.942  14.895  19.989  0.00  0.00    +0.000 OA
ATOM     28  H   UNL     1      -1.606  15.636  20.521  0.00  0.00    +0.000 HD
ENDBRANCH  24  27
ENDBRANCH  20  21
ENDBRANCH   3  20
TORSDOF 5
ENDMDL
MODEL 3
REMARK VINA RESULT:      -7.4      2.071      2.676
REMARK  Name = 
REMARK  6 active torsions:
REMARK  status: ('A' for Active; 'I' for Inactive)
REMARK    1  A    between atoms: C_1  and  N_2
REMARK    2  A    between atoms: C_3  and  C_4
REMARK    3  A    between atoms: C_4  and  N_5
REMARK    4  A    between atoms: C_8  and  O_9
REMARK    5  A    between atoms: C_14  and  C_15
REMARK    6  A    between atoms: C_20  and  C_22
REMARK                            x       y       z     vdW  Elec       q    Type
REMARK                         _______ _______ _______ _____ _____    ______ ____
ROOT
ATOM      1  C   UNL     1       1.848   9.136  17.798  0.00  0.00    +0.000 C 
ATOM      2  N   UNL     1       1.532   8.973  19.184  0.00  0.00    +0.000 N 
ATOM      3  C   UNL     1       0.903   9.876  20.019  0.00  0.00    +0.000 A 
ATOM      4  N   UNL     1       0.724   9.290  21.185  0.00  0.00    +0.000 NA
ATOM      5  N   UNL     1       1.265   8.036  21.135  0.00  0.00    +0.000 NA
ATOM      6  C   UNL     1       1.785   7.844  19.938  0.00  0.00    +0.000 A 
ENDROOT
BRANCH   6   7
ATOM      7  C   UNL     1       2.483   6.577  19.551  0.00  0.00    +0.000 C 
ATOM      8  C   UNL     1       2.113   5.370  20.427  0.00  0.00    +0.000 C 
ATOM      9  C   UNL     1       3.095   4.223  20.153  0.00  0.00    +0.000 C 
ATOM     10  C   UNL     1       3.129   3.870  18.663  0.00  0.00    +0.000 C 
ATOM     11  N   UNL     1       3.349   5.068  17.847  0.00  0.00    +0.000 N 
ATOM     12  C   UNL     1       4.554   5.380  17.200  0.00  0.00    +0.000 C 
ATOM     13  O   UNL     1       4.641   6.411  16.520  0.00  0.00    +0.000 OA
ATOM     14  C   UNL     1       2.389   6.161  18.073  0.00  0.00    +0.000 C 
BRANCH  12  15
ATOM     15  C   UNL     1       5.761   4.434  17.405  0.00  0.00    +0.000 C 
ATOM     16  C   UNL     1       6.769   4.321  16.237  0.00  0.00    +0.000 C 
ATOM     17  N   UNL     1       7.872   4.386  17.213  0.00  0.00    +0.000 NA
ATOM     18  C   UNL     1       6.963   5.009  18.188  0.00  0.00    +0.000 C 
ATOM     19  H   UNL     1       8.645   4.985  16.920  0.00  0.00    +0.000 HD
ENDBRANCH  12  15
ENDBRANCH   6   7
BRANCH   3  20
ATOM     20  C   UNL     1       0.608  11.327  19.739  0.00  0.00    +0.000 C 
BRANCH  20  21
ATOM     21  N   UNL     1       1.736  12.288  19.716  0.00  0.00    +0.000 NA
ATOM     22  C   UNL     1       1.648  13.288  20.786  0.00  0.00    +0.000 C 
ATOM     23  C   UNL     1       2.660  14.441  20.707  0.00  0.00    +0.000 C 
ATOM     24  C   UNL     1       2.859  14.972  19.295  0.00  0.00    +0.000 C 
ATOM     25  C   UNL     1       3.154  13.818  18.353  0.00  0.00    +0.000 C 
ATOM     26  C   UNL     1       2.013  12.805  18.381  0.00  0.00    +0.000 C 
BRANCH  24  27
ATOM     27  O   UNL     1       1.699  15.664  18.835  0.00  0.00    +0.000 OA
ATOM     28  H   UNL     1       1.424  16.278  19.537  0.00  0.00    +0.000 HD
ENDBRANCH  24  27
ENDBRANCH  20  21
ENDBRANCH   3  20
TORSDOF 5
ENDMDL
MODEL 4
REMARK VINA RESULT:      -7.4      2.772      9.290
REMARK  Name = 
REMARK  6 active torsions:
REMARK  status: ('A' for Active; 'I' for Inactive)
REMARK    1  A    between atoms: C_1  and  N_2
REMARK    2  A    between atoms: C_3  and  C_4
REMARK    3  A    between atoms: C_4  and  N_5
REMARK    4  A    between atoms: C_8  and  O_9
REMARK    5  A    between atoms: C_14  and  C_15
REMARK    6  A    between atoms: C_20  and  C_22
REMARK                            x       y       z     vdW  Elec       q    Type
REMARK                         _______ _______ _______ _____ _____    ______ ____
ROOT
ATOM      1  C   UNL     1       1.029   8.314  21.203  0.00  0.00    +0.000 C 
ATOM      2  N   UNL     1       1.385   8.680  19.866  0.00  0.00    +0.000 N 
ATOM      3  C   UNL     1       2.087   7.929  18.943  0.00  0.00    +0.000 A 
ATOM      4  N   UNL     1       2.109   8.601  17.810  0.00  0.00    +0.000 NA
ATOM      5  N   UNL     1       1.470   9.795  17.993  0.00  0.00    +0.000 NA
ATOM      6  C   UNL     1       1.054   9.868  19.243  0.00  0.00    +0.000 A 
ENDROOT
BRANCH   6   7
ATOM      7  C   UNL     1       0.334  11.061  19.790  0.00  0.00    +0.000 C 
ATOM      8  C   UNL     1       1.239  12.041  20.551  0.00  0.00    +0.000 C 
ATOM      9  C   UNL     1       0.370  13.045  21.321  0.00  0.00    +0.000 C 
ATOM     10  C   UNL     1      -0.604  13.763  20.383  0.00  0.00    +0.000 C 
ATOM     11  N   UNL     1      -1.357  12.801  19.573  0.00  0.00    +0.000 N 
ATOM     12  C   UNL     1      -2.707  12.476  19.773  0.00  0.00    +0.000 C 
ATOM     13  O   UNL     1      -3.263  11.658  19.027  0.00  0.00    +0.000 OA
ATOM     14  C   UNL     1      -0.533  11.857  18.800  0.00  0.00    +0.000 C 
BRANCH  12  15
ATOM     15  C   UNL     1      -3.447  13.127  20.966  0.00  0.00    +0.000 C 
ATOM     16  C   UNL     1      -4.936  12.752  21.156  0.00  0.00    +0.000 C 
ATOM     17  N   UNL     1      -4.696  12.627  22.605  0.00  0.00    +0.000 NA
ATOM     18  C   UNL     1      -3.258  12.455  22.344  0.00  0.00    +0.000 C 
ATOM     19  H   UNL     1      -5.145  11.813  23.027  0.00  0.00    +0.000 HD
ENDBRANCH  12  15
ENDBRANCH   6   7
BRANCH   3  20
ATOM     20  C   UNL     1       2.844   6.651  19.191  0.00  0.00    +0.000 C 
BRANCH  20  21
ATOM     21  N   UNL     1       2.081   5.384  19.291  0.00  0.00    +0.000 NA
ATOM     22  C   UNL     1       2.134   4.796  20.634  0.00  0.00    +0.000 C 
ATOM     23  C   UNL     1       1.547   3.384  20.769  0.00  0.00    +0.000 C 
ATOM     24  C   UNL     1       1.913   2.466  19.611  0.00  0.00    +0.000 C 
ATOM     25  C   UNL     1       1.591   3.152  18.295  0.00  0.00    +0.000 C 
ATOM     26  C   UNL     1       2.349   4.472  18.185  0.00  0.00    +0.000 C 
BRANCH  24  27
ATOM     27  O   UNL     1       3.300   2.132  19.635  0.00  0.00    +0.000 OA
ATOM     28  H   UNL     1       3.425   1.350  19.071  0.00  0.00    +0.000 HD
ENDBRANCH  24  27
ENDBRANCH  20  21
ENDBRANCH   3  20
TORSDOF 5
ENDMDL
MODEL 5
REMARK VINA RESULT:      -7.3      2.236      9.335
REMARK  Name = 
REMARK  6 active torsions:
REMARK  status: ('A' for Active; 'I' for Inactive)
REMARK    1  A    between atoms: C_1  and  N_2
REMARK    2  A    between atoms: C_3  and  C_4
REMARK    3  A    between atoms: C_4  and  N_5
REMARK    4  A    between atoms: C_8  and  O_9
REMARK    5  A    between atoms: C_14  and  C_15
REMARK    6  A    between atoms: C_20  and  C_22
REMARK                            x       y       z     vdW  Elec       q    Type
REMARK                         _______ _______ _______ _____ _____    ______ ____
ROOT
ATOM      1  C   UNL     1       1.059   8.324  21.235  0.00  0.00    +0.000 C 
ATOM      2  N   UNL     1       1.407   8.633  19.881  0.00  0.00    +0.000 N 
ATOM      3  C   UNL     1       2.121   7.852  18.994  0.00  0.00    +0.000 A 
ATOM      4  N   UNL     1       2.131   8.470  17.831  0.00  0.00    +0.000 NA
ATOM      5  N   UNL     1       1.471   9.660  17.959  0.00  0.00    +0.000 NA
ATOM      6  C   UNL     1       1.055   9.784  19.204  0.00  0.00    +0.000 A 
ENDROOT
BRANCH   6   7
ATOM      7  C   UNL     1       0.314  10.989  19.695  0.00  0.00    +0.000 C 
ATOM      8  C   UNL     1       1.201  12.013  20.421  0.00  0.00    +0.000 C 
ATOM      9  C   UNL     1       0.312  13.035  21.142  0.00  0.00    +0.000 C 
ATOM     10  C   UNL     1      -0.665  13.700  20.168  0.00  0.00    +0.000 C 
ATOM     11  N   UNL     1      -1.398  12.695  19.394  0.00  0.00    +0.000 N 
ATOM     12  C   UNL     1      -2.745  12.360  19.597  0.00  0.00    +0.000 C 
ATOM     13  O   UNL     1      -3.284  11.504  18.883  0.00  0.00    +0.000 OA
ATOM     14  C   UNL     1      -0.555  11.731  18.666  0.00  0.00    +0.000 C 
BRANCH  12  15
ATOM     15  C   UNL     1      -3.503  13.050  20.757  0.00  0.00    +0.000 C 
ATOM     16  C   UNL     1      -4.986  12.658  20.955  0.00  0.00    +0.000 C 
ATOM     17  N   UNL     1      -4.753  12.601  22.410  0.00  0.00    +0.000 NA
ATOM     18  C   UNL     1      -3.311  12.442  22.164  0.00  0.00    +0.000 C 
ATOM     19  H   UNL     1      -5.191  11.799  22.865  0.00  0.00    +0.000 HD
ENDBRANCH  12  15
ENDBRANCH   6   7
BRANCH   3  20
ATOM     20  C   UNL     1       2.900   6.599  19.301  0.00  0.00    +0.000 C 
BRANCH  20  21
ATOM     21  N   UNL     1       2.767   5.440  18.388  0.00  0.00    +0.000 NA
ATOM     22  C   UNL     1       1.926   4.375  18.945  0.00  0.00    +0.000 C 
ATOM     23  C   UNL     1       1.906   3.058  18.156  0.00  0.00    +0.000 C 
ATOM     24  C   UNL     1       3.278   2.642  17.643  0.00  0.00    +0.000 C 
ATOM     25  C   UNL     1       3.919   3.803  16.902  0.00  0.00    +0.000 C 
ATOM     26  C   UNL     1       4.042   5.015  17.821  0.00  0.00    +0.000 C 
BRANCH  24  27
ATOM     27  O   UNL     1       4.132   2.245  18.715  0.00  0.00    +0.000 OA
ATOM     28  H   UNL     1       4.006   1.291  18.854  0.00  0.00    +0.000 HD
ENDBRANCH  24  27
ENDBRANCH  20  21
ENDBRANCH   3  20
TORSDOF 5
ENDMDL
MODEL 6
REMARK VINA RESULT:      -7.2      2.085      9.389
REMARK  Name = 
REMARK  6 active torsions:
REMARK  status: ('A' for Active; 'I' for Inactive)
REMARK    1  A    between atoms: C_1  and  N_2
REMARK    2  A    between atoms: C_3  and  C_4
REMARK    3  A    between atoms: C_4  and  N_5
REMARK    4  A    between atoms: C_8  and  O_9
REMARK    5  A    between atoms: C_14  and  C_15
REMARK    6  A    between atoms: C_20  and  C_22
REMARK                            x       y       z     vdW  Elec       q    Type
REMARK                         _______ _______ _______ _____ _____    ______ ____
ROOT
ATOM      1  C   UNL     1       1.069   8.378  21.166  0.00  0.00    +0.000 C 
ATOM      2  N   UNL     1       1.389   8.768  19.827  0.00  0.00    +0.000 N 
ATOM      3  C   UNL     1       2.081   8.040  18.878  0.00  0.00    +0.000 A 
ATOM      4  N   UNL     1       2.068   8.728  17.755  0.00  0.00    +0.000 NA
ATOM      5  N   UNL     1       1.417   9.910  17.969  0.00  0.00    +0.000 NA
ATOM      6  C   UNL     1       1.028   9.959  19.229  0.00  0.00    +0.000 A 
ENDROOT
BRANCH   6   7
ATOM      7  C   UNL     1       0.303  11.134  19.809  0.00  0.00    +0.000 C 
ATOM      8  C   UNL     1       1.207  12.100  20.590  0.00  0.00    +0.000 C 
ATOM      9  C   UNL     1       0.335  13.078  21.389  0.00  0.00    +0.000 C 
ATOM     10  C   UNL     1      -0.647  13.815  20.474  0.00  0.00    +0.000 C 
ATOM     11  N   UNL     1      -1.398  12.869  19.643  0.00  0.00    +0.000 N 
ATOM     12  C   UNL     1      -2.745  12.532  19.840  0.00  0.00    +0.000 C 
ATOM     13  O   UNL     1      -3.299  11.730  19.076  0.00  0.00    +0.000 OA
ATOM     14  C   UNL     1      -0.572  11.950  18.843  0.00  0.00    +0.000 C 
BRANCH  12  15
ATOM     15  C   UNL     1      -3.484  13.148  21.052  0.00  0.00    +0.000 C 
ATOM     16  C   UNL     1      -4.959  12.732  21.259  0.00  0.00    +0.000 C 
ATOM     17  N   UNL     1      -4.694  12.595  22.703  0.00  0.00    +0.000 NA
ATOM     18  C   UNL     1      -3.257  12.464  22.419  0.00  0.00    +0.000 C 
ATOM     19  H   UNL     1      -5.115  11.765  23.122  0.00  0.00    +0.000 HD
ENDBRANCH  12  15
ENDBRANCH   6   7
BRANCH   3  20
ATOM     20  C   UNL     1       2.860   6.769  19.091  0.00  0.00    +0.000 C 
BRANCH  20  21
ATOM     21  N   UNL     1       3.317   6.010  17.903  0.00  0.00    +0.000 NA
ATOM     22  C   UNL     1       3.114   4.563  18.043  0.00  0.00    +0.000 C 
ATOM     23  C   UNL     1       3.747   3.691  16.950  0.00  0.00    +0.000 C 
ATOM     24  C   UNL     1       5.143   4.145  16.550  0.00  0.00    +0.000 C 
ATOM     25  C   UNL     1       5.125   5.629  16.230  0.00  0.00    +0.000 C 
ATOM     26  C   UNL     1       4.634   6.426  17.435  0.00  0.00    +0.000 C 
BRANCH  24  27
ATOM     27  O   UNL     1       6.084   3.906  17.596  0.00  0.00    +0.000 OA
ATOM     28  H   UNL     1       6.325   2.964  17.567  0.00  0.00    +0.000 HD
ENDBRANCH  24  27
ENDBRANCH  20  21
ENDBRANCH   3  20
TORSDOF 5
ENDMDL
MODEL 7
REMARK VINA RESULT:      -7.1      2.577      8.902
REMARK  Name = 
REMARK  6 active torsions:
REMARK  status: ('A' for Active; 'I' for Inactive)
REMARK    1  A    between atoms: C_1  and  N_2
REMARK    2  A    between atoms: C_3  and  C_4
REMARK    3  A    between atoms: C_4  and  N_5
REMARK    4  A    between atoms: C_8  and  O_9
REMARK    5  A    between atoms: C_14  and  C_15
REMARK    6  A    between atoms: C_20  and  C_22
REMARK                            x       y       z     vdW  Elec       q    Type
REMARK                         _______ _______ _______ _____ _____    ______ ____
ROOT
ATOM      1  C   UNL     1       2.207   8.998  17.786  0.00  0.00    +0.000 C 
ATOM      2  N   UNL     1       1.814   8.496  19.067  0.00  0.00    +0.000 N 
ATOM      3  C   UNL     1       2.194   7.307  19.660  0.00  0.00    +0.000 A 
ATOM      4  N   UNL     1       1.682   7.282  20.873  0.00  0.00    +0.000 NA
ATOM      5  N   UNL     1       0.942   8.414  21.063  0.00  0.00    +0.000 NA
ATOM      6  C   UNL     1       0.989   9.143  19.965  0.00  0.00    +0.000 A 
ENDROOT
BRANCH   6   7
ATOM      7  C   UNL     1       0.262  10.444  19.823  0.00  0.00    +0.000 C 
ATOM      8  C   UNL     1      -1.048  10.343  19.027  0.00  0.00    +0.000 C 
ATOM      9  C   UNL     1      -1.543  11.754  18.680  0.00  0.00    +0.000 C 
ATOM     10  C   UNL     1      -1.694  12.611  19.940  0.00  0.00    +0.000 C 
ATOM     11  N   UNL     1      -0.470  12.576  20.746  0.00  0.00    +0.000 N 
ATOM     12  C   UNL     1       0.447  13.633  20.847  0.00  0.00    +0.000 C 
ATOM     13  O   UNL     1       1.449  13.515  21.566  0.00  0.00    +0.000 OA
ATOM     14  C   UNL     1      -0.007  11.229  21.118  0.00  0.00    +0.000 C 
BRANCH  12  15
ATOM     15  C   UNL     1       0.191  14.906  20.006  0.00  0.00    +0.000 C 
ATOM     16  C   UNL     1       0.353  16.266  20.726  0.00  0.00    +0.000 C 
ATOM     17  N   UNL     1       1.066  16.782  19.543  0.00  0.00    +0.000 NA
ATOM     18  C   UNL     1       1.365  15.401  19.131  0.00  0.00    +0.000 C 
ATOM     19  H   UNL     1       1.891  17.338  19.771  0.00  0.00    +0.000 HD
ENDBRANCH  12  15
ENDBRANCH   6   7
BRANCH   3  20
ATOM     20  C   UNL     1       2.918   6.154  19.015  0.00  0.00    +0.000 C 
BRANCH  20  21
ATOM     21  N   UNL     1       2.646   4.783  19.505  0.00  0.00    +0.000 NA
ATOM     22  C   UNL     1       3.830   3.917  19.449  0.00  0.00    +0.000 C 
ATOM     23  C   UNL     1       3.584   2.430  19.742  0.00  0.00    +0.000 C 
ATOM     24  C   UNL     1       2.315   1.891  19.096  0.00  0.00    +0.000 C 
ATOM     25  C   UNL     1       1.144   2.795  19.438  0.00  0.00    +0.000 C 
ATOM     26  C   UNL     1       1.417   4.219  18.961  0.00  0.00    +0.000 C 
BRANCH  24  27
ATOM     27  O   UNL     1       2.449   1.817  17.677  0.00  0.00    +0.000 OA
ATOM     28  H   UNL     1       1.591   1.540  17.313  0.00  0.00    +0.000 HD
ENDBRANCH  24  27
ENDBRANCH  20  21
ENDBRANCH   3  20
TORSDOF 5
ENDMDL
MODEL 8
REMARK VINA RESULT:      -7.1      2.242      3.600
REMARK  Name = 
REMARK  6 active torsions:
REMARK  status: ('A' for Active; 'I' for Inactive)
REMARK    1  A    between atoms: C_1  and  N_2
REMARK    2  A    between atoms: C_3  and  C_4
REMARK    3  A    between atoms: C_4  and  N_5
REMARK    4  A    between atoms: C_8  and  O_9
REMARK    5  A    between atoms: C_14  and  C_15
REMARK    6  A    between atoms: C_20  and  C_22
REMARK                            x       y       z     vdW  Elec       q    Type
REMARK                         _______ _______ _______ _____ _____    ______ ____
ROOT
ATOM      1  C   UNL     1       0.958   8.654  20.555  0.00  0.00    +0.000 C 
ATOM      2  N   UNL     1       1.333   9.212  19.292  0.00  0.00    +0.000 N 
ATOM      3  C   UNL     1       0.985  10.446  18.777  0.00  0.00    +0.000 A 
ATOM      4  N   UNL     1       1.621  10.599  17.633  0.00  0.00    +0.000 NA
ATOM      5  N   UNL     1       2.343   9.467  17.376  0.00  0.00    +0.000 NA
ATOM      6  C   UNL     1       2.152   8.608  18.358  0.00  0.00    +0.000 A 
ENDROOT
BRANCH   6   7
ATOM      7  C   UNL     1       2.780   7.249  18.380  0.00  0.00    +0.000 C 
ATOM      8  C   UNL     1       3.896   7.062  17.341  0.00  0.00    +0.000 C 
ATOM      9  C   UNL     1       4.251   5.573  17.237  0.00  0.00    +0.000 C 
ATOM     10  C   UNL     1       4.629   4.999  18.605  0.00  0.00    +0.000 C 
ATOM     11  N   UNL     1       3.605   5.312  19.605  0.00  0.00    +0.000 N 
ATOM     12  C   UNL     1       2.689   4.386  20.124  0.00  0.00    +0.000 C 
ATOM     13  O   UNL     1       1.866   4.742  20.978  0.00  0.00    +0.000 OA
ATOM     14  C   UNL     1       3.284   6.743  19.742  0.00  0.00    +0.000 C 
BRANCH  12  15
ATOM     15  C   UNL     1       2.711   2.943  19.564  0.00  0.00    +0.000 C 
ATOM     16  C   UNL     1       1.578   1.996  20.024  0.00  0.00    +0.000 C 
ATOM     17  N   UNL     1       1.450   1.513  18.638  0.00  0.00    +0.000 NA
ATOM     18  C   UNL     1       2.105   2.740  18.158  0.00  0.00    +0.000 C 
ATOM     19  H   UNL     1       0.483   1.406  18.327  0.00  0.00    +0.000 HD
ENDBRANCH  12  15
ENDBRANCH   6   7
BRANCH   3  20
ATOM     20  C   UNL     1      -0.053  11.399  19.310  0.00  0.00    +0.000 C 
BRANCH  20  21
ATOM     21  N   UNL     1      -1.484  11.053  19.146  0.00  0.00    +0.000 NA
ATOM     22  C   UNL     1      -1.712  10.089  18.063  0.00  0.00    +0.000 C 
ATOM     23  C   UNL     1      -3.180   9.837  17.691  0.00  0.00    +0.000 C 
ATOM     24  C   UNL     1      -4.020  11.107  17.660  0.00  0.00    +0.000 C 
ATOM     25  C   UNL     1      -3.828  11.878  18.954  0.00  0.00    +0.000 C 
ATOM     26  C   UNL     1      -2.355  12.223  19.153  0.00  0.00    +0.000 C 
BRANCH  24  27
ATOM     27  O   UNL     1      -3.654  11.941  16.561  0.00  0.00    +0.000 OA
ATOM     28  H   UNL     1      -4.243  11.727  15.818  0.00  0.00    +0.000 HD
ENDBRANCH  24  27
ENDBRANCH  20  21
ENDBRANCH   3  20
TORSDOF 5
ENDMDL
MODEL 9
REMARK VINA RESULT:      -7.1      3.085      4.480
REMARK  Name = 
REMARK  6 active torsions:
REMARK  status: ('A' for Active; 'I' for Inactive)
REMARK    1  A    between atoms: C_1  and  N_2
REMARK    2  A    between atoms: C_3  and  C_4
REMARK    3  A    between atoms: C_4  and  N_5
REMARK    4  A    between atoms: C_8  and  O_9
REMARK    5  A    between atoms: C_14  and  C_15
REMARK    6  A    between atoms: C_20  and  C_22
REMARK                            x       y       z     vdW  Elec       q    Type
REMARK                         _______ _______ _______ _____ _____    ______ ____
ROOT
ATOM      1  C   UNL     1      -0.797  10.551  19.586  0.00  0.00    +0.000 C 
ATOM      2  N   UNL     1      -0.215  10.211  20.849  0.00  0.00    +0.000 N 
ATOM      3  C   UNL     1      -0.422  10.828  22.067  0.00  0.00    +0.000 A 
ATOM      4  N   UNL     1       0.230  10.140  22.983  0.00  0.00    +0.000 NA
ATOM      5  N   UNL     1       0.891   9.111  22.373  0.00  0.00    +0.000 NA
ATOM      6  C   UNL     1       0.654   9.162  21.076  0.00  0.00    +0.000 A 
ENDROOT
BRANCH   6   7
ATOM      7  C   UNL     1       1.248   8.189  20.105  0.00  0.00    +0.000 C 
ATOM      8  C   UNL     1       1.905   8.851  18.885  0.00  0.00    +0.000 C 
ATOM      9  C   UNL     1       2.198   7.783  17.822  0.00  0.00    +0.000 C 
ATOM     10  C   UNL     1       3.053   6.651  18.400  0.00  0.00    +0.000 C 
ATOM     11  N   UNL     1       2.467   6.133  19.639  0.00  0.00    +0.000 N 
ATOM     12  C   UNL     1       1.806   4.901  19.754  0.00  0.00    +0.000 C 
ATOM     13  O   UNL     1       1.354   4.542  20.849  0.00  0.00    +0.000 OA
ATOM     14  C   UNL     1       2.217   7.144  20.681  0.00  0.00    +0.000 C 
BRANCH  12  15
ATOM     15  C   UNL     1       1.623   4.048  18.475  0.00  0.00    +0.000 C 
ATOM     16  C   UNL     1       2.843   3.223  18.003  0.00  0.00    +0.000 C 
ATOM     17  N   UNL     1       1.943   2.085  17.741  0.00  0.00    +0.000 NA
ATOM     18  C   UNL     1       0.951   2.669  18.658  0.00  0.00    +0.000 C 
ATOM     19  H   UNL     1       2.317   1.186  18.048  0.00  0.00    +0.000 HD
ENDBRANCH  12  15
ENDBRANCH   6   7
BRANCH   3  20
ATOM     20  C   UNL     1      -1.119  12.139  22.321  0.00  0.00    +0.000 C 
BRANCH  20  21
ATOM     21  N   UNL     1      -2.578  12.128  22.580  0.00  0.00    +0.000 NA
ATOM     22  C   UNL     1      -3.356  12.657  21.454  0.00  0.00    +0.000 C 
ATOM     23  C   UNL     1      -4.853  12.872  21.720  0.00  0.00    +0.000 C 
ATOM     24  C   UNL     1      -5.141  13.475  23.088  0.00  0.00    +0.000 C 
ATOM     25  C   UNL     1      -4.427  12.670  24.160  0.00  0.00    +0.000 C 
ATOM     26  C   UNL     1      -2.924  12.650  23.896  0.00  0.00    +0.000 C 
BRANCH  24  27
ATOM     27  O   UNL     1      -4.706  14.832  23.157  0.00  0.00    +0.000 OA
ATOM     28  H   UNL     1      -5.445  15.361  23.504  0.00  0.00    +0.000 HD
ENDBRANCH  24  27
ENDBRANCH  20  21
ENDBRANCH   3  20
TORSDOF 5
ENDMDL
