MODEL 1
REMARK VINA RESULT:      -7.1      0.000      0.000
REMARK  Name = 
REMARK  4 active torsions:
REMARK  status: ('A' for Active; 'I' for Inactive)
REMARK    1  A    between atoms: C_2  and  C_3
REMARK    2  A    between atoms: C_4  and  O_5
REMARK    3  A    between atoms: C_7  and  C_8
REMARK    4  A    between atoms: C_11  and  O_12
REMARK                            x       y       z     vdW  Elec       q    Type
REMARK                         _______ _______ _______ _____ _____    ______ ____
ROOT
ATOM      1  C   UNL     1       5.842   4.517  14.841  0.00  0.00    +0.000 A 
ATOM      2  C   UNL     1       5.149   4.470  15.998  0.00  0.00    +0.000 A 
ATOM      3  C   UNL     1       5.726   4.972  17.216  0.00  0.00    +0.000 A 
ATOM      4  C   UNL     1       5.295   4.947  18.595  0.00  0.00    +0.000 A 
ATOM      5  C   UNL     1       6.234   5.594  19.393  0.00  0.00    +0.000 A 
ATOM      6  S   UNL     1       7.588   6.187  18.519  0.00  0.00    +0.000 S 
ATOM      7  C   UNL     1       6.949   5.583  17.094  0.00  0.00    +0.000 A 
ATOM      8  N   UNL     1       7.673   5.715  15.941  0.00  0.00    +0.000 N 
ATOM      9  C   UNL     1       7.185   5.175  14.776  0.00  0.00    +0.000 A 
ATOM     10  O   UNL     1       7.817   5.246  13.728  0.00  0.00    +0.000 OA
ATOM     11  H   UNL     1       8.573   6.175  15.940  0.00  0.00    +0.000 HD
ENDROOT
BRANCH   4  12
ATOM     12  C   UNL     1       4.091   4.361  19.201  0.00  0.00    +0.000 A 
ATOM     13  C   UNL     1       2.918   5.117  19.346  0.00  0.00    +0.000 A 
ATOM     14  C   UNL     1       1.804   4.602  20.015  0.00  0.00    +0.000 A 
ATOM     15  C   UNL     1       1.827   3.293  20.468  0.00  0.00    +0.000 A 
ATOM     16  C   UNL     1       2.945   2.495  20.267  0.00  0.00    +0.000 A 
ATOM     17  C   UNL     1       4.079   3.032  19.649  0.00  0.00    +0.000 A 
BRANCH  15  18
ATOM     18  O   UNL     1       0.761   2.747  21.118  0.00  0.00    +0.000 OA
ATOM     19  H   UNL     1       0.662   3.192  21.977  0.00  0.00    +0.000 HD
ENDBRANCH  15  18
ENDBRANCH   4  12
BRANCH   1  21
ATOM     20  N   UNL     1       4.768   3.456  12.506  0.00  0.00    +0.000 NA
ATOM     21  C   UNL     1       5.255   3.937  13.565  0.00  0.00    +0.000 C 
ENDBRANCH   1  21
BRANCH   2  22
ATOM     22  O   UNL     1       3.866   3.978  16.099  0.00  0.00    +0.000 OA
ATOM     23  H   UNL     1       3.673   3.633  16.988  0.00  0.00    +0.000 HD
ENDBRANCH   2  22
TORSDOF 4
ENDMDL
MODEL 2
REMARK VINA RESULT:      -7.1      0.227      1.080
REMARK  Name = 
REMARK  4 active torsions:
REMARK  status: ('A' for Active; 'I' for Inactive)
REMARK    1  A    between atoms: C_2  and  C_3
REMARK    2  A    between atoms: C_4  and  O_5
REMARK    3  A    between atoms: C_7  and  C_8
REMARK    4  A    between atoms: C_11  and  O_12
REMARK                            x       y       z     vdW  Elec       q    Type
REMARK                         _______ _______ _______ _____ _____    ______ ____
ROOT
ATOM      1  C   UNL     1       5.844   4.507  14.778  0.00  0.00    +0.000 A 
ATOM      2  C   UNL     1       5.145   4.461  15.932  0.00  0.00    +0.000 A 
ATOM      3  C   UNL     1       5.719   4.958  17.153  0.00  0.00    +0.000 A 
ATOM      4  C   UNL     1       5.282   4.933  18.531  0.00  0.00    +0.000 A 
ATOM      5  C   UNL     1       6.221   5.574  19.334  0.00  0.00    +0.000 A 
ATOM      6  S   UNL     1       7.582   6.161  18.466  0.00  0.00    +0.000 S 
ATOM      7  C   UNL     1       6.946   5.563  17.038  0.00  0.00    +0.000 A 
ATOM      8  N   UNL     1       7.676   5.693  15.888  0.00  0.00    +0.000 N 
ATOM      9  C   UNL     1       7.190   5.157  14.720  0.00  0.00    +0.000 A 
ATOM     10  O   UNL     1       7.827   5.227  13.675  0.00  0.00    +0.000 OA
ATOM     11  H   UNL     1       8.579   6.148  15.892  0.00  0.00    +0.000 HD
ENDROOT
BRANCH   4  12
ATOM     12  C   UNL     1       4.072   4.352  19.130  0.00  0.00    +0.000 A 
ATOM     13  C   UNL     1       3.935   2.963  19.271  0.00  0.00    +0.000 A 
ATOM     14  C   UNL     1       2.746   2.398  19.742  0.00  0.00    +0.000 A 
ATOM     15  C   UNL     1       1.716   3.227  20.158  0.00  0.00    +0.000 A 
ATOM     16  C   UNL     1       1.855   4.608  20.106  0.00  0.00    +0.000 A 
ATOM     17  C   UNL     1       3.023   5.169  19.579  0.00  0.00    +0.000 A 
BRANCH  15  18
ATOM     18  O   UNL     1       0.543   2.721  20.632  0.00  0.00    +0.000 OA
ATOM     19  H   UNL     1       0.741   1.941  21.177  0.00  0.00    +0.000 HD
ENDBRANCH  15  18
ENDBRANCH   4  12
BRANCH   1  21
ATOM     20  N   UNL     1       4.775   3.455  12.436  0.00  0.00    +0.000 NA
ATOM     21  C   UNL     1       5.259   3.932  13.498  0.00  0.00    +0.000 C 
ENDBRANCH   1  21
BRANCH   2  22
ATOM     22  O   UNL     1       3.859   3.976  16.026  0.00  0.00    +0.000 OA
ATOM     23  H   UNL     1       3.691   3.255  15.395  0.00  0.00    +0.000 HD
ENDBRANCH   2  22
TORSDOF 4
ENDMDL
MODEL 3
REMARK VINA RESULT:      -6.8      4.133      5.859
REMARK  Name = 
REMARK  4 active torsions:
REMARK  status: ('A' for Active; 'I' for Inactive)
REMARK    1  A    between atoms: C_2  and  C_3
REMARK    2  A    between atoms: C_4  and  O_5
REMARK    3  A    between atoms: C_7  and  C_8
REMARK    4  A    between atoms: C_11  and  O_12
REMARK                            x       y       z     vdW  Elec       q    Type
REMARK                         _______ _______ _______ _____ _____    ______ ____
ROOT
ATOM      1  C   UNL     1       3.106   3.569  20.316  0.00  0.00    +0.000 A 
ATOM      2  C   UNL     1       2.655   4.770  19.899  0.00  0.00    +0.000 A 
ATOM      3  C   UNL     1       3.385   5.524  18.916  0.00  0.00    +0.000 A 
ATOM      4  C   UNL     1       3.229   6.856  18.378  0.00  0.00    +0.000 A 
ATOM      5  C   UNL     1       4.215   7.097  17.425  0.00  0.00    +0.000 A 
ATOM      6  S   UNL     1       5.296   5.781  17.206  0.00  0.00    +0.000 S 
ATOM      7  C   UNL     1       4.479   4.898  18.371  0.00  0.00    +0.000 A 
ATOM      8  N   UNL     1       4.951   3.659  18.708  0.00  0.00    +0.000 N 
ATOM      9  C   UNL     1       4.321   2.949  19.702  0.00  0.00    +0.000 A 
ATOM     10  O   UNL     1       4.731   1.848  20.053  0.00  0.00    +0.000 OA
ATOM     11  H   UNL     1       5.771   3.274  18.262  0.00  0.00    +0.000 HD
ENDROOT
BRANCH   4  12
ATOM     12  C   UNL     1       2.242   7.897  18.697  0.00  0.00    +0.000 A 
ATOM     13  C   UNL     1       1.657   8.670  17.682  0.00  0.00    +0.000 A 
ATOM     14  C   UNL     1       0.799   9.731  17.984  0.00  0.00    +0.000 A 
ATOM     15  C   UNL     1       0.450   9.969  19.304  0.00  0.00    +0.000 A 
ATOM     16  C   UNL     1       0.949   9.169  20.323  0.00  0.00    +0.000 A 
ATOM     17  C   UNL     1       1.854   8.145  20.022  0.00  0.00    +0.000 A 
BRANCH  15  18
ATOM     18  O   UNL     1      -0.390  10.986  19.644  0.00  0.00    +0.000 OA
ATOM     19  H   UNL     1       0.132  11.690  20.067  0.00  0.00    +0.000 HD
ENDBRANCH  15  18
ENDBRANCH   4  12
BRANCH   1  21
ATOM     20  N   UNL     1       1.749   2.157  22.291  0.00  0.00    +0.000 NA
ATOM     21  C   UNL     1       2.364   2.797  21.396  0.00  0.00    +0.000 C 
ENDBRANCH   1  21
BRANCH   2  22
ATOM     22  O   UNL     1       1.484   5.343  20.347  0.00  0.00    +0.000 OA
ATOM     23  H   UNL     1       1.614   6.259  20.649  0.00  0.00    +0.000 HD
ENDBRANCH   2  22
TORSDOF 4
ENDMDL
MODEL 4
REMARK VINA RESULT:      -6.8      4.130      5.916
REMARK  Name = 
REMARK  4 active torsions:
REMARK  status: ('A' for Active; 'I' for Inactive)
REMARK    1  A    between atoms: C_2  and  C_3
REMARK    2  A    between atoms: C_4  and  O_5
REMARK    3  A    between atoms: C_7  and  C_8
REMARK    4  A    between atoms: C_11  and  O_12
REMARK                            x       y       z     vdW  Elec       q    Type
REMARK                         _______ _______ _______ _____ _____    ______ ____
ROOT
ATOM      1  C   UNL     1       2.977   3.550  20.304  0.00  0.00    +0.000 A 
ATOM      2  C   UNL     1       2.568   4.771  19.899  0.00  0.00    +0.000 A 
ATOM      3  C   UNL     1       3.308   5.496  18.902  0.00  0.00    +0.000 A 
ATOM      4  C   UNL     1       3.195   6.835  18.370  0.00  0.00    +0.000 A 
ATOM      5  C   UNL     1       4.170   7.038  17.397  0.00  0.00    +0.000 A 
ATOM      6  S   UNL     1       5.191   5.679  17.153  0.00  0.00    +0.000 S 
ATOM      7  C   UNL     1       4.362   4.828  18.333  0.00  0.00    +0.000 A 
ATOM      8  N   UNL     1       4.789   3.569  18.657  0.00  0.00    +0.000 N 
ATOM      9  C   UNL     1       4.152   2.883  19.662  0.00  0.00    +0.000 A 
ATOM     10  O   UNL     1       4.523   1.764  20.002  0.00  0.00    +0.000 OA
ATOM     11  H   UNL     1       5.584   3.152  18.192  0.00  0.00    +0.000 HD
ENDROOT
BRANCH   4  12
ATOM     12  C   UNL     1       2.259   7.915  18.713  0.00  0.00    +0.000 A 
ATOM     13  C   UNL     1       1.905   8.164  20.048  0.00  0.00    +0.000 A 
ATOM     14  C   UNL     1       0.936   9.118  20.373  0.00  0.00    +0.000 A 
ATOM     15  C   UNL     1       0.378   9.892  19.368  0.00  0.00    +0.000 A 
ATOM     16  C   UNL     1       0.770   9.724  18.047  0.00  0.00    +0.000 A 
ATOM     17  C   UNL     1       1.696   8.728  17.718  0.00  0.00    +0.000 A 
BRANCH  15  18
ATOM     18  O   UNL     1      -0.562  10.839  19.640  0.00  0.00    +0.000 OA
ATOM     19  H   UNL     1      -0.127  11.708  19.668  0.00  0.00    +0.000 HD
ENDBRANCH  15  18
ENDBRANCH   4  12
BRANCH   1  21
ATOM     20  N   UNL     1       1.605   2.190  22.304  0.00  0.00    +0.000 NA
ATOM     21  C   UNL     1       2.227   2.807  21.397  0.00  0.00    +0.000 C 
ENDBRANCH   1  21
BRANCH   2  22
ATOM     22  O   UNL     1       1.431   5.390  20.373  0.00  0.00    +0.000 OA
ATOM     23  H   UNL     1       0.644   5.165  19.848  0.00  0.00    +0.000 HD
ENDBRANCH   2  22
TORSDOF 4
ENDMDL
MODEL 5
REMARK VINA RESULT:      -6.6      3.367      6.456
REMARK  Name = 
REMARK  4 active torsions:
REMARK  status: ('A' for Active; 'I' for Inactive)
REMARK    1  A    between atoms: C_2  and  C_3
REMARK    2  A    between atoms: C_4  and  O_5
REMARK    3  A    between atoms: C_7  and  C_8
REMARK    4  A    between atoms: C_11  and  O_12
REMARK                            x       y       z     vdW  Elec       q    Type
REMARK                         _______ _______ _______ _____ _____    ______ ____
ROOT
ATOM      1  C   UNL     1       2.171   7.548  19.335  0.00  0.00    +0.000 A 
ATOM      2  C   UNL     1       3.000   6.822  18.556  0.00  0.00    +0.000 A 
ATOM      3  C   UNL     1       3.386   5.492  18.941  0.00  0.00    +0.000 A 
ATOM      4  C   UNL     1       4.330   4.542  18.397  0.00  0.00    +0.000 A 
ATOM      5  C   UNL     1       4.311   3.374  19.156  0.00  0.00    +0.000 A 
ATOM      6  S   UNL     1       3.219   3.430  20.479  0.00  0.00    +0.000 S 
ATOM      7  C   UNL     1       2.779   4.992  20.066  0.00  0.00    +0.000 A 
ATOM      8  N   UNL     1       1.886   5.656  20.863  0.00  0.00    +0.000 N 
ATOM      9  C   UNL     1       1.560   6.957  20.566  0.00  0.00    +0.000 A 
ATOM     10  O   UNL     1       0.786   7.596  21.271  0.00  0.00    +0.000 OA
ATOM     11  H   UNL     1       1.489   5.216  21.682  0.00  0.00    +0.000 HD
ENDROOT
BRANCH   4  12
ATOM     12  C   UNL     1       5.233   4.658  17.244  0.00  0.00    +0.000 A 
ATOM     13  C   UNL     1       6.549   5.118  17.405  0.00  0.00    +0.000 A 
ATOM     14  C   UNL     1       7.380   5.332  16.301  0.00  0.00    +0.000 A 
ATOM     15  C   UNL     1       6.927   5.002  15.033  0.00  0.00    +0.000 A 
ATOM     16  C   UNL     1       5.658   4.469  14.853  0.00  0.00    +0.000 A 
ATOM     17  C   UNL     1       4.808   4.312  15.953  0.00  0.00    +0.000 A 
BRANCH  15  18
ATOM     18  O   UNL     1       7.705   5.185  13.930  0.00  0.00    +0.000 OA
ATOM     19  H   UNL     1       7.887   6.136  13.835  0.00  0.00    +0.000 HD
ENDBRANCH  15  18
ENDBRANCH   4  12
BRANCH   1  21
ATOM     20  N   UNL     1       1.505  10.158  18.643  0.00  0.00    +0.000 NA
ATOM     21  C   UNL     1       1.807   8.975  18.957  0.00  0.00    +0.000 C 
ENDBRANCH   1  21
BRANCH   2  22
ATOM     22  O   UNL     1       3.508   7.272  17.356  0.00  0.00    +0.000 OA
ATOM     23  H   UNL     1       3.142   8.137  17.103  0.00  0.00    +0.000 HD
ENDBRANCH   2  22
TORSDOF 4
ENDMDL
MODEL 6
REMARK VINA RESULT:      -6.6      1.015      1.018
REMARK  Name = 
REMARK  4 active torsions:
REMARK  status: ('A' for Active; 'I' for Inactive)
REMARK    1  A    between atoms: C_2  and  C_3
REMARK    2  A    between atoms: C_4  and  O_5
REMARK    3  A    between atoms: C_7  and  C_8
REMARK    4  A    between atoms: C_11  and  O_12
REMARK                            x       y       z     vdW  Elec       q    Type
REMARK                         _______ _______ _______ _____ _____    ______ ____
ROOT
ATOM      1  C   UNL     1       6.174   4.369  14.310  0.00  0.00    +0.000 A 
ATOM      2  C   UNL     1       5.280   4.277  15.317  0.00  0.00    +0.000 A 
ATOM      3  C   UNL     1       5.549   4.889  16.590  0.00  0.00    +0.000 A 
ATOM      4  C   UNL     1       4.864   4.858  17.863  0.00  0.00    +0.000 A 
ATOM      5  C   UNL     1       5.550   5.645  18.784  0.00  0.00    +0.000 A 
ATOM      6  S   UNL     1       6.970   6.371  18.147  0.00  0.00    +0.000 S 
ATOM      7  C   UNL     1       6.693   5.642  16.665  0.00  0.00    +0.000 A 
ATOM      8  N   UNL     1       7.607   5.823  15.663  0.00  0.00    +0.000 N 
ATOM      9  C   UNL     1       7.419   5.186  14.460  0.00  0.00    +0.000 A 
ATOM     10  O   UNL     1       8.230   5.299  13.547  0.00  0.00    +0.000 OA
ATOM     11  H   UNL     1       8.431   6.391  15.804  0.00  0.00    +0.000 HD
ENDROOT
BRANCH   4  12
ATOM     12  C   UNL     1       3.641   4.149  18.264  0.00  0.00    +0.000 A 
ATOM     13  C   UNL     1       2.375   4.688  17.992  0.00  0.00    +0.000 A 
ATOM     14  C   UNL     1       1.211   4.074  18.462  0.00  0.00    +0.000 A 
ATOM     15  C   UNL     1       1.303   2.865  19.135  0.00  0.00    +0.000 A 
ATOM     16  C   UNL     1       2.538   2.268  19.348  0.00  0.00    +0.000 A 
ATOM     17  C   UNL     1       3.705   2.915  18.928  0.00  0.00    +0.000 A 
BRANCH  15  18
ATOM     18  O   UNL     1       0.195   2.227  19.604  0.00  0.00    +0.000 OA
ATOM     19  H   UNL     1      -0.592   2.669  19.244  0.00  0.00    +0.000 HD
ENDBRANCH  15  18
ENDBRANCH   4  12
BRANCH   1  21
ATOM     20  N   UNL     1       5.703   3.101  11.880  0.00  0.00    +0.000 NA
ATOM     21  C   UNL     1       5.917   3.676  12.982  0.00  0.00    +0.000 C 
ENDBRANCH   1  21
BRANCH   2  22
ATOM     22  O   UNL     1       4.067   3.633  15.203  0.00  0.00    +0.000 OA
ATOM     23  H   UNL     1       3.318   4.225  15.388  0.00  0.00    +0.000 HD
ENDBRANCH   2  22
TORSDOF 4
ENDMDL
MODEL 7
REMARK VINA RESULT:      -6.6      3.585      6.606
REMARK  Name = 
REMARK  4 active torsions:
REMARK  status: ('A' for Active; 'I' for Inactive)
REMARK    1  A    between atoms: C_2  and  C_3
REMARK    2  A    between atoms: C_4  and  O_5
REMARK    3  A    between atoms: C_7  and  C_8
REMARK    4  A    between atoms: C_11  and  O_12
REMARK                            x       y       z     vdW  Elec       q    Type
REMARK                         _______ _______ _______ _____ _____    ______ ____
ROOT
ATOM      1  C   UNL     1       1.926   7.922  19.480  0.00  0.00    +0.000 A 
ATOM      2  C   UNL     1       2.768   7.199  18.711  0.00  0.00    +0.000 A 
ATOM      3  C   UNL     1       3.136   5.861  19.089  0.00  0.00    +0.000 A 
ATOM      4  C   UNL     1       4.085   4.911  18.556  0.00  0.00    +0.000 A 
ATOM      5  C   UNL     1       4.042   3.735  19.299  0.00  0.00    +0.000 A 
ATOM      6  S   UNL     1       2.920   3.784  20.598  0.00  0.00    +0.000 S 
ATOM      7  C   UNL     1       2.500   5.353  20.194  0.00  0.00    +0.000 A 
ATOM      8  N   UNL     1       1.594   6.014  20.978  0.00  0.00    +0.000 N 
ATOM      9  C   UNL     1       1.283   7.320  20.689  0.00  0.00    +0.000 A 
ATOM     10  O   UNL     1       0.498   7.956  21.384  0.00  0.00    +0.000 OA
ATOM     11  H   UNL     1       1.176   5.567  21.782  0.00  0.00    +0.000 HD
ENDROOT
BRANCH   4  12
ATOM     12  C   UNL     1       5.015   5.034  17.424  0.00  0.00    +0.000 A 
ATOM     13  C   UNL     1       4.772   4.363  16.217  0.00  0.00    +0.000 A 
ATOM     14  C   UNL     1       5.703   4.389  15.174  0.00  0.00    +0.000 A 
ATOM     15  C   UNL     1       6.847   5.163  15.302  0.00  0.00    +0.000 A 
ATOM     16  C   UNL     1       7.074   5.903  16.454  0.00  0.00    +0.000 A 
ATOM     17  C   UNL     1       6.169   5.827  17.519  0.00  0.00    +0.000 A 
BRANCH  15  18
ATOM     18  O   UNL     1       7.777   5.226  14.309  0.00  0.00    +0.000 OA
ATOM     19  H   UNL     1       7.484   5.881  13.652  0.00  0.00    +0.000 HD
ENDBRANCH  15  18
ENDBRANCH   4  12
BRANCH   1  21
ATOM     20  N   UNL     1       1.294  10.544  18.803  0.00  0.00    +0.000 NA
ATOM     21  C   UNL     1       1.581   9.355  19.110  0.00  0.00    +0.000 C 
ENDBRANCH   1  21
BRANCH   2  22
ATOM     22  O   UNL     1       3.306   7.659  17.528  0.00  0.00    +0.000 OA
ATOM     23  H   UNL     1       2.623   7.830  16.856  0.00  0.00    +0.000 HD
ENDBRANCH   2  22
TORSDOF 4
ENDMDL
MODEL 8
REMARK VINA RESULT:      -6.1      3.237      6.548
REMARK  Name = 
REMARK  4 active torsions:
REMARK  status: ('A' for Active; 'I' for Inactive)
REMARK    1  A    between atoms: C_2  and  C_3
REMARK    2  A    between atoms: C_4  and  O_5
REMARK    3  A    between atoms: C_7  and  C_8
REMARK    4  A    between atoms: C_11  and  O_12
REMARK                            x       y       z     vdW  Elec       q    Type
REMARK                         _______ _______ _______ _____ _____    ______ ____
ROOT
ATOM      1  C   UNL     1       4.081   2.627  20.676  0.00  0.00    +0.000 A 
ATOM      2  C   UNL     1       4.502   3.374  19.634  0.00  0.00    +0.000 A 
ATOM      3  C   UNL     1       3.661   4.403  19.086  0.00  0.00    +0.000 A 
ATOM      4  C   UNL     1       3.778   5.259  17.928  0.00  0.00    +0.000 A 
ATOM      5  C   UNL     1       2.673   6.104  17.854  0.00  0.00    +0.000 A 
ATOM      6  S   UNL     1       1.535   5.858  19.116  0.00  0.00    +0.000 S 
ATOM      7  C   UNL     1       2.484   4.635  19.752  0.00  0.00    +0.000 A 
ATOM      8  N   UNL     1       2.030   3.953  20.848  0.00  0.00    +0.000 N 
ATOM      9  C   UNL     1       2.773   2.911  21.346  0.00  0.00    +0.000 A 
ATOM     10  O   UNL     1       2.387   2.256  22.308  0.00  0.00    +0.000 OA
ATOM     11  H   UNL     1       1.143   4.183  21.275  0.00  0.00    +0.000 HD
ENDROOT
BRANCH   4  12
ATOM     12  C   UNL     1       4.830   5.330  16.904  0.00  0.00    +0.000 A 
ATOM     13  C   UNL     1       4.778   4.517  15.761  0.00  0.00    +0.000 A 
ATOM     14  C   UNL     1       5.826   4.501  14.836  0.00  0.00    +0.000 A 
ATOM     15  C   UNL     1       6.895   5.367  15.005  0.00  0.00    +0.000 A 
ATOM     16  C   UNL     1       6.934   6.241  16.083  0.00  0.00    +0.000 A 
ATOM     17  C   UNL     1       5.913   6.212  17.038  0.00  0.00    +0.000 A 
BRANCH  15  18
ATOM     18  O   UNL     1       7.934   5.392  14.124  0.00  0.00    +0.000 OA
ATOM     19  H   UNL     1       8.018   6.295  13.771  0.00  0.00    +0.000 HD
ENDBRANCH  15  18
ENDBRANCH   4  12
BRANCH   1  21
ATOM     20  N   UNL     1       5.664   0.568  21.672  0.00  0.00    +0.000 NA
ATOM     21  C   UNL     1       4.946   1.502  21.220  0.00  0.00    +0.000 C 
ENDBRANCH   1  21
BRANCH   2  22
ATOM     22  O   UNL     1       5.741   3.233  19.047  0.00  0.00    +0.000 OA
ATOM     23  H   UNL     1       6.444   3.083  19.703  0.00  0.00    +0.000 HD
ENDBRANCH   2  22
TORSDOF 4
ENDMDL
MODEL 9
REMARK VINA RESULT:      -5.9      3.220      6.557
REMARK  Name = 
REMARK  4 active torsions:
REMARK  status: ('A' for Active; 'I' for Inactive)
REMARK    1  A    between atoms: C_2  and  C_3
REMARK    2  A    between atoms: C_4  and  O_5
REMARK    3  A    between atoms: C_7  and  C_8
REMARK    4  A    between atoms: C_11  and  O_12
REMARK                            x       y       z     vdW  Elec       q    Type
REMARK                         _______ _______ _______ _____ _____    ______ ____
ROOT
ATOM      1  C   UNL     1       4.084   2.573  20.723  0.00  0.00    +0.000 A 
ATOM      2  C   UNL     1       4.529   3.292  19.671  0.00  0.00    +0.000 A 
ATOM      3  C   UNL     1       3.695   4.296  19.068  0.00  0.00    +0.000 A 
ATOM      4  C   UNL     1       3.837   5.118  17.888  0.00  0.00    +0.000 A 
ATOM      5  C   UNL     1       2.728   5.950  17.758  0.00  0.00    +0.000 A 
ATOM      6  S   UNL     1       1.556   5.732  18.994  0.00  0.00    +0.000 S 
ATOM      7  C   UNL     1       2.498   4.537  19.694  0.00  0.00    +0.000 A 
ATOM      8  N   UNL     1       2.018   3.885  20.797  0.00  0.00    +0.000 N 
ATOM      9  C   UNL     1       2.756   2.865  21.347  0.00  0.00    +0.000 A 
ATOM     10  O   UNL     1       2.348   2.236  22.317  0.00  0.00    +0.000 OA
ATOM     11  H   UNL     1       1.118   4.119  21.192  0.00  0.00    +0.000 HD
ENDROOT
BRANCH   4  12
ATOM     12  C   UNL     1       4.917   5.168  16.892  0.00  0.00    +0.000 A 
ATOM     13  C   UNL     1       6.020   6.018  17.068  0.00  0.00    +0.000 A 
ATOM     14  C   UNL     1       6.997   6.149  16.077  0.00  0.00    +0.000 A 
ATOM     15  C   UNL     1       6.922   5.362  14.939  0.00  0.00    +0.000 A 
ATOM     16  C   UNL     1       5.886   4.453  14.775  0.00  0.00    +0.000 A 
ATOM     17  C   UNL     1       4.878   4.367  15.741  0.00  0.00    +0.000 A 
BRANCH  15  18
ATOM     18  O   UNL     1       7.857   5.450  13.952  0.00  0.00    +0.000 OA
ATOM     19  H   UNL     1       7.710   6.276  13.460  0.00  0.00    +0.000 HD
ENDBRANCH  15  18
ENDBRANCH   4  12
BRANCH   1  21
ATOM     20  N   UNL     1       5.656   0.560  21.825  0.00  0.00    +0.000 NA
ATOM     21  C   UNL     1       4.943   1.473  21.325  0.00  0.00    +0.000 C 
ENDBRANCH   1  21
BRANCH   2  22
ATOM     22  O   UNL     1       5.785   3.145  19.123  0.00  0.00    +0.000 OA
ATOM     23  H   UNL     1       5.764   3.144  18.150  0.00  0.00    +0.000 HD
ENDBRANCH   2  22
TORSDOF 4
ENDMDL
