MODEL 1
REMARK VINA RESULT:      -7.3      0.000      0.000
REMARK  Name = 
REMARK  3 active torsions:
REMARK  status: ('A' for Active; 'I' for Inactive)
REMARK    1  A    between atoms: C_1  and  C_2
REMARK    2  A    between atoms: C_10  and  C_11
REMARK    3  A    between atoms: C_11  and  O_13
REMARK                            x       y       z     vdW  Elec       q    Type
REMARK                         _______ _______ _______ _____ _____    ______ ____
ROOT
ATOM      1  C   UNL     1       0.558   8.510  21.651  0.00  0.00    +0.000 C 
ATOM      2  C   UNL     1       1.148   8.746  20.300  0.00  0.00    +0.000 A 
ATOM      3  C   UNL     1       1.045   9.933  19.597  0.00  0.00    +0.000 A 
ATOM      4  S   UNL     1       1.882   9.899  18.107  0.00  0.00    +0.000 S 
ATOM      5  C   UNL     1       2.401   8.297  18.364  0.00  0.00    +0.000 A 
ATOM      6  N   UNL     1       3.212   7.664  17.472  0.00  0.00    +0.000 NA
ATOM      7  C   UNL     1       3.471   6.436  17.802  0.00  0.00    +0.000 A 
ATOM      8  N   UNL     1       4.322   5.610  17.047  0.00  0.00    +0.000 N 
ATOM      9  C   UNL     1       5.074   5.951  15.939  0.00  0.00    +0.000 A 
ATOM     10  C   UNL     1       5.807   4.835  15.585  0.00  0.00    +0.000 A 
ATOM     11  C   UNL     1       5.396   3.855  16.518  0.00  0.00    +0.000 A 
ATOM     12  N   UNL     1       4.513   4.311  17.410  0.00  0.00    +0.000 NA
ATOM     13  N   UNL     1       2.999   5.782  18.919  0.00  0.00    +0.000 N 
ATOM     14  C   UNL     1       2.233   6.402  19.874  0.00  0.00    +0.000 A 
ATOM     15  O   UNL     1       1.875   5.835  20.899  0.00  0.00    +0.000 OA
ATOM     16  C   UNL     1       1.908   7.783  19.550  0.00  0.00    +0.000 A 
ATOM     17  H   UNL     1       3.278   4.818  19.077  0.00  0.00    +0.000 HD
ENDROOT
BRANCH  10  18
ATOM     18  C   UNL     1       6.783   4.648  14.528  0.00  0.00    +0.000 C 
ATOM     19  O   UNL     1       7.735   5.396  14.370  0.00  0.00    +0.000 OA
BRANCH  18  20
ATOM     20  O   UNL     1       6.564   3.591  13.706  0.00  0.00    +0.000 OA
ATOM     21  H   UNL     1       7.120   3.589  12.909  0.00  0.00    +0.000 HD
ENDBRANCH  18  20
ENDBRANCH  10  18
TORSDOF 2
ENDMDL
MODEL 2
REMARK VINA RESULT:      -6.9      3.035      3.910
REMARK  Name = 
REMARK  3 active torsions:
REMARK  status: ('A' for Active; 'I' for Inactive)
REMARK    1  A    between atoms: C_1  and  C_2
REMARK    2  A    between atoms: C_10  and  C_11
REMARK    3  A    between atoms: C_11  and  O_13
REMARK                            x       y       z     vdW  Elec       q    Type
REMARK                         _______ _______ _______ _____ _____    ______ ____
ROOT
ATOM      1  C   UNL     1      -0.047  11.574  18.983  0.00  0.00    +0.000 C 
ATOM      2  C   UNL     1       0.281  10.441  19.898  0.00  0.00    +0.000 A 
ATOM      3  C   UNL     1      -0.190  10.317  21.193  0.00  0.00    +0.000 A 
ATOM      4  S   UNL     1       0.321   8.874  21.953  0.00  0.00    +0.000 S 
ATOM      5  C   UNL     1       1.185   8.379  20.571  0.00  0.00    +0.000 A 
ATOM      6  N   UNL     1       1.831   7.181  20.532  0.00  0.00    +0.000 NA
ATOM      7  C   UNL     1       2.474   6.985  19.422  0.00  0.00    +0.000 A 
ATOM      8  N   UNL     1       3.176   5.797  19.150  0.00  0.00    +0.000 N 
ATOM      9  C   UNL     1       3.231   4.648  19.915  0.00  0.00    +0.000 A 
ATOM     10  C   UNL     1       3.979   3.725  19.210  0.00  0.00    +0.000 A 
ATOM     11  C   UNL     1       4.367   4.428  18.046  0.00  0.00    +0.000 A 
ATOM     12  N   UNL     1       3.880   5.670  17.991  0.00  0.00    +0.000 NA
ATOM     13  N   UNL     1       2.541   7.862  18.361  0.00  0.00    +0.000 N 
ATOM     14  C   UNL     1       1.854   9.049  18.334  0.00  0.00    +0.000 A 
ATOM     15  O   UNL     1       1.862   9.791  17.360  0.00  0.00    +0.000 OA
ATOM     16  C   UNL     1       1.117   9.320  19.560  0.00  0.00    +0.000 A 
ATOM     17  H   UNL     1       3.072   7.594  17.537  0.00  0.00    +0.000 HD
ENDROOT
BRANCH  10  18
ATOM     18  C   UNL     1       4.317   2.351  19.528  0.00  0.00    +0.000 C 
ATOM     19  O   UNL     1       4.858   2.030  20.575  0.00  0.00    +0.000 OA
BRANCH  18  20
ATOM     20  O   UNL     1       4.008   1.434  18.577  0.00  0.00    +0.000 OA
ATOM     21  H   UNL     1       3.184   1.625  18.099  0.00  0.00    +0.000 HD
ENDBRANCH  18  20
ENDBRANCH  10  18
TORSDOF 2
ENDMDL
MODEL 3
REMARK VINA RESULT:      -6.8      3.061      7.525
REMARK  Name = 
REMARK  3 active torsions:
REMARK  status: ('A' for Active; 'I' for Inactive)
REMARK    1  A    between atoms: C_1  and  C_2
REMARK    2  A    between atoms: C_10  and  C_11
REMARK    3  A    between atoms: C_11  and  O_13
REMARK                            x       y       z     vdW  Elec       q    Type
REMARK                         _______ _______ _______ _____ _____    ______ ____
ROOT
ATOM      1  C   UNL     1       5.399   4.183  16.693  0.00  0.00    +0.000 C 
ATOM      2  C   UNL     1       4.465   4.179  17.858  0.00  0.00    +0.000 A 
ATOM      3  C   UNL     1       4.215   3.079  18.659  0.00  0.00    +0.000 A 
ATOM      4  S   UNL     1       3.142   3.422  19.945  0.00  0.00    +0.000 S 
ATOM      5  C   UNL     1       2.984   5.047  19.463  0.00  0.00    +0.000 A 
ATOM      6  N   UNL     1       2.228   5.927  20.177  0.00  0.00    +0.000 NA
ATOM      7  C   UNL     1       2.182   7.108  19.643  0.00  0.00    +0.000 A 
ATOM      8  N   UNL     1       1.494   8.183  20.235  0.00  0.00    +0.000 N 
ATOM      9  C   UNL     1       0.862   8.214  21.463  0.00  0.00    +0.000 A 
ATOM     10  C   UNL     1       0.394   9.501  21.647  0.00  0.00    +0.000 A 
ATOM     11  C   UNL     1       0.758  10.164  20.452  0.00  0.00    +0.000 A 
ATOM     12  N   UNL     1       1.431   9.387  19.600  0.00  0.00    +0.000 NA
ATOM     13  N   UNL     1       2.801   7.492  18.474  0.00  0.00    +0.000 N 
ATOM     14  C   UNL     1       3.622   6.657  17.759  0.00  0.00    +0.000 A 
ATOM     15  O   UNL     1       4.225   7.025  16.759  0.00  0.00    +0.000 OA
ATOM     16  C   UNL     1       3.706   5.314  18.314  0.00  0.00    +0.000 A 
ATOM     17  H   UNL     1       2.699   8.452  18.157  0.00  0.00    +0.000 HD
ENDROOT
BRANCH  10  18
ATOM     18  C   UNL     1      -0.304  10.095  22.772  0.00  0.00    +0.000 C 
ATOM     19  O   UNL     1      -1.038  11.064  22.655  0.00  0.00    +0.000 OA
BRANCH  18  20
ATOM     20  O   UNL     1      -0.078   9.514  23.976  0.00  0.00    +0.000 OA
ATOM     21  H   UNL     1      -0.882   9.377  24.505  0.00  0.00    +0.000 HD
ENDBRANCH  18  20
ENDBRANCH  10  18
TORSDOF 2
ENDMDL
MODEL 4
REMARK VINA RESULT:      -6.6      2.950      3.718
REMARK  Name = 
REMARK  3 active torsions:
REMARK  status: ('A' for Active; 'I' for Inactive)
REMARK    1  A    between atoms: C_1  and  C_2
REMARK    2  A    between atoms: C_10  and  C_11
REMARK    3  A    between atoms: C_11  and  O_13
REMARK                            x       y       z     vdW  Elec       q    Type
REMARK                         _______ _______ _______ _____ _____    ______ ____
ROOT
ATOM      1  C   UNL     1       1.452   5.386  20.946  0.00  0.00    +0.000 C 
ATOM      2  C   UNL     1       1.791   4.365  19.912  0.00  0.00    +0.000 A 
ATOM      3  C   UNL     1       1.166   3.136  19.789  0.00  0.00    +0.000 A 
ATOM      4  S   UNL     1       1.745   2.225  18.463  0.00  0.00    +0.000 S 
ATOM      5  C   UNL     1       2.846   3.447  18.023  0.00  0.00    +0.000 A 
ATOM      6  N   UNL     1       3.637   3.324  16.921  0.00  0.00    +0.000 NA
ATOM      7  C   UNL     1       4.445   4.326  16.761  0.00  0.00    +0.000 A 
ATOM      8  N   UNL     1       5.322   4.426  15.665  0.00  0.00    +0.000 N 
ATOM      9  C   UNL     1       5.416   3.587  14.572  0.00  0.00    +0.000 A 
ATOM     10  C   UNL     1       6.363   4.127  13.724  0.00  0.00    +0.000 A 
ATOM     11  C   UNL     1       6.816   5.275  14.416  0.00  0.00    +0.000 A 
ATOM     12  N   UNL     1       6.189   5.473  15.578  0.00  0.00    +0.000 NA
ATOM     13  N   UNL     1       4.547   5.423  17.587  0.00  0.00    +0.000 N 
ATOM     14  C   UNL     1       3.726   5.617  18.669  0.00  0.00    +0.000 A 
ATOM     15  O   UNL     1       3.775   6.628  19.359  0.00  0.00    +0.000 OA
ATOM     16  C   UNL     1       2.800   4.517  18.898  0.00  0.00    +0.000 A 
ATOM     17  H   UNL     1       5.215   6.152  17.353  0.00  0.00    +0.000 HD
ENDROOT
BRANCH  10  18
ATOM     18  C   UNL     1       6.825   3.680  12.424  0.00  0.00    +0.000 C 
ATOM     19  O   UNL     1       7.500   4.381  11.686  0.00  0.00    +0.000 OA
BRANCH  18  20
ATOM     20  O   UNL     1       6.445   2.428  12.064  0.00  0.00    +0.000 OA
ATOM     21  H   UNL     1       5.607   2.140  12.464  0.00  0.00    +0.000 HD
ENDBRANCH  18  20
ENDBRANCH  10  18
TORSDOF 2
ENDMDL
MODEL 5
REMARK VINA RESULT:      -6.5      3.619      6.675
REMARK  Name = 
REMARK  3 active torsions:
REMARK  status: ('A' for Active; 'I' for Inactive)
REMARK    1  A    between atoms: C_1  and  C_2
REMARK    2  A    between atoms: C_10  and  C_11
REMARK    3  A    between atoms: C_11  and  O_13
REMARK                            x       y       z     vdW  Elec       q    Type
REMARK                         _______ _______ _______ _____ _____    ______ ____
ROOT
ATOM      1  C   UNL     1       3.915   2.329  19.662  0.00  0.00    +0.000 C 
ATOM      2  C   UNL     1       3.980   3.597  18.875  0.00  0.00    +0.000 A 
ATOM      3  C   UNL     1       4.661   3.743  17.679  0.00  0.00    +0.000 A 
ATOM      4  S   UNL     1       4.487   5.303  17.001  0.00  0.00    +0.000 S 
ATOM      5  C   UNL     1       3.500   5.821  18.289  0.00  0.00    +0.000 A 
ATOM      6  N   UNL     1       2.958   7.070  18.307  0.00  0.00    +0.000 NA
ATOM      7  C   UNL     1       2.272   7.312  19.381  0.00  0.00    +0.000 A 
ATOM      8  N   UNL     1       1.591   8.524  19.591  0.00  0.00    +0.000 N 
ATOM      9  C   UNL     1       1.446   9.581  18.712  0.00  0.00    +0.000 A 
ATOM     10  C   UNL     1       0.636  10.515  19.329  0.00  0.00    +0.000 A 
ATOM     11  C   UNL     1       0.376   9.947  20.597  0.00  0.00    +0.000 A 
ATOM     12  N   UNL     1       0.933   8.745  20.763  0.00  0.00    +0.000 NA
ATOM     13  N   UNL     1       2.083   6.442  20.433  0.00  0.00    +0.000 N 
ATOM     14  C   UNL     1       2.556   5.154  20.426  0.00  0.00    +0.000 A 
ATOM     15  O   UNL     1       2.325   4.364  21.332  0.00  0.00    +0.000 OA
ATOM     16  C   UNL     1       3.339   4.831  19.242  0.00  0.00    +0.000 A 
ATOM     17  H   UNL     1       1.516   6.742  21.221  0.00  0.00    +0.000 HD
ENDROOT
BRANCH  10  18
ATOM     18  C   UNL     1       0.132  11.786  18.845  0.00  0.00    +0.000 C 
ATOM     19  O   UNL     1      -0.985  12.199  19.115  0.00  0.00    +0.000 OA
BRANCH  18  20
ATOM     20  O   UNL     1       0.979  12.491  18.054  0.00  0.00    +0.000 OA
ATOM     21  H   UNL     1       0.959  13.450  18.210  0.00  0.00    +0.000 HD
ENDBRANCH  18  20
ENDBRANCH  10  18
TORSDOF 2
ENDMDL
MODEL 6
REMARK VINA RESULT:      -6.5      3.072      4.362
REMARK  Name = 
REMARK  3 active torsions:
REMARK  status: ('A' for Active; 'I' for Inactive)
REMARK    1  A    between atoms: C_1  and  C_2
REMARK    2  A    between atoms: C_10  and  C_11
REMARK    3  A    between atoms: C_11  and  O_13
REMARK                            x       y       z     vdW  Elec       q    Type
REMARK                         _______ _______ _______ _____ _____    ______ ____
ROOT
ATOM      1  C   UNL     1      -1.293  12.263  20.523  0.00  0.00    +0.000 C 
ATOM      2  C   UNL     1      -0.644  11.113  21.220  0.00  0.00    +0.000 A 
ATOM      3  C   UNL     1      -0.794  10.826  22.565  0.00  0.00    +0.000 A 
ATOM      4  S   UNL     1       0.031   9.406  23.039  0.00  0.00    +0.000 S 
ATOM      5  C   UNL     1       0.611   9.141  21.460  0.00  0.00    +0.000 A 
ATOM      6  N   UNL     1       1.360   8.045  21.156  0.00  0.00    +0.000 NA
ATOM      7  C   UNL     1       1.754   8.025  19.920  0.00  0.00    +0.000 A 
ATOM      8  N   UNL     1       2.504   6.965  19.379  0.00  0.00    +0.000 N 
ATOM      9  C   UNL     1       2.857   5.777  19.987  0.00  0.00    +0.000 A 
ATOM     10  C   UNL     1       3.524   5.019  19.044  0.00  0.00    +0.000 A 
ATOM     11  C   UNL     1       3.560   5.857  17.906  0.00  0.00    +0.000 A 
ATOM     12  N   UNL     1       2.939   7.025  18.089  0.00  0.00    +0.000 NA
ATOM     13  N   UNL     1       1.483   8.984  18.969  0.00  0.00    +0.000 N 
ATOM     14  C   UNL     1       0.680  10.070  19.216  0.00  0.00    +0.000 A 
ATOM     15  O   UNL     1       0.386  10.881  18.348  0.00  0.00    +0.000 OA
ATOM     16  C   UNL     1       0.213  10.143  20.593  0.00  0.00    +0.000 A 
ATOM     17  H   UNL     1       1.841   8.855  18.027  0.00  0.00    +0.000 HD
ENDROOT
BRANCH  10  18
ATOM     18  C   UNL     1       4.076   3.680  19.134  0.00  0.00    +0.000 C 
ATOM     19  O   UNL     1       3.375   2.681  19.195  0.00  0.00    +0.000 OA
BRANCH  18  20
ATOM     20  O   UNL     1       5.429   3.602  19.162  0.00  0.00    +0.000 OA
ATOM     21  H   UNL     1       5.785   2.781  18.783  0.00  0.00    +0.000 HD
ENDBRANCH  18  20
ENDBRANCH  10  18
TORSDOF 2
ENDMDL
MODEL 7
REMARK VINA RESULT:      -6.5      3.376      3.913
REMARK  Name = 
REMARK  3 active torsions:
REMARK  status: ('A' for Active; 'I' for Inactive)
REMARK    1  A    between atoms: C_1  and  C_2
REMARK    2  A    between atoms: C_10  and  C_11
REMARK    3  A    between atoms: C_11  and  O_13
REMARK                            x       y       z     vdW  Elec       q    Type
REMARK                         _______ _______ _______ _____ _____    ______ ____
ROOT
ATOM      1  C   UNL     1       0.291  11.680  21.231  0.00  0.00    +0.000 C 
ATOM      2  C   UNL     1       0.820  10.796  20.150  0.00  0.00    +0.000 A 
ATOM      3  C   UNL     1       1.117  11.219  18.866  0.00  0.00    +0.000 A 
ATOM      4  S   UNL     1       1.762   9.975  17.888  0.00  0.00    +0.000 S 
ATOM      5  C   UNL     1       1.658   8.840  19.154  0.00  0.00    +0.000 A 
ATOM      6  N   UNL     1       2.100   7.562  18.996  0.00  0.00    +0.000 NA
ATOM      7  C   UNL     1       1.903   6.823  20.043  0.00  0.00    +0.000 A 
ATOM      8  N   UNL     1       2.320   5.481  20.116  0.00  0.00    +0.000 N 
ATOM      9  C   UNL     1       3.057   4.769  19.190  0.00  0.00    +0.000 A 
ATOM     10  C   UNL     1       3.287   3.517  19.727  0.00  0.00    +0.000 A 
ATOM     11  C   UNL     1       2.611   3.557  20.969  0.00  0.00    +0.000 A 
ATOM     12  N   UNL     1       2.036   4.736  21.220  0.00  0.00    +0.000 NA
ATOM     13  N   UNL     1       1.308   7.226  21.218  0.00  0.00    +0.000 N 
ATOM     14  C   UNL     1       0.907   8.520  21.442  0.00  0.00    +0.000 A 
ATOM     15  O   UNL     1       0.442   8.889  22.512  0.00  0.00    +0.000 OA
ATOM     16  C   UNL     1       1.102   9.393  20.293  0.00  0.00    +0.000 A 
ATOM     17  H   UNL     1       1.215   6.557  21.977  0.00  0.00    +0.000 HD
ENDROOT
BRANCH  10  18
ATOM     18  C   UNL     1       4.036   2.392  19.201  0.00  0.00    +0.000 C 
ATOM     19  O   UNL     1       3.608   1.672  18.312  0.00  0.00    +0.000 OA
BRANCH  18  20
ATOM     20  O   UNL     1       5.247   2.174  19.771  0.00  0.00    +0.000 OA
ATOM     21  H   UNL     1       5.261   2.315  20.733  0.00  0.00    +0.000 HD
ENDBRANCH  18  20
ENDBRANCH  10  18
TORSDOF 2
ENDMDL
MODEL 8
REMARK VINA RESULT:      -6.3      3.158      4.064
REMARK  Name = 
REMARK  3 active torsions:
REMARK  status: ('A' for Active; 'I' for Inactive)
REMARK    1  A    between atoms: C_1  and  C_2
REMARK    2  A    between atoms: C_10  and  C_11
REMARK    3  A    between atoms: C_11  and  O_13
REMARK                            x       y       z     vdW  Elec       q    Type
REMARK                         _______ _______ _______ _____ _____    ______ ____
ROOT
ATOM      1  C   UNL     1       0.808  11.963  19.306  0.00  0.00    +0.000 C 
ATOM      2  C   UNL     1       0.914  10.704  20.102  0.00  0.00    +0.000 A 
ATOM      3  C   UNL     1       0.507  10.573  21.418  0.00  0.00    +0.000 A 
ATOM      4  S   UNL     1       0.708   8.986  22.022  0.00  0.00    +0.000 S 
ATOM      5  C   UNL     1       1.345   8.436  20.541  0.00  0.00    +0.000 A 
ATOM      6  N   UNL     1       1.687   7.131  20.359  0.00  0.00    +0.000 NA
ATOM      7  C   UNL     1       2.197   6.897  19.189  0.00  0.00    +0.000 A 
ATOM      8  N   UNL     1       2.581   5.610  18.772  0.00  0.00    +0.000 N 
ATOM      9  C   UNL     1       2.410   4.413  19.440  0.00  0.00    +0.000 A 
ATOM     10  C   UNL     1       2.875   3.412  18.609  0.00  0.00    +0.000 A 
ATOM     11  C   UNL     1       3.347   4.112  17.474  0.00  0.00    +0.000 A 
ATOM     12  N   UNL     1       3.164   5.432  17.553  0.00  0.00    +0.000 NA
ATOM     13  N   UNL     1       2.405   7.829  18.197  0.00  0.00    +0.000 N 
ATOM     14  C   UNL     1       2.017   9.140  18.315  0.00  0.00    +0.000 A 
ATOM     15  O   UNL     1       2.141   9.947  17.403  0.00  0.00    +0.000 OA
ATOM     16  C   UNL     1       1.441   9.458  19.614  0.00  0.00    +0.000 A 
ATOM     17  H   UNL     1       2.807   7.524  17.314  0.00  0.00    +0.000 HD
ENDROOT
BRANCH  10  18
ATOM     18  C   UNL     1       2.898   1.973  18.793  0.00  0.00    +0.000 C 
ATOM     19  O   UNL     1       3.933   1.325  18.795  0.00  0.00    +0.000 OA
BRANCH  18  20
ATOM     20  O   UNL     1       1.688   1.382  18.949  0.00  0.00    +0.000 OA
ATOM     21  H   UNL     1       1.487   1.130  19.866  0.00  0.00    +0.000 HD
ENDBRANCH  18  20
ENDBRANCH  10  18
TORSDOF 2
ENDMDL
MODEL 9
REMARK VINA RESULT:      -6.2      2.264      3.089
REMARK  Name = 
REMARK  3 active torsions:
REMARK  status: ('A' for Active; 'I' for Inactive)
REMARK    1  A    between atoms: C_1  and  C_2
REMARK    2  A    between atoms: C_10  and  C_11
REMARK    3  A    between atoms: C_11  and  O_13
REMARK                            x       y       z     vdW  Elec       q    Type
REMARK                         _______ _______ _______ _____ _____    ______ ____
ROOT
ATOM      1  C   UNL     1       1.596   3.704  21.198  0.00  0.00    +0.000 C 
ATOM      2  C   UNL     1       2.120   4.743  20.263  0.00  0.00    +0.000 A 
ATOM      3  C   UNL     1       1.943   6.106  20.425  0.00  0.00    +0.000 A 
ATOM      4  S   UNL     1       2.720   7.028  19.213  0.00  0.00    +0.000 S 
ATOM      5  C   UNL     1       3.310   5.629  18.441  0.00  0.00    +0.000 A 
ATOM      6  N   UNL     1       4.108   5.712  17.340  0.00  0.00    +0.000 NA
ATOM      7  C   UNL     1       4.428   4.553  16.855  0.00  0.00    +0.000 A 
ATOM      8  N   UNL     1       5.280   4.402  15.746  0.00  0.00    +0.000 N 
ATOM      9  C   UNL     1       5.972   5.386  15.066  0.00  0.00    +0.000 A 
ATOM     10  C   UNL     1       6.733   4.755  14.101  0.00  0.00    +0.000 A 
ATOM     11  C   UNL     1       6.398   3.389  14.250  0.00  0.00    +0.000 A 
ATOM     12  N   UNL     1       5.536   3.162  15.244  0.00  0.00    +0.000 NA
ATOM     13  N   UNL     1       4.028   3.331  17.349  0.00  0.00    +0.000 N 
ATOM     14  C   UNL     1       3.278   3.201  18.492  0.00  0.00    +0.000 A 
ATOM     15  O   UNL     1       2.984   2.111  18.964  0.00  0.00    +0.000 OA
ATOM     16  C   UNL     1       2.887   4.476  19.075  0.00  0.00    +0.000 A 
ATOM     17  H   UNL     1       4.351   2.486  16.887  0.00  0.00    +0.000 HD
ENDROOT
BRANCH  10  18
ATOM     18  C   UNL     1       7.671   5.302  13.139  0.00  0.00    +0.000 C 
ATOM     19  O   UNL     1       7.534   5.166  11.933  0.00  0.00    +0.000 OA
BRANCH  18  20
ATOM     20  O   UNL     1       8.730   5.967  13.664  0.00  0.00    +0.000 OA
ATOM     21  H   UNL     1       9.254   5.441  14.291  0.00  0.00    +0.000 HD
ENDBRANCH  18  20
ENDBRANCH  10  18
TORSDOF 2
ENDMDL
