MODEL 1
REMARK VINA RESULT:     -10.1      0.000      0.000
REMARK  Name = 
REMARK  5 active torsions:
REMARK  status: ('A' for Active; 'I' for Inactive)
REMARK    1  A    between atoms: C_5  and  C_6
REMARK    2  A    between atoms: C_6  and  N_7
REMARK    3  A    between atoms: C_9  and  C_10
REMARK    4  A    between atoms: C_14  and  C_15
REMARK    5  A    between atoms: C_26  and  N_27
REMARK                            x       y       z     vdW  Elec       q    Type
REMARK                         _______ _______ _______ _____ _____    ______ ____
ROOT
ATOM      1  N   UNL     1       3.838   4.260  18.075  0.00  0.00    +0.000 N 
ATOM      2  C   UNL     1       3.517   5.578  17.848  0.00  0.00    +0.000 A 
ATOM      3  C   UNL     1       2.754   6.034  18.908  0.00  0.00    +0.000 A 
ATOM      4  C   UNL     1       2.635   4.941  19.833  0.00  0.00    +0.000 A 
ATOM      5  C   UNL     1       1.974   4.757  21.069  0.00  0.00    +0.000 A 
ATOM      6  C   UNL     1       2.076   3.537  21.746  0.00  0.00    +0.000 A 
ATOM      7  C   UNL     1       2.819   2.493  21.210  0.00  0.00    +0.000 A 
ATOM      8  C   UNL     1       3.455   2.632  19.977  0.00  0.00    +0.000 A 
ATOM      9  C   UNL     1       3.341   3.858  19.298  0.00  0.00    +0.000 A 
ENDROOT
BRANCH   3  10
ATOM     10  C   UNL     1       2.183   7.380  18.964  0.00  0.00    +0.000 A 
ATOM     11  C   UNL     1       2.153   8.197  17.827  0.00  0.00    +0.000 A 
ATOM     12  C   UNL     1       1.668   9.506  17.898  0.00  0.00    +0.000 A 
ATOM     13  C   UNL     1       1.189  10.011  19.105  0.00  0.00    +0.000 A 
ATOM     14  C   UNL     1       1.185   9.209  20.253  0.00  0.00    +0.000 A 
ATOM     15  C   UNL     1       1.686   7.896  20.170  0.00  0.00    +0.000 A 
BRANCH  14  16
ATOM     16  C   UNL     1       0.665   9.724  21.570  0.00  0.00    +0.000 C 
ATOM     17  F   UNL     1       1.357   9.263  22.650  0.00  0.00    +0.000 F 
ATOM     18  F   UNL     1       0.710  11.084  21.651  0.00  0.00    +0.000 F 
ATOM     19  F   UNL     1      -0.636   9.381  21.787  0.00  0.00    +0.000 F 
ENDBRANCH  14  16
ENDBRANCH   3  10
BRANCH   1  20
ATOM     20  C   UNL     1       4.462   3.376  17.089  0.00  0.00    +0.000 C 
BRANCH  20  25
ATOM     21  N   UNL     1       8.141   5.628  13.542  0.00  0.00    +0.000 N 
ATOM     22  C   UNL     1       7.259   5.054  14.430  0.00  0.00    +0.000 A 
ATOM     23  N   UNL     1       6.118   4.573  13.946  0.00  0.00    +0.000 NA
ATOM     24  C   UNL     1       5.265   4.060  14.849  0.00  0.00    +0.000 A 
ATOM     25  C   UNL     1       5.501   4.008  16.214  0.00  0.00    +0.000 A 
ATOM     26  C   UNL     1       6.755   4.451  16.581  0.00  0.00    +0.000 A 
ATOM     27  N   UNL     1       7.627   4.977  15.708  0.00  0.00    +0.000 NA
ATOM     28  H   UNL     1       8.005   5.236  12.620  0.00  0.00    +0.000 HD
ATOM     29  H   UNL     1       9.076   5.602  13.925  0.00  0.00    +0.000 HD
BRANCH  26  30
ATOM     30  N   UNL     1       7.266   4.310  17.865  0.00  0.00    +0.000 N 
ATOM     31  H   UNL     1       7.026   3.426  18.303  0.00  0.00    +0.000 HD
ATOM     32  H   UNL     1       6.917   5.089  18.420  0.00  0.00    +0.000 HD
ENDBRANCH  26  30
ENDBRANCH  20  25
ENDBRANCH   1  20
TORSDOF 5
ENDMDL
MODEL 2
REMARK VINA RESULT:      -9.9      1.155      1.369
REMARK  Name = 
REMARK  5 active torsions:
REMARK  status: ('A' for Active; 'I' for Inactive)
REMARK    1  A    between atoms: C_5  and  C_6
REMARK    2  A    between atoms: C_6  and  N_7
REMARK    3  A    between atoms: C_9  and  C_10
REMARK    4  A    between atoms: C_14  and  C_15
REMARK    5  A    between atoms: C_26  and  N_27
REMARK                            x       y       z     vdW  Elec       q    Type
REMARK                         _______ _______ _______ _____ _____    ______ ____
ROOT
ATOM      1  N   UNL     1       4.544   4.662  19.010  0.00  0.00    +0.000 N 
ATOM      2  C   UNL     1       4.212   5.993  19.118  0.00  0.00    +0.000 A 
ATOM      3  C   UNL     1       2.847   6.091  19.320  0.00  0.00    +0.000 A 
ATOM      4  C   UNL     1       2.337   4.750  19.364  0.00  0.00    +0.000 A 
ATOM      5  C   UNL     1       1.050   4.183  19.512  0.00  0.00    +0.000 A 
ATOM      6  C   UNL     1       0.892   2.794  19.533  0.00  0.00    +0.000 A 
ATOM      7  C   UNL     1       1.992   1.956  19.401  0.00  0.00    +0.000 A 
ATOM      8  C   UNL     1       3.270   2.483  19.222  0.00  0.00    +0.000 A 
ATOM      9  C   UNL     1       3.421   3.881  19.193  0.00  0.00    +0.000 A 
ENDROOT
BRANCH   3  10
ATOM     10  C   UNL     1       2.142   7.369  19.414  0.00  0.00    +0.000 A 
ATOM     11  C   UNL     1       2.101   8.252  18.328  0.00  0.00    +0.000 A 
ATOM     12  C   UNL     1       1.485   9.501  18.441  0.00  0.00    +0.000 A 
ATOM     13  C   UNL     1       0.881   9.878  19.639  0.00  0.00    +0.000 A 
ATOM     14  C   UNL     1       0.885   9.007  20.736  0.00  0.00    +0.000 A 
ATOM     15  C   UNL     1       1.520   7.756  20.611  0.00  0.00    +0.000 A 
BRANCH  14  16
ATOM     16  C   UNL     1       0.234   9.383  22.042  0.00  0.00    +0.000 C 
ATOM     17  F   UNL     1      -0.818   8.586  22.379  0.00  0.00    +0.000 F 
ATOM     18  F   UNL     1       1.101   9.322  23.091  0.00  0.00    +0.000 F 
ATOM     19  F   UNL     1      -0.251  10.657  22.034  0.00  0.00    +0.000 F 
ENDBRANCH  14  16
ENDBRANCH   3  10
BRANCH   1  20
ATOM     20  C   UNL     1       5.856   4.165  18.593  0.00  0.00    +0.000 C 
BRANCH  20  25
ATOM     21  N   UNL     1       7.319   5.254  13.314  0.00  0.00    +0.000 N 
ATOM     22  C   UNL     1       6.991   4.989  14.625  0.00  0.00    +0.000 A 
ATOM     23  N   UNL     1       6.252   3.912  14.874  0.00  0.00    +0.000 NA
ATOM     24  C   UNL     1       5.916   3.712  16.160  0.00  0.00    +0.000 A 
ATOM     25  C   UNL     1       6.285   4.541  17.208  0.00  0.00    +0.000 A 
ATOM     26  C   UNL     1       7.127   5.570  16.837  0.00  0.00    +0.000 A 
ATOM     27  N   UNL     1       7.474   5.804  15.562  0.00  0.00    +0.000 NA
ATOM     28  H   UNL     1       7.322   4.395  12.781  0.00  0.00    +0.000 HD
ATOM     29  H   UNL     1       8.152   5.826  13.280  0.00  0.00    +0.000 HD
BRANCH  26  30
ATOM     30  N   UNL     1       7.764   6.399  17.751  0.00  0.00    +0.000 N 
ATOM     31  H   UNL     1       8.723   6.617  17.501  0.00  0.00    +0.000 HD
ATOM     32  H   UNL     1       7.728   5.938  18.658  0.00  0.00    +0.000 HD
ENDBRANCH  26  30
ENDBRANCH  20  25
ENDBRANCH   1  20
TORSDOF 5
ENDMDL
MODEL 3
REMARK VINA RESULT:      -9.9      1.362      1.440
REMARK  Name = 
REMARK  5 active torsions:
REMARK  status: ('A' for Active; 'I' for Inactive)
REMARK    1  A    between atoms: C_5  and  C_6
REMARK    2  A    between atoms: C_6  and  N_7
REMARK    3  A    between atoms: C_9  and  C_10
REMARK    4  A    between atoms: C_14  and  C_15
REMARK    5  A    between atoms: C_26  and  N_27
REMARK                            x       y       z     vdW  Elec       q    Type
REMARK                         _______ _______ _______ _____ _____    ______ ____
ROOT
ATOM      1  N   UNL     1       4.734   4.779  18.367  0.00  0.00    +0.000 N 
ATOM      2  C   UNL     1       4.365   6.088  18.577  0.00  0.00    +0.000 A 
ATOM      3  C   UNL     1       2.993   6.137  18.746  0.00  0.00    +0.000 A 
ATOM      4  C   UNL     1       2.517   4.784  18.663  0.00  0.00    +0.000 A 
ATOM      5  C   UNL     1       1.241   4.177  18.725  0.00  0.00    +0.000 A 
ATOM      6  C   UNL     1       1.119   2.788  18.624  0.00  0.00    +0.000 A 
ATOM      7  C   UNL     1       2.244   1.990  18.455  0.00  0.00    +0.000 A 
ATOM      8  C   UNL     1       3.512   2.561  18.358  0.00  0.00    +0.000 A 
ATOM      9  C   UNL     1       3.627   3.960  18.451  0.00  0.00    +0.000 A 
ENDROOT
BRANCH   3  10
ATOM     10  C   UNL     1       2.252   7.385  18.927  0.00  0.00    +0.000 A 
ATOM     11  C   UNL     1       2.100   8.292  17.870  0.00  0.00    +0.000 A 
ATOM     12  C   UNL     1       1.450   9.515  18.063  0.00  0.00    +0.000 A 
ATOM     13  C   UNL     1       0.925   9.839  19.311  0.00  0.00    +0.000 A 
ATOM     14  C   UNL     1       1.041   8.942  20.381  0.00  0.00    +0.000 A 
ATOM     15  C   UNL     1       1.708   7.719  20.176  0.00  0.00    +0.000 A 
BRANCH  14  16
ATOM     16  C   UNL     1       0.476   9.262  21.740  0.00  0.00    +0.000 C 
ATOM     17  F   UNL     1       1.371   9.107  22.756  0.00  0.00    +0.000 F 
ATOM     18  F   UNL     1       0.030  10.547  21.829  0.00  0.00    +0.000 F 
ATOM     19  F   UNL     1      -0.590   8.476  22.060  0.00  0.00    +0.000 F 
ENDBRANCH  14  16
ENDBRANCH   3  10
BRANCH   1  20
ATOM     20  C   UNL     1       6.069   4.351  17.948  0.00  0.00    +0.000 C 
BRANCH  20  25
ATOM     21  N   UNL     1       7.105   4.618  12.467  0.00  0.00    +0.000 N 
ATOM     22  C   UNL     1       6.883   4.560  13.825  0.00  0.00    +0.000 A 
ATOM     23  N   UNL     1       6.247   3.494  14.304  0.00  0.00    +0.000 NA
ATOM     24  C   UNL     1       6.010   3.495  15.626  0.00  0.00    +0.000 A 
ATOM     25  C   UNL     1       6.379   4.513  16.492  0.00  0.00    +0.000 A 
ATOM     26  C   UNL     1       7.112   5.517  15.893  0.00  0.00    +0.000 A 
ATOM     27  N   UNL     1       7.359   5.553  14.575  0.00  0.00    +0.000 NA
ATOM     28  H   UNL     1       7.142   3.683  12.084  0.00  0.00    +0.000 HD
ATOM     29  H   UNL     1       7.887   5.230  12.276  0.00  0.00    +0.000 HD
BRANCH  26  30
ATOM     30  N   UNL     1       7.739   6.530  16.607  0.00  0.00    +0.000 N 
ATOM     31  H   UNL     1       8.093   6.231  17.510  0.00  0.00    +0.000 HD
ATOM     32  H   UNL     1       7.067   7.286  16.720  0.00  0.00    +0.000 HD
ENDBRANCH  26  30
ENDBRANCH  20  25
ENDBRANCH   1  20
TORSDOF 5
ENDMDL
MODEL 4
REMARK VINA RESULT:      -9.6      1.136      1.682
REMARK  Name = 
REMARK  5 active torsions:
REMARK  status: ('A' for Active; 'I' for Inactive)
REMARK    1  A    between atoms: C_5  and  C_6
REMARK    2  A    between atoms: C_6  and  N_7
REMARK    3  A    between atoms: C_9  and  C_10
REMARK    4  A    between atoms: C_14  and  C_15
REMARK    5  A    between atoms: C_26  and  N_27
REMARK                            x       y       z     vdW  Elec       q    Type
REMARK                         _______ _______ _______ _____ _____    ______ ____
ROOT
ATOM      1  N   UNL     1       4.607   4.937  19.376  0.00  0.00    +0.000 N 
ATOM      2  C   UNL     1       4.214   6.251  19.275  0.00  0.00    +0.000 A 
ATOM      3  C   UNL     1       2.856   6.325  19.530  0.00  0.00    +0.000 A 
ATOM      4  C   UNL     1       2.417   4.990  19.829  0.00  0.00    +0.000 A 
ATOM      5  C   UNL     1       1.169   4.404  20.140  0.00  0.00    +0.000 A 
ATOM      6  C   UNL     1       1.083   3.034  20.406  0.00  0.00    +0.000 A 
ATOM      7  C   UNL     1       2.218   2.233  20.360  0.00  0.00    +0.000 A 
ATOM      8  C   UNL     1       3.457   2.775  20.025  0.00  0.00    +0.000 A 
ATOM      9  C   UNL     1       3.535   4.153  19.750  0.00  0.00    +0.000 A 
ENDROOT
BRANCH   3  10
ATOM     10  C   UNL     1       2.091   7.569  19.443  0.00  0.00    +0.000 A 
ATOM     11  C   UNL     1       2.123   8.354  18.284  0.00  0.00    +0.000 A 
ATOM     12  C   UNL     1       1.445   9.576  18.228  0.00  0.00    +0.000 A 
ATOM     13  C   UNL     1       0.709  10.020  19.324  0.00  0.00    +0.000 A 
ATOM     14  C   UNL     1       0.641   9.245  20.489  0.00  0.00    +0.000 A 
ATOM     15  C   UNL     1       1.337   8.022  20.536  0.00  0.00    +0.000 A 
BRANCH  14  16
ATOM     16  C   UNL     1      -0.153   9.696  21.688  0.00  0.00    +0.000 C 
ATOM     17  F   UNL     1      -1.028  10.704  21.418  0.00  0.00    +0.000 F 
ATOM     18  F   UNL     1      -0.897   8.689  22.226  0.00  0.00    +0.000 F 
ATOM     19  F   UNL     1       0.641  10.152  22.697  0.00  0.00    +0.000 F 
ENDBRANCH  14  16
ENDBRANCH   3  10
BRANCH   1  20
ATOM     20  C   UNL     1       5.923   4.432  18.980  0.00  0.00    +0.000 C 
BRANCH  20  25
ATOM     21  N   UNL     1       7.359   5.243  13.644  0.00  0.00    +0.000 N 
ATOM     22  C   UNL     1       6.972   5.042  14.951  0.00  0.00    +0.000 A 
ATOM     23  N   UNL     1       7.469   5.855  15.877  0.00  0.00    +0.000 NA
ATOM     24  C   UNL     1       7.102   5.600  17.144  0.00  0.00    +0.000 A 
ATOM     25  C   UNL     1       6.262   4.567  17.528  0.00  0.00    +0.000 A 
ATOM     26  C   UNL     1       5.737   3.852  16.470  0.00  0.00    +0.000 A 
ATOM     27  N   UNL     1       6.089   4.074  15.194  0.00  0.00    +0.000 NA
ATOM     28  H   UNL     1       7.617   6.210  13.508  0.00  0.00    +0.000 HD
ATOM     29  H   UNL     1       6.666   4.854  13.020  0.00  0.00    +0.000 HD
BRANCH  26  30
ATOM     30  N   UNL     1       4.733   2.904  16.616  0.00  0.00    +0.000 N 
ATOM     31  H   UNL     1       4.006   3.180  17.269  0.00  0.00    +0.000 HD
ATOM     32  H   UNL     1       5.173   2.037  16.918  0.00  0.00    +0.000 HD
ENDBRANCH  26  30
ENDBRANCH  20  25
ENDBRANCH   1  20
TORSDOF 5
ENDMDL
MODEL 5
REMARK VINA RESULT:      -9.6      0.882      1.153
REMARK  Name = 
REMARK  5 active torsions:
REMARK  status: ('A' for Active; 'I' for Inactive)
REMARK    1  A    between atoms: C_5  and  C_6
REMARK    2  A    between atoms: C_6  and  N_7
REMARK    3  A    between atoms: C_9  and  C_10
REMARK    4  A    between atoms: C_14  and  C_15
REMARK    5  A    between atoms: C_26  and  N_27
REMARK                            x       y       z     vdW  Elec       q    Type
REMARK                         _______ _______ _______ _____ _____    ______ ____
ROOT
ATOM      1  N   UNL     1       4.332   4.538  19.187  0.00  0.00    +0.000 N 
ATOM      2  C   UNL     1       4.100   5.879  18.984  0.00  0.00    +0.000 A 
ATOM      3  C   UNL     1       2.802   6.164  19.369  0.00  0.00    +0.000 A 
ATOM      4  C   UNL     1       2.235   4.938  19.856  0.00  0.00    +0.000 A 
ATOM      5  C   UNL     1       0.967   4.562  20.356  0.00  0.00    +0.000 A 
ATOM      6  C   UNL     1       0.740   3.248  20.777  0.00  0.00    +0.000 A 
ATOM      7  C   UNL     1       1.749   2.297  20.702  0.00  0.00    +0.000 A 
ATOM      8  C   UNL     1       3.000   2.628  20.183  0.00  0.00    +0.000 A 
ATOM      9  C   UNL     1       3.220   3.949  19.754  0.00  0.00    +0.000 A 
ENDROOT
BRANCH   3  10
ATOM     10  C   UNL     1       2.197   7.488  19.226  0.00  0.00    +0.000 A 
ATOM     11  C   UNL     1       2.205   8.155  17.994  0.00  0.00    +0.000 A 
ATOM     12  C   UNL     1       1.686   9.448  17.876  0.00  0.00    +0.000 A 
ATOM     13  C   UNL     1       1.134  10.085  18.985  0.00  0.00    +0.000 A 
ATOM     14  C   UNL     1       1.092   9.435  20.224  0.00  0.00    +0.000 A 
ATOM     15  C   UNL     1       1.628   8.137  20.332  0.00  0.00    +0.000 A 
BRANCH  14  16
ATOM     16  C   UNL     1       0.494  10.096  21.439  0.00  0.00    +0.000 C 
ATOM     17  F   UNL     1       0.688  11.443  21.481  0.00  0.00    +0.000 F 
ATOM     18  F   UNL     1      -0.853   9.910  21.523  0.00  0.00    +0.000 F 
ATOM     19  F   UNL     1       1.010   9.609  22.603  0.00  0.00    +0.000 F 
ENDBRANCH  14  16
ENDBRANCH   3  10
BRANCH   1  20
ATOM     20  C   UNL     1       5.517   3.821  18.715  0.00  0.00    +0.000 C 
BRANCH  20  25
ATOM     21  N   UNL     1       7.092   5.224  13.544  0.00  0.00    +0.000 N 
ATOM     22  C   UNL     1       6.730   4.856  14.821  0.00  0.00    +0.000 A 
ATOM     23  N   UNL     1       5.460   4.527  15.034  0.00  0.00    +0.000 NA
ATOM     24  C   UNL     1       5.136   4.217  16.301  0.00  0.00    +0.000 A 
ATOM     25  C   UNL     1       6.026   4.221  17.364  0.00  0.00    +0.000 A 
ATOM     26  C   UNL     1       7.330   4.487  17.001  0.00  0.00    +0.000 A 
ATOM     27  N   UNL     1       7.686   4.809  15.748  0.00  0.00    +0.000 NA
ATOM     28  H   UNL     1       6.469   4.796  12.873  0.00  0.00    +0.000 HD
ATOM     29  H   UNL     1       8.084   5.078  13.416  0.00  0.00    +0.000 HD
BRANCH  26  30
ATOM     30  N   UNL     1       8.405   4.355  17.871  0.00  0.00    +0.000 N 
ATOM     31  H   UNL     1       8.137   4.058  18.804  0.00  0.00    +0.000 HD
ATOM     32  H   UNL     1       8.882   5.253  17.905  0.00  0.00    +0.000 HD
ENDBRANCH  26  30
ENDBRANCH  20  25
ENDBRANCH   1  20
TORSDOF 5
ENDMDL
MODEL 6
REMARK VINA RESULT:      -9.4      1.252      1.543
REMARK  Name = 
REMARK  5 active torsions:
REMARK  status: ('A' for Active; 'I' for Inactive)
REMARK    1  A    between atoms: C_5  and  C_6
REMARK    2  A    between atoms: C_6  and  N_7
REMARK    3  A    between atoms: C_9  and  C_10
REMARK    4  A    between atoms: C_14  and  C_15
REMARK    5  A    between atoms: C_26  and  N_27
REMARK                            x       y       z     vdW  Elec       q    Type
REMARK                         _______ _______ _______ _____ _____    ______ ____
ROOT
ATOM      1  N   UNL     1       4.769   4.721  18.769  0.00  0.00    +0.000 N 
ATOM      2  C   UNL     1       4.390   6.036  18.911  0.00  0.00    +0.000 A 
ATOM      3  C   UNL     1       3.013   6.086  19.035  0.00  0.00    +0.000 A 
ATOM      4  C   UNL     1       2.544   4.729  18.994  0.00  0.00    +0.000 A 
ATOM      5  C   UNL     1       1.269   4.119  19.042  0.00  0.00    +0.000 A 
ATOM      6  C   UNL     1       1.154   2.726  18.997  0.00  0.00    +0.000 A 
ATOM      7  C   UNL     1       2.286   1.927  18.898  0.00  0.00    +0.000 A 
ATOM      8  C   UNL     1       3.555   2.499  18.817  0.00  0.00    +0.000 A 
ATOM      9  C   UNL     1       3.663   3.901  18.854  0.00  0.00    +0.000 A 
ENDROOT
BRANCH   3  10
ATOM     10  C   UNL     1       2.263   7.337  19.138  0.00  0.00    +0.000 A 
ATOM     11  C   UNL     1       2.126   8.188  18.034  0.00  0.00    +0.000 A 
ATOM     12  C   UNL     1       1.466   9.415  18.152  0.00  0.00    +0.000 A 
ATOM     13  C   UNL     1       0.917   9.800  19.373  0.00  0.00    +0.000 A 
ATOM     14  C   UNL     1       1.018   8.959  20.489  0.00  0.00    +0.000 A 
ATOM     15  C   UNL     1       1.695   7.731  20.358  0.00  0.00    +0.000 A 
BRANCH  14  16
ATOM     16  C   UNL     1       0.427   9.345  21.820  0.00  0.00    +0.000 C 
ATOM     17  F   UNL     1       1.280   9.175  22.868  0.00  0.00    +0.000 F 
ATOM     18  F   UNL     1       0.043  10.652  21.859  0.00  0.00    +0.000 F 
ATOM     19  F   UNL     1      -0.686   8.621  22.125  0.00  0.00    +0.000 F 
ENDBRANCH  14  16
ENDBRANCH   3  10
BRANCH   1  20
ATOM     20  C   UNL     1       6.119   4.281  18.412  0.00  0.00    +0.000 C 
BRANCH  20  25
ATOM     21  N   UNL     1       7.734   5.467  13.199  0.00  0.00    +0.000 N 
ATOM     22  C   UNL     1       7.304   5.167  14.473  0.00  0.00    +0.000 A 
ATOM     23  N   UNL     1       7.584   6.035  15.441  0.00  0.00    +0.000 NA
ATOM     24  C   UNL     1       7.187   5.687  16.677  0.00  0.00    +0.000 A 
ATOM     25  C   UNL     1       6.523   4.511  16.988  0.00  0.00    +0.000 A 
ATOM     26  C   UNL     1       6.207   3.739  15.888  0.00  0.00    +0.000 A 
ATOM     27  N   UNL     1       6.597   4.052  14.643  0.00  0.00    +0.000 NA
ATOM     28  H   UNL     1       7.822   6.468  13.093  0.00  0.00    +0.000 HD
ATOM     29  H   UNL     1       7.166   4.975  12.524  0.00  0.00    +0.000 HD
BRANCH  26  30
ATOM     30  N   UNL     1       5.384   2.623  15.953  0.00  0.00    +0.000 N 
ATOM     31  H   UNL     1       5.224   2.291  16.899  0.00  0.00    +0.000 HD
ATOM     32  H   UNL     1       5.812   1.894  15.386  0.00  0.00    +0.000 HD
ENDBRANCH  26  30
ENDBRANCH  20  25
ENDBRANCH   1  20
TORSDOF 5
ENDMDL
MODEL 7
REMARK VINA RESULT:      -9.1      1.830      2.396
REMARK  Name = 
REMARK  5 active torsions:
REMARK  status: ('A' for Active; 'I' for Inactive)
REMARK    1  A    between atoms: C_5  and  C_6
REMARK    2  A    between atoms: C_6  and  N_7
REMARK    3  A    between atoms: C_9  and  C_10
REMARK    4  A    between atoms: C_14  and  C_15
REMARK    5  A    between atoms: C_26  and  N_27
REMARK                            x       y       z     vdW  Elec       q    Type
REMARK                         _______ _______ _______ _____ _____    ______ ____
ROOT
ATOM      1  N   UNL     1       4.567   4.521  19.155  0.00  0.00    +0.000 N 
ATOM      2  C   UNL     1       4.191   5.789  19.535  0.00  0.00    +0.000 A 
ATOM      3  C   UNL     1       2.813   5.826  19.645  0.00  0.00    +0.000 A 
ATOM      4  C   UNL     1       2.338   4.504  19.345  0.00  0.00    +0.000 A 
ATOM      5  C   UNL     1       1.059   3.906  19.258  0.00  0.00    +0.000 A 
ATOM      6  C   UNL     1       0.939   2.547  18.952  0.00  0.00    +0.000 A 
ATOM      7  C   UNL     1       2.068   1.772  18.723  0.00  0.00    +0.000 A 
ATOM      8  C   UNL     1       3.341   2.339  18.768  0.00  0.00    +0.000 A 
ATOM      9  C   UNL     1       3.455   3.708  19.068  0.00  0.00    +0.000 A 
ENDROOT
BRANCH   3  10
ATOM     10  C   UNL     1       2.067   7.042  19.969  0.00  0.00    +0.000 A 
ATOM     11  C   UNL     1       1.411   7.178  21.199  0.00  0.00    +0.000 A 
ATOM     12  C   UNL     1       0.643   8.313  21.479  0.00  0.00    +0.000 A 
ATOM     13  C   UNL     1       0.538   9.337  20.541  0.00  0.00    +0.000 A 
ATOM     14  C   UNL     1       1.203   9.239  19.312  0.00  0.00    +0.000 A 
ATOM     15  C   UNL     1       1.963   8.086  19.038  0.00  0.00    +0.000 A 
BRANCH  14  16
ATOM     16  C   UNL     1       1.114  10.334  18.281  0.00  0.00    +0.000 C 
ATOM     17  F   UNL     1       2.197  10.398  17.456  0.00  0.00    +0.000 F 
ATOM     18  F   UNL     1       0.031  10.194  17.466  0.00  0.00    +0.000 F 
ATOM     19  F   UNL     1       1.000  11.570  18.842  0.00  0.00    +0.000 F 
ENDBRANCH  14  16
ENDBRANCH   3  10
BRANCH   1  20
ATOM     20  C   UNL     1       5.919   4.145  18.742  0.00  0.00    +0.000 C 
BRANCH  20  25
ATOM     21  N   UNL     1       7.289   5.367  13.467  0.00  0.00    +0.000 N 
ATOM     22  C   UNL     1       6.984   5.072  14.777  0.00  0.00    +0.000 A 
ATOM     23  N   UNL     1       6.328   3.941  15.022  0.00  0.00    +0.000 NA
ATOM     24  C   UNL     1       6.010   3.710  16.307  0.00  0.00    +0.000 A 
ATOM     25  C   UNL     1       6.317   4.559  17.358  0.00  0.00    +0.000 A 
ATOM     26  C   UNL     1       7.079   5.650  16.992  0.00  0.00    +0.000 A 
ATOM     27  N   UNL     1       7.406   5.916  15.718  0.00  0.00    +0.000 NA
ATOM     28  H   UNL     1       7.356   4.513  12.930  0.00  0.00    +0.000 HD
ATOM     29  H   UNL     1       8.076   5.999  13.435  0.00  0.00    +0.000 HD
BRANCH  26  30
ATOM     30  N   UNL     1       7.654   6.519  17.910  0.00  0.00    +0.000 N 
ATOM     31  H   UNL     1       7.048   6.741  18.693  0.00  0.00    +0.000 HD
ATOM     32  H   UNL     1       7.912   7.366  17.408  0.00  0.00    +0.000 HD
ENDBRANCH  26  30
ENDBRANCH  20  25
ENDBRANCH   1  20
TORSDOF 5
ENDMDL
MODEL 8
REMARK VINA RESULT:      -9.0      5.399      8.498
REMARK  Name = 
REMARK  5 active torsions:
REMARK  status: ('A' for Active; 'I' for Inactive)
REMARK    1  A    between atoms: C_5  and  C_6
REMARK    2  A    between atoms: C_6  and  N_7
REMARK    3  A    between atoms: C_9  and  C_10
REMARK    4  A    between atoms: C_14  and  C_15
REMARK    5  A    between atoms: C_26  and  N_27
REMARK                            x       y       z     vdW  Elec       q    Type
REMARK                         _______ _______ _______ _____ _____    ______ ____
ROOT
ATOM      1  N   UNL     1       4.049   4.849  17.217  0.00  0.00    +0.000 N 
ATOM      2  C   UNL     1       4.283   4.546  15.895  0.00  0.00    +0.000 A 
ATOM      3  C   UNL     1       5.647   4.585  15.669  0.00  0.00    +0.000 A 
ATOM      4  C   UNL     1       6.267   4.899  16.927  0.00  0.00    +0.000 A 
ATOM      5  C   UNL     1       7.600   5.106  17.350  0.00  0.00    +0.000 A 
ATOM      6  C   UNL     1       7.875   5.387  18.692  0.00  0.00    +0.000 A 
ATOM      7  C   UNL     1       6.845   5.473  19.621  0.00  0.00    +0.000 A 
ATOM      8  C   UNL     1       5.518   5.307  19.229  0.00  0.00    +0.000 A 
ATOM      9  C   UNL     1       5.247   5.033  17.876  0.00  0.00    +0.000 A 
ENDROOT
BRANCH   3  10
ATOM     10  C   UNL     1       6.247   4.375  14.352  0.00  0.00    +0.000 A 
ATOM     11  C   UNL     1       7.252   5.225  13.875  0.00  0.00    +0.000 A 
ATOM     12  C   UNL     1       7.777   5.064  12.588  0.00  0.00    +0.000 A 
ATOM     13  C   UNL     1       7.317   4.036  11.769  0.00  0.00    +0.000 A 
ATOM     14  C   UNL     1       6.329   3.156  12.228  0.00  0.00    +0.000 A 
ATOM     15  C   UNL     1       5.801   3.337  13.521  0.00  0.00    +0.000 A 
BRANCH  14  16
ATOM     16  C   UNL     1       5.817   2.030  11.367  0.00  0.00    +0.000 C 
ATOM     17  F   UNL     1       6.601   1.768  10.284  0.00  0.00    +0.000 F 
ATOM     18  F   UNL     1       5.721   0.855  12.051  0.00  0.00    +0.000 F 
ATOM     19  F   UNL     1       4.571   2.276  10.873  0.00  0.00    +0.000 F 
ENDBRANCH  14  16
ENDBRANCH   3  10
BRANCH   1  20
ATOM     20  C   UNL     1       2.726   5.105  17.788  0.00  0.00    +0.000 C 
BRANCH  20  25
ATOM     21  N   UNL     1       1.386   2.200  22.365  0.00  0.00    +0.000 N 
ATOM     22  C   UNL     1       1.739   2.892  21.228  0.00  0.00    +0.000 A 
ATOM     23  N   UNL     1       2.016   4.187  21.352  0.00  0.00    +0.000 NA
ATOM     24  C   UNL     1       2.314   4.837  20.214  0.00  0.00    +0.000 A 
ATOM     25  C   UNL     1       2.346   4.251  18.958  0.00  0.00    +0.000 A 
ATOM     26  C   UNL     1       2.134   2.887  18.972  0.00  0.00    +0.000 A 
ATOM     27  N   UNL     1       1.825   2.209  20.088  0.00  0.00    +0.000 NA
ATOM     28  H   UNL     1       1.787   2.647  23.178  0.00  0.00    +0.000 HD
ATOM     29  H   UNL     1       1.571   1.215  22.236  0.00  0.00    +0.000 HD
BRANCH  26  30
ATOM     30  N   UNL     1       2.309   2.078  17.857  0.00  0.00    +0.000 N 
ATOM     31  H   UNL     1       2.382   2.597  16.987  0.00  0.00    +0.000 HD
ATOM     32  H   UNL     1       1.524   1.431  17.822  0.00  0.00    +0.000 HD
ENDBRANCH  26  30
ENDBRANCH  20  25
ENDBRANCH   1  20
TORSDOF 5
ENDMDL
MODEL 9
REMARK VINA RESULT:      -8.9      5.372      8.487
REMARK  Name = 
REMARK  5 active torsions:
REMARK  status: ('A' for Active; 'I' for Inactive)
REMARK    1  A    between atoms: C_5  and  C_6
REMARK    2  A    between atoms: C_6  and  N_7
REMARK    3  A    between atoms: C_9  and  C_10
REMARK    4  A    between atoms: C_14  and  C_15
REMARK    5  A    between atoms: C_26  and  N_27
REMARK                            x       y       z     vdW  Elec       q    Type
REMARK                         _______ _______ _______ _____ _____    ______ ____
ROOT
ATOM      1  N   UNL     1       4.079   4.920  17.211  0.00  0.00    +0.000 N 
ATOM      2  C   UNL     1       4.304   4.618  15.887  0.00  0.00    +0.000 A 
ATOM      3  C   UNL     1       5.669   4.618  15.661  0.00  0.00    +0.000 A 
ATOM      4  C   UNL     1       6.297   4.907  16.920  0.00  0.00    +0.000 A 
ATOM      5  C   UNL     1       7.636   5.072  17.345  0.00  0.00    +0.000 A 
ATOM      6  C   UNL     1       7.919   5.337  18.688  0.00  0.00    +0.000 A 
ATOM      7  C   UNL     1       6.893   5.448  19.618  0.00  0.00    +0.000 A 
ATOM      8  C   UNL     1       5.561   5.323  19.225  0.00  0.00    +0.000 A 
ATOM      9  C   UNL     1       5.282   5.065  17.871  0.00  0.00    +0.000 A 
ENDROOT
BRANCH   3  10
ATOM     10  C   UNL     1       6.262   4.399  14.342  0.00  0.00    +0.000 A 
ATOM     11  C   UNL     1       7.272   5.239  13.858  0.00  0.00    +0.000 A 
ATOM     12  C   UNL     1       7.791   5.068  12.571  0.00  0.00    +0.000 A 
ATOM     13  C   UNL     1       7.320   4.041  11.757  0.00  0.00    +0.000 A 
ATOM     14  C   UNL     1       6.326   3.171  12.223  0.00  0.00    +0.000 A 
ATOM     15  C   UNL     1       5.805   3.361  13.517  0.00  0.00    +0.000 A 
BRANCH  14  16
ATOM     16  C   UNL     1       5.802   2.046  11.368  0.00  0.00    +0.000 C 
ATOM     17  F   UNL     1       4.562   2.279  10.855  0.00  0.00    +0.000 F 
ATOM     18  F   UNL     1       6.606   1.787  10.299  0.00  0.00    +0.000 F 
ATOM     19  F   UNL     1       5.706   0.872  12.054  0.00  0.00    +0.000 F 
ENDBRANCH  14  16
ENDBRANCH   3  10
BRANCH   1  20
ATOM     20  C   UNL     1       2.764   5.211  17.783  0.00  0.00    +0.000 C 
BRANCH  20  25
ATOM     21  N   UNL     1       1.461   2.232  22.324  0.00  0.00    +0.000 N 
ATOM     22  C   UNL     1       1.758   2.989  21.213  0.00  0.00    +0.000 A 
ATOM     23  N   UNL     1       1.826   2.368  20.039  0.00  0.00    +0.000 NA
ATOM     24  C   UNL     1       2.162   3.133  18.986  0.00  0.00    +0.000 A 
ATOM     25  C   UNL     1       2.434   4.491  19.054  0.00  0.00    +0.000 A 
ATOM     26  C   UNL     1       2.239   5.038  20.306  0.00  0.00    +0.000 A 
ATOM     27  N   UNL     1       1.913   4.302  21.380  0.00  0.00    +0.000 NA
ATOM     28  H   UNL     1       0.929   1.417  22.051  0.00  0.00    +0.000 HD
ATOM     29  H   UNL     1       1.071   2.823  23.044  0.00  0.00    +0.000 HD
BRANCH  26  30
ATOM     30  N   UNL     1       2.270   6.404  20.553  0.00  0.00    +0.000 N 
ATOM     31  H   UNL     1       2.561   6.955  19.751  0.00  0.00    +0.000 HD
ATOM     32  H   UNL     1       2.898   6.558  21.339  0.00  0.00    +0.000 HD
ENDBRANCH  26  30
ENDBRANCH  20  25
ENDBRANCH   1  20
TORSDOF 5
ENDMDL
