MODEL 1
REMARK VINA RESULT:      -8.4      0.000      0.000
REMARK  Name = 
REMARK  8 active torsions:
REMARK  status: ('A' for Active; 'I' for Inactive)
REMARK    1  A    between atoms: C_1  and  C_2
REMARK    2  A    between atoms: C_2  and  C_4
REMARK    3  A    between atoms: C_5  and  O_6
REMARK    4  A    between atoms: C_8  and  O_9
REMARK    5  A    between atoms: C_8  and  N_10
REMARK    6  A    between atoms: N_10  and  C_11
REMARK    7  A    between atoms: C_16  and  C_17
REMARK    8  A    between atoms: C_20  and  C_21
REMARK                            x       y       z     vdW  Elec       q    Type
REMARK                         _______ _______ _______ _____ _____    ______ ____
ROOT
ATOM      1  C   UNL     1       0.035  11.779  19.851  0.00  0.00    +0.000 C 
ATOM      2  C   UNL     1       0.890  11.042  19.125  0.00  0.00    +0.000 C 
ATOM      3  C   UNL     1       1.140   9.641  19.437  0.00  0.00    +0.000 C 
ATOM      4  C   UNL     1       1.720   8.770  18.565  0.00  0.00    +0.000 C 
ATOM      5  C   UNL     1       0.804   9.219  20.822  0.00  0.00    +0.000 C 
ATOM      6  O   UNL     1       1.364   8.300  21.409  0.00  0.00    +0.000 OA
ATOM      7  O   UNL     1      -0.104   9.976  21.488  0.00  0.00    +0.000 OA
ATOM      8  C   UNL     1      -0.541  11.174  21.061  0.00  0.00    +0.000 C 
ATOM      9  O   UNL     1      -1.380  11.784  21.719  0.00  0.00    +0.000 OA
ENDROOT
BRANCH   1  11
ATOM     10  C   UNL     1       0.043  14.389  20.096  0.00  0.00    +0.000 C 
ATOM     11  C   UNL     1      -0.337  13.145  19.342  0.00  0.00    +0.000 C 
ATOM     12  O   UNL     1      -0.981  13.243  18.289  0.00  0.00    +0.000 OA
ENDBRANCH   1  11
BRANCH   2  13
ATOM     13  O   UNL     1       1.541  11.515  17.989  0.00  0.00    +0.000 OA
ATOM     14  H   UNL     1       2.480  11.201  17.998  0.00  0.00    +0.000 HD
ENDBRANCH   2  13
BRANCH   4  15
ATOM     15  O   UNL     1       2.381   9.237  17.438  0.00  0.00    +0.000 OA
ATOM     16  H   UNL     1       2.839  10.070  17.676  0.00  0.00    +0.000 HD
ENDBRANCH   4  15
BRANCH   4  17
ATOM     17  N   UNL     1       1.891   7.416  18.624  0.00  0.00    +0.000 N 
ATOM     18  H   UNL     1       1.114   6.959  19.093  0.00  0.00    +0.000 HD
BRANCH  17  19
ATOM     19  C   UNL     1       2.991   6.579  18.381  0.00  0.00    +0.000 A 
ATOM     20  C   UNL     1       3.706   6.215  19.520  0.00  0.00    +0.000 A 
ATOM     21  C   UNL     1       4.748   5.317  19.430  0.00  0.00    +0.000 A 
ATOM     22  C   UNL     1       5.220   4.915  18.178  0.00  0.00    +0.000 A 
ATOM     23  O   UNL     1       6.286   4.012  18.245  0.00  0.00    +0.000 OA
ATOM     24  C   UNL     1       7.437   4.687  17.997  0.00  0.00    +0.000 A 
ATOM     25  C   UNL     1       7.876   5.763  18.943  0.00  0.00    +0.000 C 
ATOM     26  N   UNL     1       7.943   4.607  16.817  0.00  0.00    +0.000 NA
ATOM     27  O   UNL     1       7.389   5.723  16.158  0.00  0.00    +0.000 OA
ATOM     28  C   UNL     1       6.426   5.201  15.335  0.00  0.00    +0.000 A 
ATOM     29  C   UNL     1       7.129   4.730  14.073  0.00  0.00    +0.000 C 
ATOM     30  N   UNL     1       5.167   5.057  15.653  0.00  0.00    +0.000 NA
ATOM     31  C   UNL     1       4.654   5.398  16.953  0.00  0.00    +0.000 A 
ATOM     32  C   UNL     1       3.479   6.181  17.105  0.00  0.00    +0.000 A 
ENDBRANCH  17  19
ENDBRANCH   4  17
TORSDOF 5
ENDMDL
MODEL 2
REMARK VINA RESULT:      -8.3      2.276      2.944
REMARK  Name = 
REMARK  8 active torsions:
REMARK  status: ('A' for Active; 'I' for Inactive)
REMARK    1  A    between atoms: C_1  and  C_2
REMARK    2  A    between atoms: C_2  and  C_4
REMARK    3  A    between atoms: C_5  and  O_6
REMARK    4  A    between atoms: C_8  and  O_9
REMARK    5  A    between atoms: C_8  and  N_10
REMARK    6  A    between atoms: N_10  and  C_11
REMARK    7  A    between atoms: C_16  and  C_17
REMARK    8  A    between atoms: C_20  and  C_21
REMARK                            x       y       z     vdW  Elec       q    Type
REMARK                         _______ _______ _______ _____ _____    ______ ____
ROOT
ATOM      1  C   UNL     1      -1.524  11.953  21.457  0.00  0.00    +0.000 C 
ATOM      2  C   UNL     1      -0.524  11.348  20.795  0.00  0.00    +0.000 C 
ATOM      3  C   UNL     1       0.189  10.214  21.366  0.00  0.00    +0.000 C 
ATOM      4  C   UNL     1       0.963   9.367  20.631  0.00  0.00    +0.000 C 
ATOM      5  C   UNL     1       0.102  10.075  22.843  0.00  0.00    +0.000 C 
ATOM      6  O   UNL     1       0.969   9.546  23.530  0.00  0.00    +0.000 OA
ATOM      7  O   UNL     1      -0.957  10.667  23.451  0.00  0.00    +0.000 OA
ATOM      8  C   UNL     1      -1.789  11.529  22.841  0.00  0.00    +0.000 C 
ATOM      9  O   UNL     1      -2.735  12.003  23.462  0.00  0.00    +0.000 OA
ENDROOT
BRANCH   1  11
ATOM     10  C   UNL     1      -3.708  12.618  20.170  0.00  0.00    +0.000 C 
ATOM     11  C   UNL     1      -2.354  12.968  20.722  0.00  0.00    +0.000 C 
ATOM     12  O   UNL     1      -1.905  14.110  20.556  0.00  0.00    +0.000 OA
ENDBRANCH   1  11
BRANCH   2  13
ATOM     13  O   UNL     1      -0.140  11.692  19.502  0.00  0.00    +0.000 OA
ATOM     14  H   UNL     1       0.593  11.096  19.210  0.00  0.00    +0.000 HD
ENDBRANCH   2  13
BRANCH   4  15
ATOM     15  O   UNL     1       1.359   9.711  19.346  0.00  0.00    +0.000 OA
ATOM     16  H   UNL     1       1.918   8.987  18.995  0.00  0.00    +0.000 HD
ENDBRANCH   4  15
BRANCH   4  17
ATOM     17  N   UNL     1       1.569   8.189  20.958  0.00  0.00    +0.000 N 
ATOM     18  H   UNL     1       2.065   8.254  21.844  0.00  0.00    +0.000 HD
BRANCH  17  19
ATOM     19  C   UNL     1       1.831   7.014  20.236  0.00  0.00    +0.000 A 
ATOM     20  C   UNL     1       1.378   5.845  20.843  0.00  0.00    +0.000 A 
ATOM     21  C   UNL     1       1.484   4.636  20.191  0.00  0.00    +0.000 A 
ATOM     22  C   UNL     1       2.218   4.541  19.006  0.00  0.00    +0.000 A 
ATOM     23  O   UNL     1       2.245   3.251  18.466  0.00  0.00    +0.000 OA
ATOM     24  C   UNL     1       3.444   2.688  18.762  0.00  0.00    +0.000 A 
ATOM     25  C   UNL     1       3.805   2.437  20.195  0.00  0.00    +0.000 C 
ATOM     26  N   UNL     1       4.349   2.677  17.848  0.00  0.00    +0.000 NA
ATOM     27  O   UNL     1       5.074   3.858  18.105  0.00  0.00    +0.000 OA
ATOM     28  C   UNL     1       4.678   4.732  17.127  0.00  0.00    +0.000 A 
ATOM     29  C   UNL     1       5.507   4.421  15.893  0.00  0.00    +0.000 C 
ATOM     30  N   UNL     1       3.696   5.586  17.240  0.00  0.00    +0.000 NA
ATOM     31  C   UNL     1       2.875   5.671  18.417  0.00  0.00    +0.000 A 
ATOM     32  C   UNL     1       2.589   6.917  19.035  0.00  0.00    +0.000 A 
ENDBRANCH  17  19
ENDBRANCH   4  17
TORSDOF 5
ENDMDL
MODEL 3
REMARK VINA RESULT:      -8.2      2.648      3.917
REMARK  Name = 
REMARK  8 active torsions:
REMARK  status: ('A' for Active; 'I' for Inactive)
REMARK    1  A    between atoms: C_1  and  C_2
REMARK    2  A    between atoms: C_2  and  C_4
REMARK    3  A    between atoms: C_5  and  O_6
REMARK    4  A    between atoms: C_8  and  O_9
REMARK    5  A    between atoms: C_8  and  N_10
REMARK    6  A    between atoms: N_10  and  C_11
REMARK    7  A    between atoms: C_16  and  C_17
REMARK    8  A    between atoms: C_20  and  C_21
REMARK                            x       y       z     vdW  Elec       q    Type
REMARK                         _______ _______ _______ _____ _____    ______ ____
ROOT
ATOM      1  C   UNL     1       1.183  14.109  19.649  0.00  0.00    +0.000 C 
ATOM      2  C   UNL     1       1.613  13.049  18.945  0.00  0.00    +0.000 C 
ATOM      3  C   UNL     1       1.361  11.686  19.394  0.00  0.00    +0.000 C 
ATOM      4  C   UNL     1       1.470  10.596  18.583  0.00  0.00    +0.000 C 
ATOM      5  C   UNL     1       1.056  11.529  20.840  0.00  0.00    +0.000 C 
ATOM      6  O   UNL     1       1.300  10.513  21.482  0.00  0.00    +0.000 OA
ATOM      7  O   UNL     1       0.578  12.623  21.486  0.00  0.00    +0.000 OA
ATOM      8  C   UNL     1       0.569  13.861  20.962  0.00  0.00    +0.000 C 
ATOM      9  O   UNL     1       0.098  14.792  21.610  0.00  0.00    +0.000 OA
ENDROOT
BRANCH   1  11
ATOM     10  C   UNL     1       0.065  16.203  18.536  0.00  0.00    +0.000 C 
ATOM     11  C   UNL     1       1.287  15.470  19.019  0.00  0.00    +0.000 C 
ATOM     12  O   UNL     1       2.402  15.990  18.884  0.00  0.00    +0.000 OA
ENDBRANCH   1  11
BRANCH   2  13
ATOM     13  O   UNL     1       2.256  13.152  17.715  0.00  0.00    +0.000 OA
ATOM     14  H   UNL     1       2.587  12.259  17.445  0.00  0.00    +0.000 HD
ENDBRANCH   2  13
BRANCH   4  15
ATOM     15  O   UNL     1       2.121  10.691  17.362  0.00  0.00    +0.000 OA
ATOM     16  H   UNL     1       2.221   9.786  16.998  0.00  0.00    +0.000 HD
ENDBRANCH   4  15
BRANCH   4  17
ATOM     17  N   UNL     1       1.133   9.289  18.782  0.00  0.00    +0.000 N 
ATOM     18  H   UNL     1       0.148   9.184  19.012  0.00  0.00    +0.000 HD
BRANCH  17  19
ATOM     19  C   UNL     1       1.892   8.120  18.953  0.00  0.00    +0.000 A 
ATOM     20  C   UNL     1       2.788   7.853  17.920  0.00  0.00    +0.000 A 
ATOM     21  C   UNL     1       3.661   6.791  18.015  0.00  0.00    +0.000 A 
ATOM     22  C   UNL     1       3.526   5.862  19.049  0.00  0.00    +0.000 A 
ATOM     23  O   UNL     1       4.475   4.837  19.008  0.00  0.00    +0.000 OA
ATOM     24  C   UNL     1       3.885   3.726  18.497  0.00  0.00    +0.000 A 
ATOM     25  C   UNL     1       3.380   3.745  17.087  0.00  0.00    +0.000 C 
ATOM     26  N   UNL     1       3.497   2.815  19.319  0.00  0.00    +0.000 NA
ATOM     27  O   UNL     1       2.153   3.163  19.567  0.00  0.00    +0.000 OA
ATOM     28  C   UNL     1       2.161   3.714  20.822  0.00  0.00    +0.000 A 
ATOM     29  C   UNL     1       2.108   2.564  21.811  0.00  0.00    +0.000 C 
ATOM     30  N   UNL     1       2.295   4.988  21.079  0.00  0.00    +0.000 NA
ATOM     31  C   UNL     1       2.502   5.968  20.047  0.00  0.00    +0.000 A 
ATOM     32  C   UNL     1       1.744   7.169  20.001  0.00  0.00    +0.000 A 
ENDBRANCH  17  19
ENDBRANCH   4  17
TORSDOF 5
ENDMDL
MODEL 4
REMARK VINA RESULT:      -8.1      2.950      4.361
REMARK  Name = 
REMARK  8 active torsions:
REMARK  status: ('A' for Active; 'I' for Inactive)
REMARK    1  A    between atoms: C_1  and  C_2
REMARK    2  A    between atoms: C_2  and  C_4
REMARK    3  A    between atoms: C_5  and  O_6
REMARK    4  A    between atoms: C_8  and  O_9
REMARK    5  A    between atoms: C_8  and  N_10
REMARK    6  A    between atoms: N_10  and  C_11
REMARK    7  A    between atoms: C_16  and  C_17
REMARK    8  A    between atoms: C_20  and  C_21
REMARK                            x       y       z     vdW  Elec       q    Type
REMARK                         _______ _______ _______ _____ _____    ______ ____
ROOT
ATOM      1  C   UNL     1      -2.968  11.550  18.453  0.00  0.00    +0.000 C 
ATOM      2  C   UNL     1      -1.934  10.893  17.903  0.00  0.00    +0.000 C 
ATOM      3  C   UNL     1      -0.671  10.736  18.611  0.00  0.00    +0.000 C 
ATOM      4  C   UNL     1       0.276   9.820  18.263  0.00  0.00    +0.000 C 
ATOM      5  C   UNL     1      -0.420  11.708  19.707  0.00  0.00    +0.000 C 
ATOM      6  O   UNL     1       0.699  12.059  20.063  0.00  0.00    +0.000 OA
ATOM      7  O   UNL     1      -1.509  12.304  20.256  0.00  0.00    +0.000 OA
ATOM      8  C   UNL     1      -2.747  12.231  19.738  0.00  0.00    +0.000 C 
ATOM      9  O   UNL     1      -3.680  12.786  20.312  0.00  0.00    +0.000 OA
ENDROOT
BRANCH   1  11
ATOM     10  C   UNL     1      -5.491  10.839  18.416  0.00  0.00    +0.000 C 
ATOM     11  C   UNL     1      -4.301  11.485  17.761  0.00  0.00    +0.000 C 
ATOM     12  O   UNL     1      -4.416  11.962  16.624  0.00  0.00    +0.000 OA
ENDBRANCH   1  11
BRANCH   2  13
ATOM     13  O   UNL     1      -1.998  10.253  16.669  0.00  0.00    +0.000 OA
ATOM     14  H   UNL     1      -2.832   9.722  16.621  0.00  0.00    +0.000 HD
ENDBRANCH   2  13
BRANCH   4  15
ATOM     15  O   UNL     1       0.223   9.188  17.029  0.00  0.00    +0.000 OA
ATOM     16  H   UNL     1       0.084   8.230  17.182  0.00  0.00    +0.000 HD
ENDBRANCH   4  15
BRANCH   4  17
ATOM     17  N   UNL     1       1.426   9.432  18.887  0.00  0.00    +0.000 N 
ATOM     18  H   UNL     1       2.003  10.229  19.143  0.00  0.00    +0.000 HD
BRANCH  17  19
ATOM     19  C   UNL     1       2.061   8.189  19.036  0.00  0.00    +0.000 A 
ATOM     20  C   UNL     1       2.942   7.859  18.007  0.00  0.00    +0.000 A 
ATOM     21  C   UNL     1       3.703   6.713  18.084  0.00  0.00    +0.000 A 
ATOM     22  C   UNL     1       3.460   5.776  19.092  0.00  0.00    +0.000 A 
ATOM     23  O   UNL     1       4.302   4.662  19.035  0.00  0.00    +0.000 OA
ATOM     24  C   UNL     1       3.610   3.629  18.488  0.00  0.00    +0.000 A 
ATOM     25  C   UNL     1       3.131   3.734  17.072  0.00  0.00    +0.000 C 
ATOM     26  N   UNL     1       3.121   2.742  19.280  0.00  0.00    +0.000 NA
ATOM     27  O   UNL     1       1.816   3.217  19.521  0.00  0.00    +0.000 OA
ATOM     28  C   UNL     1       1.860   3.732  20.790  0.00  0.00    +0.000 A 
ATOM     29  C   UNL     1       1.677   2.568  21.748  0.00  0.00    +0.000 C 
ATOM     30  N   UNL     1       2.118   4.980  21.082  0.00  0.00    +0.000 NA
ATOM     31  C   UNL     1       2.437   5.959  20.080  0.00  0.00    +0.000 A 
ATOM     32  C   UNL     1       1.804   7.231  20.056  0.00  0.00    +0.000 A 
ENDBRANCH  17  19
ENDBRANCH   4  17
TORSDOF 5
ENDMDL
MODEL 5
REMARK VINA RESULT:      -7.9      2.217      9.059
REMARK  Name = 
REMARK  8 active torsions:
REMARK  status: ('A' for Active; 'I' for Inactive)
REMARK    1  A    between atoms: C_1  and  C_2
REMARK    2  A    between atoms: C_2  and  C_4
REMARK    3  A    between atoms: C_5  and  O_6
REMARK    4  A    between atoms: C_8  and  O_9
REMARK    5  A    between atoms: C_8  and  N_10
REMARK    6  A    between atoms: N_10  and  C_11
REMARK    7  A    between atoms: C_16  and  C_17
REMARK    8  A    between atoms: C_20  and  C_21
REMARK                            x       y       z     vdW  Elec       q    Type
REMARK                         _______ _______ _______ _____ _____    ______ ____
ROOT
ATOM      1  C   UNL     1       6.169   4.464  14.254  0.00  0.00    +0.000 C 
ATOM      2  C   UNL     1       5.278   4.321  15.248  0.00  0.00    +0.000 C 
ATOM      3  C   UNL     1       5.317   5.169  16.432  0.00  0.00    +0.000 C 
ATOM      4  C   UNL     1       4.272   5.300  17.297  0.00  0.00    +0.000 C 
ATOM      5  C   UNL     1       6.618   5.835  16.705  0.00  0.00    +0.000 C 
ATOM      6  O   UNL     1       6.999   6.151  17.827  0.00  0.00    +0.000 OA
ATOM      7  O   UNL     1       7.456   5.995  15.650  0.00  0.00    +0.000 OA
ATOM      8  C   UNL     1       7.277   5.410  14.453  0.00  0.00    +0.000 C 
ATOM      9  O   UNL     1       8.076   5.626  13.546  0.00  0.00    +0.000 OA
ENDROOT
BRANCH   1  11
ATOM     10  C   UNL     1       7.081   3.121  12.196  0.00  0.00    +0.000 C 
ATOM     11  C   UNL     1       5.936   3.707  12.976  0.00  0.00    +0.000 C 
ATOM     12  O   UNL     1       4.781   3.577  12.552  0.00  0.00    +0.000 OA
ENDBRANCH   1  11
BRANCH   2  13
ATOM     13  O   UNL     1       4.215   3.423  15.205  0.00  0.00    +0.000 OA
ATOM     14  H   UNL     1       4.354   2.790  14.458  0.00  0.00    +0.000 HD
ENDBRANCH   2  13
BRANCH   4  15
ATOM     15  O   UNL     1       3.217   4.400  17.266  0.00  0.00    +0.000 OA
ATOM     16  H   UNL     1       2.438   4.856  16.884  0.00  0.00    +0.000 HD
ENDBRANCH   4  15
BRANCH   4  17
ATOM     17  N   UNL     1       4.076   6.146  18.350  0.00  0.00    +0.000 N 
ATOM     18  H   UNL     1       4.696   5.932  19.126  0.00  0.00    +0.000 HD
BRANCH  17  19
ATOM     19  C   UNL     1       3.068   7.074  18.656  0.00  0.00    +0.000 A 
ATOM     20  C   UNL     1       2.863   8.051  17.683  0.00  0.00    +0.000 A 
ATOM     21  C   UNL     1       1.837   8.961  17.816  0.00  0.00    +0.000 A 
ATOM     22  C   UNL     1       1.119   9.038  19.012  0.00  0.00    +0.000 A 
ATOM     23  O   UNL     1       0.119  10.014  19.003  0.00  0.00    +0.000 OA
ATOM     24  C   UNL     1       0.567  11.095  19.691  0.00  0.00    +0.000 A 
ATOM     25  C   UNL     1       1.752  11.854  19.176  0.00  0.00    +0.000 C 
ATOM     26  N   UNL     1       0.171  11.246  20.905  0.00  0.00    +0.000 NA
ATOM     27  O   UNL     1       1.185  10.610  21.651  0.00  0.00    +0.000 OA
ATOM     28  C   UNL     1       0.632   9.422  22.052  0.00  0.00    +0.000 A 
ATOM     29  C   UNL     1      -0.185   9.712  23.298  0.00  0.00    +0.000 C 
ATOM     30  N   UNL     1       0.727   8.294  21.398  0.00  0.00    +0.000 NA
ATOM     31  C   UNL     1       1.401   8.188  20.132  0.00  0.00    +0.000 A 
ATOM     32  C   UNL     1       2.347   7.159  19.879  0.00  0.00    +0.000 A 
ENDBRANCH  17  19
ENDBRANCH   4  17
TORSDOF 5
ENDMDL
MODEL 6
REMARK VINA RESULT:      -7.9      2.671      4.009
REMARK  Name = 
REMARK  8 active torsions:
REMARK  status: ('A' for Active; 'I' for Inactive)
REMARK    1  A    between atoms: C_1  and  C_2
REMARK    2  A    between atoms: C_2  and  C_4
REMARK    3  A    between atoms: C_5  and  O_6
REMARK    4  A    between atoms: C_8  and  O_9
REMARK    5  A    between atoms: C_8  and  N_10
REMARK    6  A    between atoms: N_10  and  C_11
REMARK    7  A    between atoms: C_16  and  C_17
REMARK    8  A    between atoms: C_20  and  C_21
REMARK                            x       y       z     vdW  Elec       q    Type
REMARK                         _______ _______ _______ _____ _____    ______ ____
ROOT
ATOM      1  C   UNL     1      -0.337  12.846  20.836  0.00  0.00    +0.000 C 
ATOM      2  C   UNL     1      -0.518  11.941  19.860  0.00  0.00    +0.000 C 
ATOM      3  C   UNL     1       0.609  11.369  19.137  0.00  0.00    +0.000 C 
ATOM      4  C   UNL     1       0.523  10.232  18.391  0.00  0.00    +0.000 C 
ATOM      5  C   UNL     1       1.870  12.156  19.180  0.00  0.00    +0.000 C 
ATOM      6  O   UNL     1       2.719  12.132  18.296  0.00  0.00    +0.000 OA
ATOM      7  O   UNL     1       2.016  13.019  20.217  0.00  0.00    +0.000 OA
ATOM      8  C   UNL     1       1.025  13.354  21.061  0.00  0.00    +0.000 C 
ATOM      9  O   UNL     1       1.251  14.130  21.986  0.00  0.00    +0.000 OA
ENDROOT
BRANCH   1  11
ATOM     10  C   UNL     1      -1.695  12.681  23.072  0.00  0.00    +0.000 C 
ATOM     11  C   UNL     1      -1.521  13.227  21.681  0.00  0.00    +0.000 C 
ATOM     12  O   UNL     1      -2.374  13.994  21.217  0.00  0.00    +0.000 OA
ENDBRANCH   1  11
BRANCH   2  13
ATOM     13  O   UNL     1      -1.762  11.422  19.514  0.00  0.00    +0.000 OA
ATOM     14  H   UNL     1      -1.642  10.718  18.829  0.00  0.00    +0.000 HD
ENDBRANCH   2  13
BRANCH   4  15
ATOM     15  O   UNL     1      -0.714   9.718  18.032  0.00  0.00    +0.000 OA
ATOM     16  H   UNL     1      -0.671   8.741  18.102  0.00  0.00    +0.000 HD
ENDBRANCH   4  15
BRANCH   4  17
ATOM     17  N   UNL     1       1.486   9.480  17.782  0.00  0.00    +0.000 N 
ATOM     18  H   UNL     1       1.576   9.710  16.795  0.00  0.00    +0.000 HD
BRANCH  17  19
ATOM     19  C   UNL     1       2.193   8.332  18.173  0.00  0.00    +0.000 A 
ATOM     20  C   UNL     1       3.201   7.943  17.292  0.00  0.00    +0.000 A 
ATOM     21  C   UNL     1       4.033   6.892  17.609  0.00  0.00    +0.000 A 
ATOM     22  C   UNL     1       3.756   6.087  18.717  0.00  0.00    +0.000 A 
ATOM     23  O   UNL     1       4.680   5.055  18.905  0.00  0.00    +0.000 OA
ATOM     24  C   UNL     1       4.131   3.899  18.454  0.00  0.00    +0.000 A 
ATOM     25  C   UNL     1       3.799   3.762  16.999  0.00  0.00    +0.000 C 
ATOM     26  N   UNL     1       3.629   3.090  19.318  0.00  0.00    +0.000 NA
ATOM     27  O   UNL     1       2.273   3.474  19.362  0.00  0.00    +0.000 OA
ATOM     28  C   UNL     1       2.142   4.163  20.539  0.00  0.00    +0.000 A 
ATOM     29  C   UNL     1       1.946   3.133  21.637  0.00  0.00    +0.000 C 
ATOM     30  N   UNL     1       2.273   5.458  20.667  0.00  0.00    +0.000 NA
ATOM     31  C   UNL     1       2.622   6.313  19.565  0.00  0.00    +0.000 A 
ATOM     32  C   UNL     1       1.901   7.506  19.294  0.00  0.00    +0.000 A 
ENDBRANCH  17  19
ENDBRANCH   4  17
TORSDOF 5
ENDMDL
MODEL 7
REMARK VINA RESULT:      -7.9      2.301      3.426
REMARK  Name = 
REMARK  8 active torsions:
REMARK  status: ('A' for Active; 'I' for Inactive)
REMARK    1  A    between atoms: C_1  and  C_2
REMARK    2  A    between atoms: C_2  and  C_4
REMARK    3  A    between atoms: C_5  and  O_6
REMARK    4  A    between atoms: C_8  and  O_9
REMARK    5  A    between atoms: C_8  and  N_10
REMARK    6  A    between atoms: N_10  and  C_11
REMARK    7  A    between atoms: C_16  and  C_17
REMARK    8  A    between atoms: C_20  and  C_21
REMARK                            x       y       z     vdW  Elec       q    Type
REMARK                         _______ _______ _______ _____ _____    ______ ____
ROOT
ATOM      1  C   UNL     1       0.090  13.382  19.757  0.00  0.00    +0.000 C 
ATOM      2  C   UNL     1       0.988  12.625  19.107  0.00  0.00    +0.000 C 
ATOM      3  C   UNL     1       0.893  11.171  19.101  0.00  0.00    +0.000 C 
ATOM      4  C   UNL     1       1.554  10.380  18.211  0.00  0.00    +0.000 C 
ATOM      5  C   UNL     1       0.090  10.573  20.199  0.00  0.00    +0.000 C 
ATOM      6  O   UNL     1       0.284   9.450  20.652  0.00  0.00    +0.000 OA
ATOM      7  O   UNL     1      -0.836  11.373  20.785  0.00  0.00    +0.000 OA
ATOM      8  C   UNL     1      -0.917  12.700  20.585  0.00  0.00    +0.000 C 
ATOM      9  O   UNL     1      -1.800  13.346  21.142  0.00  0.00    +0.000 OA
ENDROOT
BRANCH   1  11
ATOM     10  C   UNL     1       0.510  15.812  20.647  0.00  0.00    +0.000 C 
ATOM     11  C   UNL     1       0.123  14.870  19.540  0.00  0.00    +0.000 C 
ATOM     12  O   UNL     1      -0.188  15.326  18.432  0.00  0.00    +0.000 OA
ENDBRANCH   1  11
BRANCH   2  13
ATOM     13  O   UNL     1       2.020  13.149  18.335  0.00  0.00    +0.000 OA
ATOM     14  H   UNL     1       2.166  12.567  17.548  0.00  0.00    +0.000 HD
ENDBRANCH   2  13
BRANCH   4  15
ATOM     15  O   UNL     1       2.592  10.894  17.447  0.00  0.00    +0.000 OA
ATOM     16  H   UNL     1       2.706  10.321  16.660  0.00  0.00    +0.000 HD
ENDBRANCH   4  15
BRANCH   4  17
ATOM     17  N   UNL     1       1.469   9.040  17.961  0.00  0.00    +0.000 N 
ATOM     18  H   UNL     1       0.566   8.787  17.569  0.00  0.00    +0.000 HD
BRANCH  17  19
ATOM     19  C   UNL     1       2.264   7.945  18.334  0.00  0.00    +0.000 A 
ATOM     20  C   UNL     1       3.313   7.664  17.461  0.00  0.00    +0.000 A 
ATOM     21  C   UNL     1       4.225   6.677  17.765  0.00  0.00    +0.000 A 
ATOM     22  C   UNL     1       3.999   5.823  18.848  0.00  0.00    +0.000 A 
ATOM     23  O   UNL     1       5.003   4.867  19.026  0.00  0.00    +0.000 OA
ATOM     24  C   UNL     1       4.558   3.681  18.537  0.00  0.00    +0.000 A 
ATOM     25  C   UNL     1       4.259   3.555  17.074  0.00  0.00    +0.000 C 
ATOM     26  N   UNL     1       4.113   2.811  19.373  0.00  0.00    +0.000 NA
ATOM     27  O   UNL     1       2.729   3.081  19.404  0.00  0.00    +0.000 OA
ATOM     28  C   UNL     1       2.525   3.726  20.596  0.00  0.00    +0.000 A 
ATOM     29  C   UNL     1       2.400   2.655  21.664  0.00  0.00    +0.000 C 
ATOM     30  N   UNL     1       2.546   5.023  20.758  0.00  0.00    +0.000 NA
ATOM     31  C   UNL     1       2.839   5.933  19.683  0.00  0.00    +0.000 A 
ATOM     32  C   UNL     1       2.026   7.069  19.430  0.00  0.00    +0.000 A 
ENDBRANCH  17  19
ENDBRANCH   4  17
TORSDOF 5
ENDMDL
MODEL 8
REMARK VINA RESULT:      -7.8      3.294      4.844
REMARK  Name = 
REMARK  8 active torsions:
REMARK  status: ('A' for Active; 'I' for Inactive)
REMARK    1  A    between atoms: C_1  and  C_2
REMARK    2  A    between atoms: C_2  and  C_4
REMARK    3  A    between atoms: C_5  and  O_6
REMARK    4  A    between atoms: C_8  and  O_9
REMARK    5  A    between atoms: C_8  and  N_10
REMARK    6  A    between atoms: N_10  and  C_11
REMARK    7  A    between atoms: C_16  and  C_17
REMARK    8  A    between atoms: C_20  and  C_21
REMARK                            x       y       z     vdW  Elec       q    Type
REMARK                         _______ _______ _______ _____ _____    ______ ____
ROOT
ATOM      1  C   UNL     1      -2.064  12.418  22.076  0.00  0.00    +0.000 C 
ATOM      2  C   UNL     1      -1.128  11.462  22.188  0.00  0.00    +0.000 C 
ATOM      3  C   UNL     1      -0.565  10.807  21.015  0.00  0.00    +0.000 C 
ATOM      4  C   UNL     1       0.594  10.091  21.038  0.00  0.00    +0.000 C 
ATOM      5  C   UNL     1      -1.384  10.887  19.777  0.00  0.00    +0.000 C 
ATOM      6  O   UNL     1      -1.358  10.044  18.887  0.00  0.00    +0.000 OA
ATOM      7  O   UNL     1      -2.280  11.904  19.701  0.00  0.00    +0.000 OA
ATOM      8  C   UNL     1      -2.612  12.691  20.738  0.00  0.00    +0.000 C 
ATOM      9  O   UNL     1      -3.419  13.603  20.575  0.00  0.00    +0.000 OA
ENDROOT
BRANCH   1  11
ATOM     10  C   UNL     1      -3.742  12.957  24.016  0.00  0.00    +0.000 C 
ATOM     11  C   UNL     1      -2.438  13.196  23.307  0.00  0.00    +0.000 C 
ATOM     12  O   UNL     1      -1.662  14.060  23.734  0.00  0.00    +0.000 OA
ENDBRANCH   1  11
BRANCH   2  13
ATOM     13  O   UNL     1      -0.569  11.072  23.402  0.00  0.00    +0.000 OA
ATOM     14  H   UNL     1      -0.981  11.596  24.133  0.00  0.00    +0.000 HD
ENDBRANCH   2  13
BRANCH   4  15
ATOM     15  O   UNL     1       1.149   9.690  22.245  0.00  0.00    +0.000 OA
ATOM     16  H   UNL     1       1.200  10.473  22.833  0.00  0.00    +0.000 HD
ENDBRANCH   4  15
BRANCH   4  17
ATOM     17  N   UNL     1       1.338   9.549  20.030  0.00  0.00    +0.000 N 
ATOM     18  H   UNL     1       1.424  10.185  19.242  0.00  0.00    +0.000 HD
BRANCH  17  19
ATOM     19  C   UNL     1       1.800   8.249  19.775  0.00  0.00    +0.000 A 
ATOM     20  C   UNL     1       2.144   8.005  18.447  0.00  0.00    +0.000 A 
ATOM     21  C   UNL     1       2.704   6.799  18.084  0.00  0.00    +0.000 A 
ATOM     22  C   UNL     1       2.754   5.745  18.999  0.00  0.00    +0.000 A 
ATOM     23  O   UNL     1       3.339   4.584  18.486  0.00  0.00    +0.000 OA
ATOM     24  C   UNL     1       2.351   3.709  18.169  0.00  0.00    +0.000 A 
ATOM     25  C   UNL     1       1.368   4.068  17.096  0.00  0.00    +0.000 C 
ATOM     26  N   UNL     1       2.098   2.757  18.996  0.00  0.00    +0.000 NA
ATOM     27  O   UNL     1       1.077   3.300  19.801  0.00  0.00    +0.000 OA
ATOM     28  C   UNL     1       1.693   3.611  20.985  0.00  0.00    +0.000 A 
ATOM     29  C   UNL     1       1.745   2.336  21.807  0.00  0.00    +0.000 C 
ATOM     30  N   UNL     1       2.217   4.774  21.272  0.00  0.00    +0.000 NA
ATOM     31  C   UNL     1       2.244   5.863  20.334  0.00  0.00    +0.000 A 
ATOM     32  C   UNL     1       1.838   7.173  20.706  0.00  0.00    +0.000 A 
ENDBRANCH  17  19
ENDBRANCH   4  17
TORSDOF 5
ENDMDL
MODEL 9
REMARK VINA RESULT:      -7.7      2.760      9.145
REMARK  Name = 
REMARK  8 active torsions:
REMARK  status: ('A' for Active; 'I' for Inactive)
REMARK    1  A    between atoms: C_1  and  C_2
REMARK    2  A    between atoms: C_2  and  C_4
REMARK    3  A    between atoms: C_5  and  O_6
REMARK    4  A    between atoms: C_8  and  O_9
REMARK    5  A    between atoms: C_8  and  N_10
REMARK    6  A    between atoms: N_10  and  C_11
REMARK    7  A    between atoms: C_16  and  C_17
REMARK    8  A    between atoms: C_20  and  C_21
REMARK                            x       y       z     vdW  Elec       q    Type
REMARK                         _______ _______ _______ _____ _____    ______ ____
ROOT
ATOM      1  C   UNL     1       5.050   5.820  17.765  0.00  0.00    +0.000 C 
ATOM      2  C   UNL     1       4.089   6.731  17.542  0.00  0.00    +0.000 C 
ATOM      3  C   UNL     1       3.094   7.050  18.556  0.00  0.00    +0.000 C 
ATOM      4  C   UNL     1       2.320   8.171  18.522  0.00  0.00    +0.000 C 
ATOM      5  C   UNL     1       2.896   6.022  19.611  0.00  0.00    +0.000 C 
ATOM      6  O   UNL     1       1.841   5.859  20.215  0.00  0.00    +0.000 OA
ATOM      7  O   UNL     1       3.922   5.160  19.825  0.00  0.00    +0.000 OA
ATOM      8  C   UNL     1       4.989   5.047  19.015  0.00  0.00    +0.000 C 
ATOM      9  O   UNL     1       5.883   4.252  19.295  0.00  0.00    +0.000 OA
ENDROOT
BRANCH   1  11
ATOM     10  C   UNL     1       6.331   4.466  15.923  0.00  0.00    +0.000 C 
ATOM     11  C   UNL     1       6.165   5.702  16.763  0.00  0.00    +0.000 C 
ATOM     12  O   UNL     1       6.969   6.635  16.640  0.00  0.00    +0.000 OA
ENDBRANCH   1  11
BRANCH   2  13
ATOM     13  O   UNL     1       4.005   7.490  16.379  0.00  0.00    +0.000 OA
ATOM     14  H   UNL     1       4.839   7.381  15.857  0.00  0.00    +0.000 HD
ENDBRANCH   2  13
BRANCH   4  15
ATOM     15  O   UNL     1       2.223   8.924  17.362  0.00  0.00    +0.000 OA
ATOM     16  H   UNL     1       2.829   8.538  16.695  0.00  0.00    +0.000 HD
ENDBRANCH   4  15
BRANCH   4  17
ATOM     17  N   UNL     1       1.463   8.702  19.443  0.00  0.00    +0.000 N 
ATOM     18  H   UNL     1       1.323   8.076  20.232  0.00  0.00    +0.000 HD
BRANCH  17  19
ATOM     19  C   UNL     1       0.587   9.798  19.414  0.00  0.00    +0.000 A 
ATOM     20  C   UNL     1       0.758  10.706  20.457  0.00  0.00    +0.000 A 
ATOM     21  C   UNL     1       0.029  11.875  20.488  0.00  0.00    +0.000 A 
ATOM     22  C   UNL     1      -1.022  12.070  19.588  0.00  0.00    +0.000 A 
ATOM     23  O   UNL     1      -1.675  13.295  19.748  0.00  0.00    +0.000 OA
ATOM     24  C   UNL     1      -2.840  13.078  20.412  0.00  0.00    +0.000 A 
ATOM     25  C   UNL     1      -2.798  12.558  21.816  0.00  0.00    +0.000 C 
ATOM     26  N   UNL     1      -3.926  13.022  19.725  0.00  0.00    +0.000 NA
ATOM     27  O   UNL     1      -4.062  11.645  19.457  0.00  0.00    +0.000 OA
ATOM     28  C   UNL     1      -3.707  11.508  18.141  0.00  0.00    +0.000 A 
ATOM     29  C   UNL     1      -4.933  11.850  17.313  0.00  0.00    +0.000 C 
ATOM     30  N   UNL     1      -2.502  11.235  17.715  0.00  0.00    +0.000 NA
ATOM     31  C   UNL     1      -1.381  11.091  18.604  0.00  0.00    +0.000 A 
ATOM     32  C   UNL     1      -0.491   9.989  18.504  0.00  0.00    +0.000 A 
ENDBRANCH  17  19
ENDBRANCH   4  17
TORSDOF 5
ENDMDL
