MODEL 1
REMARK VINA RESULT:      -7.5      0.000      0.000
REMARK  Name = 
REMARK  4 active torsions:
REMARK  status: ('A' for Active; 'I' for Inactive)
REMARK    1  A    between atoms: C_2  and  O_3
REMARK    2  A    between atoms: C_2  and  C_4
REMARK    3  A    between atoms: C_4  and  O_5
REMARK    4  A    between atoms: O_5  and  C_6
REMARK                            x       y       z     vdW  Elec       q    Type
REMARK                         _______ _______ _______ _____ _____    ______ ____
ROOT
ATOM      1  C   UNL     1       5.527   4.810  16.652  0.00  0.00    +0.000 A 
ATOM      2  C   UNL     1       5.087   3.827  17.570  0.00  0.00    +0.000 A 
ATOM      3  C   UNL     1       4.062   4.119  18.462  0.00  0.00    +0.000 A 
ATOM      4  C   UNL     1       3.615   5.433  18.530  0.00  0.00    +0.000 A 
ATOM      5  C   UNL     1       3.902   6.386  17.562  0.00  0.00    +0.000 A 
ATOM      6 CL   UNL     1       3.060   7.898  17.555  0.00  0.00    +0.000 Cl
ATOM      7  C   UNL     1       4.829   6.042  16.566  0.00  0.00    +0.000 A 
ATOM      8 CL   UNL     1       4.987   7.098  15.194  0.00  0.00    +0.000 Cl
ATOM      9  C   UNL     1       2.893   5.592  19.779  0.00  0.00    +0.000 C 
ATOM     10  O   UNL     1       2.599   6.655  20.290  0.00  0.00    +0.000 OA
ATOM     11  C   UNL     1       2.639   4.223  20.385  0.00  0.00    +0.000 C 
ATOM     12  C   UNL     1       1.131   4.075  20.496  0.00  0.00    +0.000 C 
ATOM     13  C   UNL     1       0.332   3.078  19.692  0.00  0.00    +0.000 C 
ATOM     14  C   UNL     1       1.102   2.082  18.865  0.00  0.00    +0.000 C 
ATOM     15  C   UNL     1       2.617   2.006  19.063  0.00  0.00    +0.000 C 
ATOM     16  C   UNL     1       3.430   3.233  19.520  0.00  0.00    +0.000 C 
ENDROOT
BRANCH   1  17
ATOM     17  O   UNL     1       6.620   4.411  15.908  0.00  0.00    +0.000 OA
BRANCH  17  18
ATOM     18  C   UNL     1       6.357   3.939  14.578  0.00  0.00    +0.000 C 
BRANCH  18  20
ATOM     19  O   UNL     1       7.939   5.609  13.813  0.00  0.00    +0.000 OA
ATOM     20  C   UNL     1       7.197   4.663  13.533  0.00  0.00    +0.000 C 
BRANCH  20  21
ATOM     21  O   UNL     1       7.065   4.192  12.281  0.00  0.00    +0.000 OA
ATOM     22  H   UNL     1       6.961   3.216  12.295  0.00  0.00    +0.000 HD
ENDBRANCH  20  21
ENDBRANCH  18  20
ENDBRANCH  17  18
ENDBRANCH   1  17
TORSDOF 4
ENDMDL
MODEL 2
REMARK VINA RESULT:      -7.5      1.843      2.645
REMARK  Name = 
REMARK  4 active torsions:
REMARK  status: ('A' for Active; 'I' for Inactive)
REMARK    1  A    between atoms: C_2  and  O_3
REMARK    2  A    between atoms: C_2  and  C_4
REMARK    3  A    between atoms: C_4  and  O_5
REMARK    4  A    between atoms: O_5  and  C_6
REMARK                            x       y       z     vdW  Elec       q    Type
REMARK                         _______ _______ _______ _____ _____    ______ ____
ROOT
ATOM      1  C   UNL     1       5.672   5.196  17.493  0.00  0.00    +0.000 A 
ATOM      2  C   UNL     1       5.206   4.249  18.436  0.00  0.00    +0.000 A 
ATOM      3  C   UNL     1       3.991   4.450  19.079  0.00  0.00    +0.000 A 
ATOM      4  C   UNL     1       3.350   5.669  18.892  0.00  0.00    +0.000 A 
ATOM      5  C   UNL     1       3.682   6.555  17.877  0.00  0.00    +0.000 A 
ATOM      6 CL   UNL     1       2.645   7.894  17.519  0.00  0.00    +0.000 Cl
ATOM      7  C   UNL     1       4.831   6.277  17.120  0.00  0.00    +0.000 A 
ATOM      8 CL   UNL     1       5.105   7.203  15.674  0.00  0.00    +0.000 Cl
ATOM      9  C   UNL     1       2.376   5.826  19.957  0.00  0.00    +0.000 C 
ATOM     10  O   UNL     1       1.832   6.870  20.262  0.00  0.00    +0.000 OA
ATOM     11  C   UNL     1       2.209   4.502  20.679  0.00  0.00    +0.000 C 
ATOM     12  C   UNL     1       0.749   4.111  20.531  0.00  0.00    +0.000 C 
ATOM     13  C   UNL     1       0.284   2.917  19.731  0.00  0.00    +0.000 C 
ATOM     14  C   UNL     1       1.343   1.990  19.197  0.00  0.00    +0.000 C 
ATOM     15  C   UNL     1       2.781   2.192  19.677  0.00  0.00    +0.000 C 
ATOM     16  C   UNL     1       3.295   3.579  20.110  0.00  0.00    +0.000 C 
ENDROOT
BRANCH   1  17
ATOM     17  O   UNL     1       6.939   4.917  17.019  0.00  0.00    +0.000 OA
BRANCH  17  18
ATOM     18  C   UNL     1       7.963   4.705  18.002  0.00  0.00    +0.000 C 
BRANCH  18  20
ATOM     19  O   UNL     1       8.225   7.021  18.668  0.00  0.00    +0.000 OA
ATOM     20  C   UNL     1       8.043   5.848  19.006  0.00  0.00    +0.000 C 
BRANCH  20  21
ATOM     21  O   UNL     1       7.902   5.479  20.291  0.00  0.00    +0.000 OA
ATOM     22  H   UNL     1       6.950   5.404  20.520  0.00  0.00    +0.000 HD
ENDBRANCH  20  21
ENDBRANCH  18  20
ENDBRANCH  17  18
ENDBRANCH   1  17
TORSDOF 4
ENDMDL
MODEL 3
REMARK VINA RESULT:      -7.4      0.972      1.142
REMARK  Name = 
REMARK  4 active torsions:
REMARK  status: ('A' for Active; 'I' for Inactive)
REMARK    1  A    between atoms: C_2  and  O_3
REMARK    2  A    between atoms: C_2  and  C_4
REMARK    3  A    between atoms: C_4  and  O_5
REMARK    4  A    between atoms: O_5  and  C_6
REMARK                            x       y       z     vdW  Elec       q    Type
REMARK                         _______ _______ _______ _____ _____    ______ ____
ROOT
ATOM      1  C   UNL     1       5.791   5.559  17.486  0.00  0.00    +0.000 A 
ATOM      2  C   UNL     1       5.409   4.601  18.456  0.00  0.00    +0.000 A 
ATOM      3  C   UNL     1       4.194   4.730  19.118  0.00  0.00    +0.000 A 
ATOM      4  C   UNL     1       3.466   5.897  18.919  0.00  0.00    +0.000 A 
ATOM      5  C   UNL     1       3.717   6.783  17.880  0.00  0.00    +0.000 A 
ATOM      6 CL   UNL     1       2.582   8.037  17.514  0.00  0.00    +0.000 Cl
ATOM      7  C   UNL     1       4.870   6.570  17.108  0.00  0.00    +0.000 A 
ATOM      8 CL   UNL     1       5.052   7.482  15.639  0.00  0.00    +0.000 Cl
ATOM      9  C   UNL     1       2.501   6.008  19.998  0.00  0.00    +0.000 C 
ATOM     10  O   UNL     1       1.890   7.017  20.292  0.00  0.00    +0.000 OA
ATOM     11  C   UNL     1       2.441   4.690  20.749  0.00  0.00    +0.000 C 
ATOM     12  C   UNL     1       1.010   4.195  20.636  0.00  0.00    +0.000 C 
ATOM     13  C   UNL     1       0.617   2.955  19.869  0.00  0.00    +0.000 C 
ATOM     14  C   UNL     1       1.729   2.093  19.333  0.00  0.00    +0.000 C 
ATOM     15  C   UNL     1       3.157   2.406  19.782  0.00  0.00    +0.000 C 
ATOM     16  C   UNL     1       3.580   3.835  20.179  0.00  0.00    +0.000 C 
ENDROOT
BRANCH   1  17
ATOM     17  O   UNL     1       7.066   5.359  16.995  0.00  0.00    +0.000 OA
BRANCH  17  18
ATOM     18  C   UNL     1       7.234   4.288  16.055  0.00  0.00    +0.000 C 
BRANCH  18  20
ATOM     19  O   UNL     1       5.955   4.355  13.996  0.00  0.00    +0.000 OA
ATOM     20  C   UNL     1       6.951   4.727  14.624  0.00  0.00    +0.000 C 
BRANCH  20  21
ATOM     21  O   UNL     1       7.873   5.551  14.095  0.00  0.00    +0.000 OA
ATOM     22  H   UNL     1       7.456   6.152  13.441  0.00  0.00    +0.000 HD
ENDBRANCH  20  21
ENDBRANCH  18  20
ENDBRANCH  17  18
ENDBRANCH   1  17
TORSDOF 4
ENDMDL
MODEL 4
REMARK VINA RESULT:      -7.3      2.161      2.564
REMARK  Name = 
REMARK  4 active torsions:
REMARK  status: ('A' for Active; 'I' for Inactive)
REMARK    1  A    between atoms: C_2  and  O_3
REMARK    2  A    between atoms: C_2  and  C_4
REMARK    3  A    between atoms: C_4  and  O_5
REMARK    4  A    between atoms: O_5  and  C_6
REMARK                            x       y       z     vdW  Elec       q    Type
REMARK                         _______ _______ _______ _____ _____    ______ ____
ROOT
ATOM      1  C   UNL     1       5.145   4.568  16.001  0.00  0.00    +0.000 A 
ATOM      2  C   UNL     1       4.014   3.784  16.330  0.00  0.00    +0.000 A 
ATOM      3  C   UNL     1       3.797   3.397  17.647  0.00  0.00    +0.000 A 
ATOM      4  C   UNL     1       4.798   3.658  18.575  0.00  0.00    +0.000 A 
ATOM      5  C   UNL     1       5.840   4.544  18.340  0.00  0.00    +0.000 A 
ATOM      6 CL   UNL     1       6.861   5.049  19.643  0.00  0.00    +0.000 Cl
ATOM      7  C   UNL     1       5.976   5.059  17.041  0.00  0.00    +0.000 A 
ATOM      8 CL   UNL     1       7.084   6.376  16.794  0.00  0.00    +0.000 Cl
ATOM      9  C   UNL     1       4.564   2.811  19.730  0.00  0.00    +0.000 C 
ATOM     10  O   UNL     1       5.375   2.579  20.606  0.00  0.00    +0.000 OA
ATOM     11  C   UNL     1       3.180   2.197  19.625  0.00  0.00    +0.000 C 
ATOM     12  C   UNL     1       2.411   2.659  20.850  0.00  0.00    +0.000 C 
ATOM     13  C   UNL     1       1.222   3.588  20.784  0.00  0.00    +0.000 C 
ATOM     14  C   UNL     1       0.691   3.933  19.418  0.00  0.00    +0.000 C 
ATOM     15  C   UNL     1       1.241   3.159  18.219  0.00  0.00    +0.000 C 
ATOM     16  C   UNL     1       2.665   2.569  18.229  0.00  0.00    +0.000 C 
ENDROOT
BRANCH   1  17
ATOM     17  O   UNL     1       5.285   4.783  14.644  0.00  0.00    +0.000 OA
BRANCH  17  18
ATOM     18  C   UNL     1       6.310   4.036  13.975  0.00  0.00    +0.000 C 
BRANCH  18  20
ATOM     19  O   UNL     1       4.694   3.641  12.211  0.00  0.00    +0.000 OA
ATOM     20  C   UNL     1       5.814   3.411  12.677  0.00  0.00    +0.000 C 
BRANCH  20  21
ATOM     21  O   UNL     1       6.691   2.587  12.078  0.00  0.00    +0.000 OA
ATOM     22  H   UNL     1       7.049   3.005  11.265  0.00  0.00    +0.000 HD
ENDBRANCH  20  21
ENDBRANCH  18  20
ENDBRANCH  17  18
ENDBRANCH   1  17
TORSDOF 4
ENDMDL
MODEL 5
REMARK VINA RESULT:      -7.3      2.017      2.358
REMARK  Name = 
REMARK  4 active torsions:
REMARK  status: ('A' for Active; 'I' for Inactive)
REMARK    1  A    between atoms: C_2  and  O_3
REMARK    2  A    between atoms: C_2  and  C_4
REMARK    3  A    between atoms: C_4  and  O_5
REMARK    4  A    between atoms: O_5  and  C_6
REMARK                            x       y       z     vdW  Elec       q    Type
REMARK                         _______ _______ _______ _____ _____    ______ ____
ROOT
ATOM      1  C   UNL     1       5.149   4.806  16.159  0.00  0.00    +0.000 A 
ATOM      2  C   UNL     1       4.013   4.011  16.443  0.00  0.00    +0.000 A 
ATOM      3  C   UNL     1       3.802   3.539  17.733  0.00  0.00    +0.000 A 
ATOM      4  C   UNL     1       4.811   3.730  18.669  0.00  0.00    +0.000 A 
ATOM      5  C   UNL     1       5.859   4.621  18.486  0.00  0.00    +0.000 A 
ATOM      6 CL   UNL     1       6.892   5.031  19.812  0.00  0.00    +0.000 Cl
ATOM      7  C   UNL     1       5.991   5.220  17.223  0.00  0.00    +0.000 A 
ATOM      8 CL   UNL     1       7.108   6.542  17.056  0.00  0.00    +0.000 Cl
ATOM      9  C   UNL     1       4.577   2.810  19.767  0.00  0.00    +0.000 C 
ATOM     10  O   UNL     1       5.391   2.514  20.620  0.00  0.00    +0.000 OA
ATOM     11  C   UNL     1       3.187   2.215  19.631  0.00  0.00    +0.000 C 
ATOM     12  C   UNL     1       2.430   2.602  20.890  0.00  0.00    +0.000 C 
ATOM     13  C   UNL     1       1.248   3.542  20.894  0.00  0.00    +0.000 C 
ATOM     14  C   UNL     1       0.711   3.982  19.558  0.00  0.00    +0.000 C 
ATOM     15  C   UNL     1       1.247   3.285  18.306  0.00  0.00    +0.000 C 
ATOM     16  C   UNL     1       2.666   2.684  18.267  0.00  0.00    +0.000 C 
ENDROOT
BRANCH   1  17
ATOM     17  O   UNL     1       5.281   5.110  14.818  0.00  0.00    +0.000 OA
BRANCH  17  18
ATOM     18  C   UNL     1       5.998   4.164  14.011  0.00  0.00    +0.000 C 
BRANCH  18  20
ATOM     19  O   UNL     1       7.973   5.567  13.905  0.00  0.00    +0.000 OA
ATOM     20  C   UNL     1       7.207   4.790  13.327  0.00  0.00    +0.000 C 
BRANCH  20  21
ATOM     21  O   UNL     1       7.374   4.433  12.042  0.00  0.00    +0.000 OA
ATOM     22  H   UNL     1       8.246   4.742  11.714  0.00  0.00    +0.000 HD
ENDBRANCH  20  21
ENDBRANCH  18  20
ENDBRANCH  17  18
ENDBRANCH   1  17
TORSDOF 4
ENDMDL
MODEL 6
REMARK VINA RESULT:      -7.2      2.856      4.988
REMARK  Name = 
REMARK  4 active torsions:
REMARK  status: ('A' for Active; 'I' for Inactive)
REMARK    1  A    between atoms: C_2  and  O_3
REMARK    2  A    between atoms: C_2  and  C_4
REMARK    3  A    between atoms: C_4  and  O_5
REMARK    4  A    between atoms: O_5  and  C_6
REMARK                            x       y       z     vdW  Elec       q    Type
REMARK                         _______ _______ _______ _____ _____    ______ ____
ROOT
ATOM      1  C   UNL     1       3.417   7.327  17.618  0.00  0.00    +0.000 A 
ATOM      2  C   UNL     1       2.350   6.610  18.211  0.00  0.00    +0.000 A 
ATOM      3  C   UNL     1       2.465   5.240  18.418  0.00  0.00    +0.000 A 
ATOM      4  C   UNL     1       3.569   4.592  17.878  0.00  0.00    +0.000 A 
ATOM      5  C   UNL     1       4.700   5.260  17.429  0.00  0.00    +0.000 A 
ATOM      6 CL   UNL     1       6.144   4.378  17.066  0.00  0.00    +0.000 Cl
ATOM      7  C   UNL     1       4.643   6.661  17.360  0.00  0.00    +0.000 A 
ATOM      8 CL   UNL     1       6.123   7.528  17.079  0.00  0.00    +0.000 Cl
ATOM      9  C   UNL     1       3.271   3.172  17.832  0.00  0.00    +0.000 C 
ATOM     10  O   UNL     1       3.886   2.346  17.185  0.00  0.00    +0.000 OA
ATOM     11  C   UNL     1       2.022   2.899  18.649  0.00  0.00    +0.000 C 
ATOM     12  C   UNL     1       2.429   1.929  19.745  0.00  0.00    +0.000 C 
ATOM     13  C   UNL     1       2.443   2.290  21.212  0.00  0.00    +0.000 C 
ATOM     14  C   UNL     1       1.871   3.628  21.599  0.00  0.00    +0.000 C 
ATOM     15  C   UNL     1       1.124   4.425  20.528  0.00  0.00    +0.000 C 
ATOM     16  C   UNL     1       1.466   4.276  19.032  0.00  0.00    +0.000 C 
ENDROOT
BRANCH   1  17
ATOM     17  O   UNL     1       3.116   8.653  17.379  0.00  0.00    +0.000 OA
BRANCH  17  18
ATOM     18  C   UNL     1       1.845   9.122  17.852  0.00  0.00    +0.000 C 
BRANCH  18  20
ATOM     19  O   UNL     1       1.298  11.103  19.139  0.00  0.00    +0.000 OA
ATOM     20  C   UNL     1       1.858  10.616  18.152  0.00  0.00    +0.000 C 
BRANCH  20  21
ATOM     21  O   UNL     1       2.524  11.364  17.256  0.00  0.00    +0.000 OA
ATOM     22  H   UNL     1       1.896  11.910  16.736  0.00  0.00    +0.000 HD
ENDBRANCH  20  21
ENDBRANCH  18  20
ENDBRANCH  17  18
ENDBRANCH   1  17
TORSDOF 4
ENDMDL
MODEL 7
REMARK VINA RESULT:      -7.1      2.751      5.927
REMARK  Name = 
REMARK  4 active torsions:
REMARK  status: ('A' for Active; 'I' for Inactive)
REMARK    1  A    between atoms: C_2  and  O_3
REMARK    2  A    between atoms: C_2  and  C_4
REMARK    3  A    between atoms: C_4  and  O_5
REMARK    4  A    between atoms: O_5  and  C_6
REMARK                            x       y       z     vdW  Elec       q    Type
REMARK                         _______ _______ _______ _____ _____    ______ ____
ROOT
ATOM      1  C   UNL     1       3.070   4.391  20.087  0.00  0.00    +0.000 A 
ATOM      2  C   UNL     1       4.335   4.171  19.491  0.00  0.00    +0.000 A 
ATOM      3  C   UNL     1       4.867   5.116  18.623  0.00  0.00    +0.000 A 
ATOM      4  C   UNL     1       4.055   6.177  18.240  0.00  0.00    +0.000 A 
ATOM      5  C   UNL     1       2.883   6.516  18.903  0.00  0.00    +0.000 A 
ATOM      6 CL   UNL     1       2.099   8.022  18.566  0.00  0.00    +0.000 Cl
ATOM      7  C   UNL     1       2.417   5.636  19.892  0.00  0.00    +0.000 A 
ATOM      8 CL   UNL     1       1.125   6.172  20.924  0.00  0.00    +0.000 Cl
ATOM      9  C   UNL     1       4.628   6.766  17.043  0.00  0.00    +0.000 C 
ATOM     10  O   UNL     1       4.053   7.527  16.291  0.00  0.00    +0.000 OA
ATOM     11  C   UNL     1       6.027   6.213  16.838  0.00  0.00    +0.000 C 
ATOM     12  C   UNL     1       6.969   7.404  16.868  0.00  0.00    +0.000 C 
ATOM     13  C   UNL     1       7.991   7.628  17.957  0.00  0.00    +0.000 C 
ATOM     14  C   UNL     1       8.180   6.525  18.964  0.00  0.00    +0.000 C 
ATOM     15  C   UNL     1       7.495   5.184  18.695  0.00  0.00    +0.000 C 
ATOM     16  C   UNL     1       6.190   5.098  17.879  0.00  0.00    +0.000 C 
ENDROOT
BRANCH   1  17
ATOM     17  O   UNL     1       2.627   3.320  20.838  0.00  0.00    +0.000 OA
BRANCH  17  18
ATOM     18  C   UNL     1       1.372   2.740  20.455  0.00  0.00    +0.000 C 
BRANCH  18  20
ATOM     19  O   UNL     1       0.611   2.770  18.153  0.00  0.00    +0.000 OA
ATOM     20  C   UNL     1       1.367   2.286  19.000  0.00  0.00    +0.000 C 
BRANCH  20  21
ATOM     21  O   UNL     1       2.250   1.315  18.711  0.00  0.00    +0.000 OA
ATOM     22  H   UNL     1       2.201   0.601  19.383  0.00  0.00    +0.000 HD
ENDBRANCH  20  21
ENDBRANCH  18  20
ENDBRANCH  17  18
ENDBRANCH   1  17
TORSDOF 4
ENDMDL
MODEL 8
REMARK VINA RESULT:      -6.8      2.340      3.083
REMARK  Name = 
REMARK  4 active torsions:
REMARK  status: ('A' for Active; 'I' for Inactive)
REMARK    1  A    between atoms: C_2  and  O_3
REMARK    2  A    between atoms: C_2  and  C_4
REMARK    3  A    between atoms: C_4  and  O_5
REMARK    4  A    between atoms: O_5  and  C_6
REMARK                            x       y       z     vdW  Elec       q    Type
REMARK                         _______ _______ _______ _____ _____    ______ ____
ROOT
ATOM      1  C   UNL     1       6.246   3.831  14.829  0.00  0.00    +0.000 A 
ATOM      2  C   UNL     1       5.190   3.305  15.611  0.00  0.00    +0.000 A 
ATOM      3  C   UNL     1       4.945   3.816  16.880  0.00  0.00    +0.000 A 
ATOM      4  C   UNL     1       5.861   4.721  17.404  0.00  0.00    +0.000 A 
ATOM      5  C   UNL     1       6.812   5.373  16.632  0.00  0.00    +0.000 A 
ATOM      6 CL   UNL     1       7.700   6.705  17.291  0.00  0.00    +0.000 Cl
ATOM      7  C   UNL     1       6.962   4.962  15.298  0.00  0.00    +0.000 A 
ATOM      8 CL   UNL     1       7.932   5.944  14.242  0.00  0.00    +0.000 Cl
ATOM      9  C   UNL     1       5.658   4.777  18.840  0.00  0.00    +0.000 C 
ATOM     10  O   UNL     1       6.440   5.249  19.642  0.00  0.00    +0.000 OA
ATOM     11  C   UNL     1       4.356   4.077  19.186  0.00  0.00    +0.000 C 
ATOM     12  C   UNL     1       3.476   5.115  19.860  0.00  0.00    +0.000 C 
ATOM     13  C   UNL     1       2.199   5.644  19.252  0.00  0.00    +0.000 C 
ATOM     14  C   UNL     1       1.708   4.982  17.992  0.00  0.00    +0.000 C 
ATOM     15  C   UNL     1       2.402   3.696  17.542  0.00  0.00    +0.000 C 
ATOM     16  C   UNL     1       3.880   3.418  17.885  0.00  0.00    +0.000 C 
ENDROOT
BRANCH   1  17
ATOM     17  O   UNL     1       6.434   3.153  13.640  0.00  0.00    +0.000 OA
BRANCH  17  18
ATOM     18  C   UNL     1       5.829   3.722  12.470  0.00  0.00    +0.000 C 
BRANCH  18  20
ATOM     19  O   UNL     1       4.023   2.883  11.088  0.00  0.00    +0.000 OA
ATOM     20  C   UNL     1       5.115   2.676  11.624  0.00  0.00    +0.000 C 
BRANCH  20  21
ATOM     21  O   UNL     1       5.768   1.506  11.508  0.00  0.00    +0.000 OA
ATOM     22  H   UNL     1       5.622   0.956  12.307  0.00  0.00    +0.000 HD
ENDBRANCH  20  21
ENDBRANCH  18  20
ENDBRANCH  17  18
ENDBRANCH   1  17
TORSDOF 4
ENDMDL
MODEL 9
REMARK VINA RESULT:      -6.8      3.309      6.445
REMARK  Name = 
REMARK  4 active torsions:
REMARK  status: ('A' for Active; 'I' for Inactive)
REMARK    1  A    between atoms: C_2  and  O_3
REMARK    2  A    between atoms: C_2  and  C_4
REMARK    3  A    between atoms: C_4  and  O_5
REMARK    4  A    between atoms: O_5  and  C_6
REMARK                            x       y       z     vdW  Elec       q    Type
REMARK                         _______ _______ _______ _____ _____    ______ ____
ROOT
ATOM      1  C   UNL     1       2.460   7.120  18.820  0.00  0.00    +0.000 A 
ATOM      2  C   UNL     1       3.428   7.386  17.823  0.00  0.00    +0.000 A 
ATOM      3  C   UNL     1       4.523   6.544  17.676  0.00  0.00    +0.000 A 
ATOM      4  C   UNL     1       4.715   5.555  18.633  0.00  0.00    +0.000 A 
ATOM      5  C   UNL     1       3.730   5.161  19.528  0.00  0.00    +0.000 A 
ATOM      6 CL   UNL     1       3.936   3.723  20.470  0.00  0.00    +0.000 Cl
ATOM      7  C   UNL     1       2.551   5.922  19.575  0.00  0.00    +0.000 A 
ATOM      8 CL   UNL     1       1.202   5.288  20.469  0.00  0.00    +0.000 Cl
ATOM      9  C   UNL     1       6.092   5.106  18.538  0.00  0.00    +0.000 C 
ATOM     10  O   UNL     1       6.678   4.454  19.381  0.00  0.00    +0.000 OA
ATOM     11  C   UNL     1       6.707   5.653  17.262  0.00  0.00    +0.000 C 
ATOM     12  C   UNL     1       7.133   4.448  16.440  0.00  0.00    +0.000 C 
ATOM     13  C   UNL     1       6.495   4.072  15.124  0.00  0.00    +0.000 C 
ATOM     14  C   UNL     1       5.501   5.039  14.537  0.00  0.00    +0.000 C 
ATOM     15  C   UNL     1       5.370   6.416  15.189  0.00  0.00    +0.000 C 
ATOM     16  C   UNL     1       5.672   6.627  16.687  0.00  0.00    +0.000 C 
ENDROOT
BRANCH   1  17
ATOM     17  O   UNL     1       1.491   8.099  18.915  0.00  0.00    +0.000 OA
BRANCH  17  18
ATOM     18  C   UNL     1       1.716   9.304  18.170  0.00  0.00    +0.000 C 
BRANCH  18  20
ATOM     19  O   UNL     1       0.930  11.202  19.458  0.00  0.00    +0.000 OA
ATOM     20  C   UNL     1       0.727  10.403  18.539  0.00  0.00    +0.000 C 
BRANCH  20  21
ATOM     21  O   UNL     1      -0.386  10.434  17.786  0.00  0.00    +0.000 OA
ATOM     22  H   UNL     1      -0.170  10.225  16.852  0.00  0.00    +0.000 HD
ENDBRANCH  20  21
ENDBRANCH  18  20
ENDBRANCH  17  18
ENDBRANCH   1  17
TORSDOF 4
ENDMDL
