MODEL 1
REMARK VINA RESULT:      -7.5      0.000      0.000
REMARK  Name = 
REMARK  4 active torsions:
REMARK  status: ('A' for Active; 'I' for Inactive)
REMARK    1  A    between atoms: C_1  and  O_2
REMARK    2  A    between atoms: O_2  and  C_3
REMARK    3  A    between atoms: C_6  and  N_7
REMARK    4  A    between atoms: N_7  and  C_8
REMARK                            x       y       z     vdW  Elec       q    Type
REMARK                         _______ _______ _______ _____ _____    ______ ____
ROOT
ATOM      1  C   UNL     1       2.720   5.527  19.049  0.00  0.00    +0.000 A 
ATOM      2  N   UNL     1       1.859   4.485  19.114  0.00  0.00    +0.000 NA
ATOM      3  C   UNL     1       1.976   3.467  18.253  0.00  0.00    +0.000 A 
ATOM      4  N   UNL     1       2.884   3.332  17.289  0.00  0.00    +0.000 NA
ATOM      5  C   UNL     1       3.756   4.369  17.200  0.00  0.00    +0.000 A 
ATOM      6  C   UNL     1       3.696   5.475  18.042  0.00  0.00    +0.000 A 
ATOM      7  S   UNL     1       4.937   6.606  17.665  0.00  0.00    +0.000 S 
ATOM      8  C   UNL     1       5.557   5.618  16.429  0.00  0.00    +0.000 A 
ATOM      9  N   UNL     1       6.641   6.003  15.724  0.00  0.00    +0.000 NA
ATOM     10  C   UNL     1       7.030   5.112  14.787  0.00  0.00    +0.000 A 
ATOM     11  C   UNL     1       6.415   3.900  14.525  0.00  0.00    +0.000 A 
ATOM     12  C   UNL     1       5.297   3.546  15.274  0.00  0.00    +0.000 A 
ATOM     13  C   UNL     1       4.843   4.438  16.269  0.00  0.00    +0.000 A 
ENDROOT
BRANCH   1  14
ATOM     14  N   UNL     1       2.677   6.586  19.972  0.00  0.00    +0.000 N 
ATOM     15  H   UNL     1       2.961   6.302  20.903  0.00  0.00    +0.000 HD
BRANCH  14  19
ATOM     16  C   UNL     1       0.267  10.068  19.914  0.00  0.00    +0.000 A 
ATOM     17  C   UNL     1       0.388   9.295  21.067  0.00  0.00    +0.000 A 
ATOM     18  C   UNL     1       1.220   8.169  21.083  0.00  0.00    +0.000 A 
ATOM     19  C   UNL     1       1.924   7.773  19.937  0.00  0.00    +0.000 A 
ATOM     20  C   UNL     1       1.806   8.576  18.797  0.00  0.00    +0.000 A 
ATOM     21  C   UNL     1       0.980   9.703  18.776  0.00  0.00    +0.000 A 
BRANCH  16  23
ATOM     22  C   UNL     1      -1.590  11.188  18.988  0.00  0.00    +0.000 C 
ATOM     23  O   UNL     1      -0.588  11.132  19.999  0.00  0.00    +0.000 OA
ENDBRANCH  16  23
ENDBRANCH  14  19
ENDBRANCH   1  14
TORSDOF 3
ENDMDL
MODEL 2
REMARK VINA RESULT:      -7.4      0.421      1.106
REMARK  Name = 
REMARK  4 active torsions:
REMARK  status: ('A' for Active; 'I' for Inactive)
REMARK    1  A    between atoms: C_1  and  O_2
REMARK    2  A    between atoms: O_2  and  C_3
REMARK    3  A    between atoms: C_6  and  N_7
REMARK    4  A    between atoms: N_7  and  C_8
REMARK                            x       y       z     vdW  Elec       q    Type
REMARK                         _______ _______ _______ _____ _____    ______ ____
ROOT
ATOM      1  C   UNL     1       2.735   5.515  19.012  0.00  0.00    +0.000 A 
ATOM      2  N   UNL     1       1.857   4.486  19.054  0.00  0.00    +0.000 NA
ATOM      3  C   UNL     1       1.961   3.483  18.174  0.00  0.00    +0.000 A 
ATOM      4  N   UNL     1       2.870   3.352  17.211  0.00  0.00    +0.000 NA
ATOM      5  C   UNL     1       3.759   4.377  17.145  0.00  0.00    +0.000 A 
ATOM      6  C   UNL     1       3.713   5.467  18.008  0.00  0.00    +0.000 A 
ATOM      7  S   UNL     1       4.974   6.584  17.657  0.00  0.00    +0.000 S 
ATOM      8  C   UNL     1       5.583   5.610  16.405  0.00  0.00    +0.000 A 
ATOM      9  N   UNL     1       6.675   5.991  15.710  0.00  0.00    +0.000 NA
ATOM     10  C   UNL     1       7.053   5.112  14.758  0.00  0.00    +0.000 A 
ATOM     11  C   UNL     1       6.420   3.915  14.470  0.00  0.00    +0.000 A 
ATOM     12  C   UNL     1       5.294   3.566  15.209  0.00  0.00    +0.000 A 
ATOM     13  C   UNL     1       4.851   4.446  16.219  0.00  0.00    +0.000 A 
ENDROOT
BRANCH   1  14
ATOM     14  N   UNL     1       2.706   6.557  19.956  0.00  0.00    +0.000 N 
ATOM     15  H   UNL     1       3.062   6.272  20.861  0.00  0.00    +0.000 HD
BRANCH  14  19
ATOM     16  C   UNL     1       0.420  10.122  20.009  0.00  0.00    +0.000 A 
ATOM     17  C   UNL     1       1.072   9.701  18.851  0.00  0.00    +0.000 A 
ATOM     18  C   UNL     1       1.790   8.500  18.837  0.00  0.00    +0.000 A 
ATOM     19  C   UNL     1       1.900   7.710  19.991  0.00  0.00    +0.000 A 
ATOM     20  C   UNL     1       1.221   8.139  21.135  0.00  0.00    +0.000 A 
ATOM     21  C   UNL     1       0.498   9.336  21.153  0.00  0.00    +0.000 A 
BRANCH  16  23
ATOM     22  C   UNL     1       0.064  12.091  18.761  0.00  0.00    +0.000 C 
ATOM     23  O   UNL     1      -0.234  11.320  19.921  0.00  0.00    +0.000 OA
ENDBRANCH  16  23
ENDBRANCH  14  19
ENDBRANCH   1  14
TORSDOF 3
ENDMDL
MODEL 3
REMARK VINA RESULT:      -7.3      3.014      7.005
REMARK  Name = 
REMARK  4 active torsions:
REMARK  status: ('A' for Active; 'I' for Inactive)
REMARK    1  A    between atoms: C_1  and  O_2
REMARK    2  A    between atoms: O_2  and  C_3
REMARK    3  A    between atoms: C_6  and  N_7
REMARK    4  A    between atoms: N_7  and  C_8
REMARK                            x       y       z     vdW  Elec       q    Type
REMARK                         _______ _______ _______ _____ _____    ______ ____
ROOT
ATOM      1  C   UNL     1       3.451   3.766  18.926  0.00  0.00    +0.000 A 
ATOM      2  N   UNL     1       3.254   2.930  19.971  0.00  0.00    +0.000 NA
ATOM      3  C   UNL     1       2.626   3.369  21.069  0.00  0.00    +0.000 A 
ATOM      4  N   UNL     1       2.136   4.588  21.279  0.00  0.00    +0.000 NA
ATOM      5  C   UNL     1       2.327   5.448  20.245  0.00  0.00    +0.000 A 
ATOM      6  C   UNL     1       2.985   5.081  19.076  0.00  0.00    +0.000 A 
ATOM      7  S   UNL     1       3.063   6.399  17.972  0.00  0.00    +0.000 S 
ATOM      8  C   UNL     1       2.205   7.421  19.025  0.00  0.00    +0.000 A 
ATOM      9  N   UNL     1       1.918   8.689  18.665  0.00  0.00    +0.000 NA
ATOM     10  C   UNL     1       1.219   9.377  19.593  0.00  0.00    +0.000 A 
ATOM     11  C   UNL     1       0.806   8.884  20.819  0.00  0.00    +0.000 A 
ATOM     12  C   UNL     1       1.128   7.571  21.149  0.00  0.00    +0.000 A 
ATOM     13  C   UNL     1       1.859   6.802  20.218  0.00  0.00    +0.000 A 
ENDROOT
BRANCH   1  14
ATOM     14  N   UNL     1       4.047   3.333  17.729  0.00  0.00    +0.000 N 
ATOM     15  H   UNL     1       3.977   2.330  17.601  0.00  0.00    +0.000 HD
BRANCH  14  19
ATOM     16  C   UNL     1       7.077   5.028  15.304  0.00  0.00    +0.000 A 
ATOM     17  C   UNL     1       5.860   4.623  14.758  0.00  0.00    +0.000 A 
ATOM     18  C   UNL     1       4.853   4.102  15.578  0.00  0.00    +0.000 A 
ATOM     19  C   UNL     1       5.052   3.944  16.957  0.00  0.00    +0.000 A 
ATOM     20  C   UNL     1       6.272   4.377  17.488  0.00  0.00    +0.000 A 
ATOM     21  C   UNL     1       7.280   4.902  16.674  0.00  0.00    +0.000 A 
BRANCH  16  23
ATOM     22  C   UNL     1       7.767   5.152  13.052  0.00  0.00    +0.000 C 
ATOM     23  O   UNL     1       8.000   5.502  14.413  0.00  0.00    +0.000 OA
ENDBRANCH  16  23
ENDBRANCH  14  19
ENDBRANCH   1  14
TORSDOF 3
ENDMDL
MODEL 4
REMARK VINA RESULT:      -7.2      3.982      8.223
REMARK  Name = 
REMARK  4 active torsions:
REMARK  status: ('A' for Active; 'I' for Inactive)
REMARK    1  A    between atoms: C_1  and  O_2
REMARK    2  A    between atoms: O_2  and  C_3
REMARK    3  A    between atoms: C_6  and  N_7
REMARK    4  A    between atoms: N_7  and  C_8
REMARK                            x       y       z     vdW  Elec       q    Type
REMARK                         _______ _______ _______ _____ _____    ______ ____
ROOT
ATOM      1  C   UNL     1       1.697   8.051  20.069  0.00  0.00    +0.000 A 
ATOM      2  N   UNL     1       1.980   8.229  18.758  0.00  0.00    +0.000 NA
ATOM      3  C   UNL     1       1.601   9.352  18.139  0.00  0.00    +0.000 A 
ATOM      4  N   UNL     1       0.948  10.382  18.674  0.00  0.00    +0.000 NA
ATOM      5  C   UNL     1       0.648  10.225  19.989  0.00  0.00    +0.000 A 
ATOM      6  C   UNL     1       0.988   9.082  20.705  0.00  0.00    +0.000 A 
ATOM      7  S   UNL     1       0.462   9.198  22.339  0.00  0.00    +0.000 S 
ATOM      8  C   UNL     1      -0.174  10.755  22.095  0.00  0.00    +0.000 A 
ATOM      9  N   UNL     1      -0.751  11.426  23.114  0.00  0.00    +0.000 NA
ATOM     10  C   UNL     1      -1.195  12.656  22.779  0.00  0.00    +0.000 A 
ATOM     11  C   UNL     1      -1.099  13.232  21.523  0.00  0.00    +0.000 A 
ATOM     12  C   UNL     1      -0.500  12.501  20.502  0.00  0.00    +0.000 A 
ATOM     13  C   UNL     1      -0.016  11.207  20.793  0.00  0.00    +0.000 A 
ENDROOT
BRANCH   1  14
ATOM     14  N   UNL     1       2.133   6.918  20.778  0.00  0.00    +0.000 N 
ATOM     15  H   UNL     1       2.793   7.148  21.511  0.00  0.00    +0.000 HD
BRANCH  14  19
ATOM     16  C   UNL     1       2.265   2.913  19.407  0.00  0.00    +0.000 A 
ATOM     17  C   UNL     1       3.369   3.754  19.280  0.00  0.00    +0.000 A 
ATOM     18  C   UNL     1       3.324   5.063  19.775  0.00  0.00    +0.000 A 
ATOM     19  C   UNL     1       2.163   5.570  20.377  0.00  0.00    +0.000 A 
ATOM     20  C   UNL     1       1.075   4.702  20.514  0.00  0.00    +0.000 A 
ATOM     21  C   UNL     1       1.115   3.392  20.026  0.00  0.00    +0.000 A 
BRANCH  16  23
ATOM     22  C   UNL     1       3.701   1.363  18.360  0.00  0.00    +0.000 C 
ATOM     23  O   UNL     1       2.406   1.663  18.871  0.00  0.00    +0.000 OA
ENDBRANCH  16  23
ENDBRANCH  14  19
ENDBRANCH   1  14
TORSDOF 3
ENDMDL
MODEL 5
REMARK VINA RESULT:      -7.1      3.853      8.312
REMARK  Name = 
REMARK  4 active torsions:
REMARK  status: ('A' for Active; 'I' for Inactive)
REMARK    1  A    between atoms: C_1  and  O_2
REMARK    2  A    between atoms: O_2  and  C_3
REMARK    3  A    between atoms: C_6  and  N_7
REMARK    4  A    between atoms: N_7  and  C_8
REMARK                            x       y       z     vdW  Elec       q    Type
REMARK                         _______ _______ _______ _____ _____    ______ ____
ROOT
ATOM      1  C   UNL     1       1.618   8.409  19.854  0.00  0.00    +0.000 A 
ATOM      2  N   UNL     1       1.847   8.755  18.565  0.00  0.00    +0.000 NA
ATOM      3  C   UNL     1       1.336   9.892  18.078  0.00  0.00    +0.000 A 
ATOM      4  N   UNL     1       0.593  10.782  18.731  0.00  0.00    +0.000 NA
ATOM      5  C   UNL     1       0.345  10.454  20.026  0.00  0.00    +0.000 A 
ATOM      6  C   UNL     1       0.821   9.284  20.608  0.00  0.00    +0.000 A 
ATOM      7  S   UNL     1       0.328   9.168  22.252  0.00  0.00    +0.000 S 
ATOM      8  C   UNL     1      -0.473  10.665  22.189  0.00  0.00    +0.000 A 
ATOM      9  N   UNL     1      -1.091  11.158  23.283  0.00  0.00    +0.000 NA
ATOM     10  C   UNL     1      -1.670  12.362  23.090  0.00  0.00    +0.000 A 
ATOM     11  C   UNL     1      -1.667  13.075  21.904  0.00  0.00    +0.000 A 
ATOM     12  C   UNL     1      -1.022  12.527  20.800  0.00  0.00    +0.000 A 
ATOM     13  C   UNL     1      -0.397  11.268  20.942  0.00  0.00    +0.000 A 
ENDROOT
BRANCH   1  14
ATOM     14  N   UNL     1       2.187   7.259  20.428  0.00  0.00    +0.000 N 
ATOM     15  H   UNL     1       2.936   7.478  21.075  0.00  0.00    +0.000 HD
BRANCH  14  19
ATOM     16  C   UNL     1       2.303   3.225  19.145  0.00  0.00    +0.000 A 
ATOM     17  C   UNL     1       1.513   3.615  20.225  0.00  0.00    +0.000 A 
ATOM     18  C   UNL     1       1.453   4.959  20.612  0.00  0.00    +0.000 A 
ATOM     19  C   UNL     1       2.208   5.937  19.949  0.00  0.00    +0.000 A 
ATOM     20  C   UNL     1       2.976   5.528  18.854  0.00  0.00    +0.000 A 
ATOM     21  C   UNL     1       3.036   4.187  18.460  0.00  0.00    +0.000 A 
BRANCH  16  23
ATOM     22  C   UNL     1       3.567   1.349  18.479  0.00  0.00    +0.000 C 
ATOM     23  O   UNL     1       2.306   1.886  18.865  0.00  0.00    +0.000 OA
ENDBRANCH  16  23
ENDBRANCH  14  19
ENDBRANCH   1  14
TORSDOF 3
ENDMDL
MODEL 6
REMARK VINA RESULT:      -7.1      3.895      7.524
REMARK  Name = 
REMARK  4 active torsions:
REMARK  status: ('A' for Active; 'I' for Inactive)
REMARK    1  A    between atoms: C_1  and  O_2
REMARK    2  A    between atoms: O_2  and  C_3
REMARK    3  A    between atoms: C_6  and  N_7
REMARK    4  A    between atoms: N_7  and  C_8
REMARK                            x       y       z     vdW  Elec       q    Type
REMARK                         _______ _______ _______ _____ _____    ______ ____
ROOT
ATOM      1  C   UNL     1       4.822   6.230  17.280  0.00  0.00    +0.000 A 
ATOM      2  N   UNL     1       4.147   7.391  17.114  0.00  0.00    +0.000 NA
ATOM      3  C   UNL     1       3.042   7.630  17.830  0.00  0.00    +0.000 A 
ATOM      4  N   UNL     1       2.490   6.834  18.742  0.00  0.00    +0.000 NA
ATOM      5  C   UNL     1       3.146   5.659  18.923  0.00  0.00    +0.000 A 
ATOM      6  C   UNL     1       4.291   5.321  18.209  0.00  0.00    +0.000 A 
ATOM      7  S   UNL     1       4.872   3.769  18.671  0.00  0.00    +0.000 S 
ATOM      8  C   UNL     1       3.638   3.575  19.824  0.00  0.00    +0.000 A 
ATOM      9  N   UNL     1       3.579   2.461  20.583  0.00  0.00    +0.000 NA
ATOM     10  C   UNL     1       2.557   2.452  21.465  0.00  0.00    +0.000 A 
ATOM     11  C   UNL     1       1.622   3.461  21.623  0.00  0.00    +0.000 A 
ATOM     12  C   UNL     1       1.719   4.589  20.815  0.00  0.00    +0.000 A 
ATOM     13  C   UNL     1       2.768   4.655  19.873  0.00  0.00    +0.000 A 
ENDROOT
BRANCH   1  14
ATOM     14  N   UNL     1       6.022   5.962  16.599  0.00  0.00    +0.000 N 
ATOM     15  H   UNL     1       6.774   6.582  16.877  0.00  0.00    +0.000 HD
BRANCH  14  19
ATOM     16  C   UNL     1       6.608   3.912  12.940  0.00  0.00    +0.000 A 
ATOM     17  C   UNL     1       5.436   3.751  13.676  0.00  0.00    +0.000 A 
ATOM     18  C   UNL     1       5.239   4.466  14.863  0.00  0.00    +0.000 A 
ATOM     19  C   UNL     1       6.224   5.333  15.357  0.00  0.00    +0.000 A 
ATOM     20  C   UNL     1       7.383   5.497  14.591  0.00  0.00    +0.000 A 
ATOM     21  C   UNL     1       7.584   4.789  13.403  0.00  0.00    +0.000 A 
BRANCH  16  23
ATOM     22  C   UNL     1       5.614   2.272  11.567  0.00  0.00    +0.000 C 
ATOM     23  O   UNL     1       6.709   3.151  11.808  0.00  0.00    +0.000 OA
ENDBRANCH  16  23
ENDBRANCH  14  19
ENDBRANCH   1  14
TORSDOF 3
ENDMDL
MODEL 7
REMARK VINA RESULT:      -7.0      3.856      7.544
REMARK  Name = 
REMARK  4 active torsions:
REMARK  status: ('A' for Active; 'I' for Inactive)
REMARK    1  A    between atoms: C_1  and  O_2
REMARK    2  A    between atoms: O_2  and  C_3
REMARK    3  A    between atoms: C_6  and  N_7
REMARK    4  A    between atoms: N_7  and  C_8
REMARK                            x       y       z     vdW  Elec       q    Type
REMARK                         _______ _______ _______ _____ _____    ______ ____
ROOT
ATOM      1  C   UNL     1       4.737   6.340  17.270  0.00  0.00    +0.000 A 
ATOM      2  N   UNL     1       4.051   7.501  17.164  0.00  0.00    +0.000 NA
ATOM      3  C   UNL     1       2.980   7.717  17.937  0.00  0.00    +0.000 A 
ATOM      4  N   UNL     1       2.474   6.896  18.854  0.00  0.00    +0.000 NA
ATOM      5  C   UNL     1       3.143   5.720  18.975  0.00  0.00    +0.000 A 
ATOM      6  C   UNL     1       4.254   5.406  18.199  0.00  0.00    +0.000 A 
ATOM      7  S   UNL     1       4.862   3.846  18.596  0.00  0.00    +0.000 S 
ATOM      8  C   UNL     1       3.685   3.617  19.800  0.00  0.00    +0.000 A 
ATOM      9  N   UNL     1       3.666   2.484  20.533  0.00  0.00    +0.000 NA
ATOM     10  C   UNL     1       2.687   2.449  21.461  0.00  0.00    +0.000 A 
ATOM     11  C   UNL     1       1.756   3.448  21.688  0.00  0.00    +0.000 A 
ATOM     12  C   UNL     1       1.810   4.597  20.905  0.00  0.00    +0.000 A 
ATOM     13  C   UNL     1       2.814   4.691  19.916  0.00  0.00    +0.000 A 
ENDROOT
BRANCH   1  14
ATOM     14  N   UNL     1       5.905   6.096  16.527  0.00  0.00    +0.000 N 
ATOM     15  H   UNL     1       6.596   6.829  16.636  0.00  0.00    +0.000 HD
BRANCH  14  19
ATOM     16  C   UNL     1       6.484   3.847  12.985  0.00  0.00    +0.000 A 
ATOM     17  C   UNL     1       7.484   4.682  13.479  0.00  0.00    +0.000 A 
ATOM     18  C   UNL     1       7.294   5.388  14.673  0.00  0.00    +0.000 A 
ATOM     19  C   UNL     1       6.086   5.300  15.381  0.00  0.00    +0.000 A 
ATOM     20  C   UNL     1       5.105   4.439  14.879  0.00  0.00    +0.000 A 
ATOM     21  C   UNL     1       5.291   3.729  13.690  0.00  0.00    +0.000 A 
BRANCH  16  23
ATOM     22  C   UNL     1       5.884   2.156  11.455  0.00  0.00    +0.000 C 
ATOM     23  O   UNL     1       6.763   3.222  11.802  0.00  0.00    +0.000 OA
ENDBRANCH  16  23
ENDBRANCH  14  19
ENDBRANCH   1  14
TORSDOF 3
ENDMDL
MODEL 8
REMARK VINA RESULT:      -7.0      2.970      6.913
REMARK  Name = 
REMARK  4 active torsions:
REMARK  status: ('A' for Active; 'I' for Inactive)
REMARK    1  A    between atoms: C_1  and  O_2
REMARK    2  A    between atoms: O_2  and  C_3
REMARK    3  A    between atoms: C_6  and  N_7
REMARK    4  A    between atoms: N_7  and  C_8
REMARK                            x       y       z     vdW  Elec       q    Type
REMARK                         _______ _______ _______ _____ _____    ______ ____
ROOT
ATOM      1  C   UNL     1       3.430   3.798  18.880  0.00  0.00    +0.000 A 
ATOM      2  N   UNL     1       3.269   3.039  19.989  0.00  0.00    +0.000 NA
ATOM      3  C   UNL     1       2.706   3.567  21.083  0.00  0.00    +0.000 A 
ATOM      4  N   UNL     1       2.254   4.810  21.232  0.00  0.00    +0.000 NA
ATOM      5  C   UNL     1       2.411   5.592  20.134  0.00  0.00    +0.000 A 
ATOM      6  C   UNL     1       3.000   5.131  18.962  0.00  0.00    +0.000 A 
ATOM      7  S   UNL     1       3.049   6.368  17.767  0.00  0.00    +0.000 S 
ATOM      8  C   UNL     1       2.268   7.480  18.787  0.00  0.00    +0.000 A 
ATOM      9  N   UNL     1       1.990   8.728  18.356  0.00  0.00    +0.000 NA
ATOM     10  C   UNL     1       1.353   9.494  19.267  0.00  0.00    +0.000 A 
ATOM     11  C   UNL     1       0.993   9.095  20.543  0.00  0.00    +0.000 A 
ATOM     12  C   UNL     1       1.304   7.801  20.947  0.00  0.00    +0.000 A 
ATOM     13  C   UNL     1       1.970   6.952  20.036  0.00  0.00    +0.000 A 
ENDROOT
BRANCH   1  14
ATOM     14  N   UNL     1       3.955   3.269  17.688  0.00  0.00    +0.000 N 
ATOM     15  H   UNL     1       3.841   2.264  17.625  0.00  0.00    +0.000 HD
BRANCH  14  19
ATOM     16  C   UNL     1       6.939   4.990  15.225  0.00  0.00    +0.000 A 
ATOM     17  C   UNL     1       7.117   4.882  16.603  0.00  0.00    +0.000 A 
ATOM     18  C   UNL     1       6.139   4.274  17.399  0.00  0.00    +0.000 A 
ATOM     19  C   UNL     1       4.947   3.791  16.839  0.00  0.00    +0.000 A 
ATOM     20  C   UNL     1       4.800   3.889  15.452  0.00  0.00    +0.000 A 
ATOM     21  C   UNL     1       5.775   4.491  14.651  0.00  0.00    +0.000 A 
BRANCH  16  23
ATOM     22  C   UNL     1       7.990   5.355  13.145  0.00  0.00    +0.000 C 
ATOM     23  O   UNL     1       7.944   5.620  14.544  0.00  0.00    +0.000 OA
ENDBRANCH  16  23
ENDBRANCH  14  19
ENDBRANCH   1  14
TORSDOF 3
ENDMDL
MODEL 9
REMARK VINA RESULT:      -6.9      1.667      2.281
REMARK  Name = 
REMARK  4 active torsions:
REMARK  status: ('A' for Active; 'I' for Inactive)
REMARK    1  A    between atoms: C_1  and  O_2
REMARK    2  A    between atoms: O_2  and  C_3
REMARK    3  A    between atoms: C_6  and  N_7
REMARK    4  A    between atoms: N_7  and  C_8
REMARK                            x       y       z     vdW  Elec       q    Type
REMARK                         _______ _______ _______ _____ _____    ______ ____
ROOT
ATOM      1  C   UNL     1       2.239   6.991  19.609  0.00  0.00    +0.000 A 
ATOM      2  N   UNL     1       1.736   6.023  20.411  0.00  0.00    +0.000 NA
ATOM      3  C   UNL     1       2.052   4.741  20.189  0.00  0.00    +0.000 A 
ATOM      4  N   UNL     1       2.845   4.264  19.233  0.00  0.00    +0.000 NA
ATOM      5  C   UNL     1       3.357   5.217  18.411  0.00  0.00    +0.000 A 
ATOM      6  C   UNL     1       3.067   6.569  18.557  0.00  0.00    +0.000 A 
ATOM      7  S   UNL     1       3.868   7.506  17.357  0.00  0.00    +0.000 S 
ATOM      8  C   UNL     1       4.610   6.133  16.683  0.00  0.00    +0.000 A 
ATOM      9  N   UNL     1       5.446   6.254  15.631  0.00  0.00    +0.000 NA
ATOM     10  C   UNL     1       5.974   5.084  15.213  0.00  0.00    +0.000 A 
ATOM     11  C   UNL     1       5.719   3.842  15.769  0.00  0.00    +0.000 A 
ATOM     12  C   UNL     1       4.847   3.765  16.850  0.00  0.00    +0.000 A 
ATOM     13  C   UNL     1       4.264   4.957  17.332  0.00  0.00    +0.000 A 
ENDROOT
BRANCH   1  14
ATOM     14  N   UNL     1       1.988   8.354  19.842  0.00  0.00    +0.000 N 
ATOM     15  H   UNL     1       2.764   8.945  19.566  0.00  0.00    +0.000 HD
BRANCH  14  19
ATOM     16  C   UNL     1      -0.642  10.329  22.510  0.00  0.00    +0.000 A 
ATOM     17  C   UNL     1      -0.750  10.504  21.131  0.00  0.00    +0.000 A 
ATOM     18  C   UNL     1       0.100   9.813  20.260  0.00  0.00    +0.000 A 
ATOM     19  C   UNL     1       1.099   8.958  20.749  0.00  0.00    +0.000 A 
ATOM     20  C   UNL     1       1.175   8.780  22.134  0.00  0.00    +0.000 A 
ATOM     21  C   UNL     1       0.325   9.464  23.009  0.00  0.00    +0.000 A 
BRANCH  16  23
ATOM     22  C   UNL     1      -1.486  12.470  23.026  0.00  0.00    +0.000 C 
ATOM     23  O   UNL     1      -1.506  11.067  23.271  0.00  0.00    +0.000 OA
ENDBRANCH  16  23
ENDBRANCH  14  19
ENDBRANCH   1  14
TORSDOF 3
ENDMDL
