MODEL 1
REMARK VINA RESULT:      -7.1      0.000      0.000
REMARK  Name = 
REMARK  8 active torsions:
REMARK  status: ('A' for Active; 'I' for Inactive)
REMARK    1  A    between atoms: C_1  and  O_2
REMARK    2  A    between atoms: O_2  and  C_3
REMARK    3  A    between atoms: C_6  and  S_7
REMARK    4  A    between atoms: S_7  and  N_10
REMARK    5  A    between atoms: N_14  and  S_15
REMARK    6  A    between atoms: S_15  and  C_18
REMARK    7  A    between atoms: C_21  and  O_22
REMARK    8  A    between atoms: O_22  and  C_23
REMARK                            x       y       z     vdW  Elec       q    Type
REMARK                         _______ _______ _______ _____ _____    ______ ____
ROOT
ATOM      1  N   UNL     1       2.154   7.089  19.423  0.00  0.00    +0.000 N 
ATOM      2  C   UNL     1       1.769   7.388  20.825  0.00  0.00    +0.000 C 
ATOM      3  C   UNL     1       0.741   8.503  20.875  0.00  0.00    +0.000 C 
ATOM      4  O   UNL     1      -0.226   8.445  21.621  0.00  0.00    +0.000 OA
ATOM      5  N   UNL     1       1.009   9.594  20.003  0.00  0.00    +0.000 N 
ATOM      6  C   UNL     1       2.110   9.539  19.007  0.00  0.00    +0.000 C 
ATOM      7  C   UNL     1       2.288   8.131  18.459  0.00  0.00    +0.000 C 
ATOM      8  O   UNL     1       2.530   7.933  17.277  0.00  0.00    +0.000 OA
ENDROOT
BRANCH   1   9
ATOM      9  S   UNL     1       2.132   5.460  18.982  0.00  0.00    +0.000 S 
ATOM     10  O   UNL     1       1.197   5.308  17.885  0.00  0.00    +0.000 OA
ATOM     11  O   UNL     1       2.006   4.629  20.158  0.00  0.00    +0.000 OA
BRANCH   9  15
ATOM     12  C   UNL     1       6.320   4.992  17.189  0.00  0.00    +0.000 A 
ATOM     13  C   UNL     1       5.186   4.671  16.439  0.00  0.00    +0.000 A 
ATOM     14  C   UNL     1       3.909   4.793  16.991  0.00  0.00    +0.000 A 
ATOM     15  C   UNL     1       3.767   5.217  18.317  0.00  0.00    +0.000 A 
ATOM     16  C   UNL     1       4.898   5.528  19.080  0.00  0.00    +0.000 A 
ATOM     17  C   UNL     1       6.176   5.409  18.515  0.00  0.00    +0.000 A 
BRANCH  12  19
ATOM     18  C   UNL     1       7.446   4.826  15.111  0.00  0.00    +0.000 C 
ATOM     19  O   UNL     1       7.510   4.833  16.532  0.00  0.00    +0.000 OA
ENDBRANCH  12  19
ENDBRANCH   9  15
ENDBRANCH   1   9
BRANCH   5  20
ATOM     20  S   UNL     1       0.143  11.040  20.057  0.00  0.00    +0.000 S 
ATOM     21  O   UNL     1      -0.615  11.132  21.283  0.00  0.00    +0.000 OA
ATOM     22  O   UNL     1       1.071  12.091  19.695  0.00  0.00    +0.000 OA
BRANCH  20  23
ATOM     23  C   UNL     1      -1.032  10.879  18.728  0.00  0.00    +0.000 A 
ATOM     24  C   UNL     1      -0.872   9.864  17.780  0.00  0.00    +0.000 A 
ATOM     25  C   UNL     1      -1.843   9.684  16.793  0.00  0.00    +0.000 A 
ATOM     26  C   UNL     1      -2.989  10.480  16.767  0.00  0.00    +0.000 A 
ATOM     27  C   UNL     1      -3.144  11.498  17.711  0.00  0.00    +0.000 A 
ATOM     28  C   UNL     1      -2.164  11.702  18.691  0.00  0.00    +0.000 A 
BRANCH  26  29
ATOM     29  O   UNL     1      -3.876  10.195  15.764  0.00  0.00    +0.000 OA
ATOM     30  C   UNL     1      -3.349  10.210  14.441  0.00  0.00    +0.000 C 
ENDBRANCH  26  29
ENDBRANCH  20  23
ENDBRANCH   5  20
TORSDOF 6
ENDMDL
MODEL 2
REMARK VINA RESULT:      -6.9      0.693      1.169
REMARK  Name = 
REMARK  8 active torsions:
REMARK  status: ('A' for Active; 'I' for Inactive)
REMARK    1  A    between atoms: C_1  and  O_2
REMARK    2  A    between atoms: O_2  and  C_3
REMARK    3  A    between atoms: C_6  and  S_7
REMARK    4  A    between atoms: S_7  and  N_10
REMARK    5  A    between atoms: N_14  and  S_15
REMARK    6  A    between atoms: S_15  and  C_18
REMARK    7  A    between atoms: C_21  and  O_22
REMARK    8  A    between atoms: O_22  and  C_23
REMARK                            x       y       z     vdW  Elec       q    Type
REMARK                         _______ _______ _______ _____ _____    ______ ____
ROOT
ATOM      1  N   UNL     1       2.306   7.087  19.194  0.00  0.00    +0.000 N 
ATOM      2  C   UNL     1       1.971   7.406  20.604  0.00  0.00    +0.000 C 
ATOM      3  C   UNL     1       1.019   8.586  20.678  0.00  0.00    +0.000 C 
ATOM      4  O   UNL     1       0.066   8.588  21.443  0.00  0.00    +0.000 OA
ATOM      5  N   UNL     1       1.340   9.659  19.802  0.00  0.00    +0.000 N 
ATOM      6  C   UNL     1       2.414   9.535  18.782  0.00  0.00    +0.000 C 
ATOM      7  C   UNL     1       2.487   8.120  18.229  0.00  0.00    +0.000 C 
ATOM      8  O   UNL     1       2.692   7.911  17.041  0.00  0.00    +0.000 OA
ENDROOT
BRANCH   1   9
ATOM      9  S   UNL     1       2.169   5.464  18.751  0.00  0.00    +0.000 S 
ATOM     10  O   UNL     1       1.189   5.374  17.687  0.00  0.00    +0.000 OA
ATOM     11  O   UNL     1       2.032   4.638  19.929  0.00  0.00    +0.000 OA
BRANCH   9  15
ATOM     12  C   UNL     1       6.243   4.730  16.791  0.00  0.00    +0.000 A 
ATOM     13  C   UNL     1       5.068   4.288  16.177  0.00  0.00    +0.000 A 
ATOM     14  C   UNL     1       3.826   4.492  16.782  0.00  0.00    +0.000 A 
ATOM     15  C   UNL     1       3.762   5.124  18.030  0.00  0.00    +0.000 A 
ATOM     16  C   UNL     1       4.934   5.557  18.659  0.00  0.00    +0.000 A 
ATOM     17  C   UNL     1       6.176   5.354  18.039  0.00  0.00    +0.000 A 
BRANCH  12  19
ATOM     18  C   UNL     1       7.350   4.738  14.696  0.00  0.00    +0.000 C 
ATOM     19  O   UNL     1       7.391   4.472  16.093  0.00  0.00    +0.000 OA
ENDBRANCH  12  19
ENDBRANCH   9  15
ENDBRANCH   1   9
BRANCH   5  20
ATOM     20  S   UNL     1       0.571  11.158  19.876  0.00  0.00    +0.000 S 
ATOM     21  O   UNL     1       0.151  11.447  21.227  0.00  0.00    +0.000 OA
ATOM     22  O   UNL     1       1.417  12.092  19.162  0.00  0.00    +0.000 OA
BRANCH  20  23
ATOM     23  C   UNL     1      -0.907  10.925  18.908  0.00  0.00    +0.000 A 
ATOM     24  C   UNL     1      -2.033  11.712  19.164  0.00  0.00    +0.000 A 
ATOM     25  C   UNL     1      -3.159  11.591  18.346  0.00  0.00    +0.000 A 
ATOM     26  C   UNL     1      -3.155  10.722  17.254  0.00  0.00    +0.000 A 
ATOM     27  C   UNL     1      -2.031   9.932  17.004  0.00  0.00    +0.000 A 
ATOM     28  C   UNL     1      -0.905  10.029  17.833  0.00  0.00    +0.000 A 
BRANCH  26  29
ATOM     29  O   UNL     1      -4.308  10.706  16.516  0.00  0.00    +0.000 OA
ATOM     30  C   UNL     1      -5.291  11.672  16.872  0.00  0.00    +0.000 C 
ENDBRANCH  26  29
ENDBRANCH  20  23
ENDBRANCH   5  20
TORSDOF 6
ENDMDL
MODEL 3
REMARK VINA RESULT:      -6.8      2.346      3.692
REMARK  Name = 
REMARK  8 active torsions:
REMARK  status: ('A' for Active; 'I' for Inactive)
REMARK    1  A    between atoms: C_1  and  O_2
REMARK    2  A    between atoms: O_2  and  C_3
REMARK    3  A    between atoms: C_6  and  S_7
REMARK    4  A    between atoms: S_7  and  N_10
REMARK    5  A    between atoms: N_14  and  S_15
REMARK    6  A    between atoms: S_15  and  C_18
REMARK    7  A    between atoms: C_21  and  O_22
REMARK    8  A    between atoms: O_22  and  C_23
REMARK                            x       y       z     vdW  Elec       q    Type
REMARK                         _______ _______ _______ _____ _____    ______ ____
ROOT
ATOM      1  N   UNL     1       2.268   6.916  19.688  0.00  0.00    +0.000 N 
ATOM      2  C   UNL     1       1.867   7.476  21.002  0.00  0.00    +0.000 C 
ATOM      3  C   UNL     1       0.745   8.484  20.839  0.00  0.00    +0.000 C 
ATOM      4  O   UNL     1      -0.209   8.505  21.603  0.00  0.00    +0.000 OA
ATOM      5  N   UNL     1       0.910   9.381  19.748  0.00  0.00    +0.000 N 
ATOM      6  C   UNL     1       2.006   9.206  18.759  0.00  0.00    +0.000 C 
ATOM      7  C   UNL     1       2.304   7.734  18.521  0.00  0.00    +0.000 C 
ATOM      8  O   UNL     1       2.556   7.308  17.402  0.00  0.00    +0.000 OA
ENDROOT
BRANCH   1   9
ATOM      9  S   UNL     1       2.388   5.235  19.606  0.00  0.00    +0.000 S 
ATOM     10  O   UNL     1       1.332   4.756  18.735  0.00  0.00    +0.000 OA
ATOM     11  O   UNL     1       2.536   4.682  20.933  0.00  0.00    +0.000 OA
BRANCH   9  15
ATOM     12  C   UNL     1       6.312   4.769  17.291  0.00  0.00    +0.000 A 
ATOM     13  C   UNL     1       5.112   4.292  16.759  0.00  0.00    +0.000 A 
ATOM     14  C   UNL     1       3.917   4.414  17.472  0.00  0.00    +0.000 A 
ATOM     15  C   UNL     1       3.929   4.998  18.743  0.00  0.00    +0.000 A 
ATOM     16  C   UNL     1       5.128   5.467  19.290  0.00  0.00    +0.000 A 
ATOM     17  C   UNL     1       6.321   5.347  18.563  0.00  0.00    +0.000 A 
BRANCH  12  19
ATOM     18  C   UNL     1       7.192   4.720  15.091  0.00  0.00    +0.000 C 
ATOM     19  O   UNL     1       7.409   4.592  16.492  0.00  0.00    +0.000 OA
ENDBRANCH  12  19
ENDBRANCH   9  15
ENDBRANCH   1   9
BRANCH   5  20
ATOM     20  S   UNL     1      -0.080  10.725  19.512  0.00  0.00    +0.000 S 
ATOM     21  O   UNL     1      -0.721  10.663  18.219  0.00  0.00    +0.000 OA
ATOM     22  O   UNL     1      -0.878  10.866  20.713  0.00  0.00    +0.000 OA
BRANCH  20  23
ATOM     23  C   UNL     1       1.062  12.091  19.464  0.00  0.00    +0.000 A 
ATOM     24  C   UNL     1       1.625  12.566  20.652  0.00  0.00    +0.000 A 
ATOM     25  C   UNL     1       2.589  13.576  20.603  0.00  0.00    +0.000 A 
ATOM     26  C   UNL     1       3.023  14.087  19.379  0.00  0.00    +0.000 A 
ATOM     27  C   UNL     1       2.454  13.616  18.193  0.00  0.00    +0.000 A 
ATOM     28  C   UNL     1       1.470  12.619  18.233  0.00  0.00    +0.000 A 
BRANCH  26  29
ATOM     29  O   UNL     1       3.984  15.058  19.459  0.00  0.00    +0.000 OA
ATOM     30  C   UNL     1       4.634  15.396  18.238  0.00  0.00    +0.000 C 
ENDBRANCH  26  29
ENDBRANCH  20  23
ENDBRANCH   5  20
TORSDOF 6
ENDMDL
MODEL 4
REMARK VINA RESULT:      -6.8      2.438      8.052
REMARK  Name = 
REMARK  8 active torsions:
REMARK  status: ('A' for Active; 'I' for Inactive)
REMARK    1  A    between atoms: C_1  and  O_2
REMARK    2  A    between atoms: O_2  and  C_3
REMARK    3  A    between atoms: C_6  and  S_7
REMARK    4  A    between atoms: S_7  and  N_10
REMARK    5  A    between atoms: N_14  and  S_15
REMARK    6  A    between atoms: S_15  and  C_18
REMARK    7  A    between atoms: C_21  and  O_22
REMARK    8  A    between atoms: O_22  and  C_23
REMARK                            x       y       z     vdW  Elec       q    Type
REMARK                         _______ _______ _______ _____ _____    ______ ____
ROOT
ATOM      1  N   UNL     1       1.162   9.220  19.802  0.00  0.00    +0.000 N 
ATOM      2  C   UNL     1       2.188   8.896  18.780  0.00  0.00    +0.000 C 
ATOM      3  C   UNL     1       2.221   7.404  18.503  0.00  0.00    +0.000 C 
ATOM      4  O   UNL     1       2.313   6.969  17.364  0.00  0.00    +0.000 OA
ATOM      5  N   UNL     1       2.144   6.586  19.664  0.00  0.00    +0.000 N 
ATOM      6  C   UNL     1       1.872   7.165  21.005  0.00  0.00    +0.000 C 
ATOM      7  C   UNL     1       0.930   8.355  20.911  0.00  0.00    +0.000 C 
ATOM      8  O   UNL     1       0.049   8.537  21.740  0.00  0.00    +0.000 OA
ENDROOT
BRANCH   1   9
ATOM      9  S   UNL     1       0.112  10.485  19.420  0.00  0.00    +0.000 S 
ATOM     10  O   UNL     1      -0.814  10.644  20.524  0.00  0.00    +0.000 OA
ATOM     11  O   UNL     1      -0.390  10.325  18.074  0.00  0.00    +0.000 OA
BRANCH   9  15
ATOM     12  C   UNL     1       3.022  14.021  19.508  0.00  0.00    +0.000 A 
ATOM     13  C   UNL     1       2.390  13.590  20.678  0.00  0.00    +0.000 A 
ATOM     14  C   UNL     1       1.487  12.526  20.650  0.00  0.00    +0.000 A 
ATOM     15  C   UNL     1       1.193  11.901  19.432  0.00  0.00    +0.000 A 
ATOM     16  C   UNL     1       1.810  12.335  18.254  0.00  0.00    +0.000 A 
ATOM     17  C   UNL     1       2.722  13.399  18.293  0.00  0.00    +0.000 A 
BRANCH  12  19
ATOM     18  C   UNL     1       4.560  15.516  18.500  0.00  0.00    +0.000 C 
ATOM     19  O   UNL     1       3.886  15.069  19.671  0.00  0.00    +0.000 OA
ENDBRANCH  12  19
ENDBRANCH   9  15
ENDBRANCH   1   9
BRANCH   5  20
ATOM     20  S   UNL     1       2.397   4.919  19.625  0.00  0.00    +0.000 S 
ATOM     21  O   UNL     1       2.608   4.406  20.958  0.00  0.00    +0.000 OA
ATOM     22  O   UNL     1       1.353   4.363  18.788  0.00  0.00    +0.000 OA
BRANCH  20  23
ATOM     23  C   UNL     1       3.938   4.744  18.748  0.00  0.00    +0.000 A 
ATOM     24  C   UNL     1       3.954   4.133  17.491  0.00  0.00    +0.000 A 
ATOM     25  C   UNL     1       5.147   4.079  16.766  0.00  0.00    +0.000 A 
ATOM     26  C   UNL     1       6.311   4.662  17.267  0.00  0.00    +0.000 A 
ATOM     27  C   UNL     1       6.295   5.266  18.526  0.00  0.00    +0.000 A 
ATOM     28  C   UNL     1       5.108   5.306  19.271  0.00  0.00    +0.000 A 
BRANCH  26  29
ATOM     29  O   UNL     1       7.410   4.561  16.457  0.00  0.00    +0.000 OA
ATOM     30  C   UNL     1       7.182   4.761  15.066  0.00  0.00    +0.000 C 
ENDBRANCH  26  29
ENDBRANCH  20  23
ENDBRANCH   5  20
TORSDOF 6
ENDMDL
MODEL 5
REMARK VINA RESULT:      -6.6      3.162      8.032
REMARK  Name = 
REMARK  8 active torsions:
REMARK  status: ('A' for Active; 'I' for Inactive)
REMARK    1  A    between atoms: C_1  and  O_2
REMARK    2  A    between atoms: O_2  and  C_3
REMARK    3  A    between atoms: C_6  and  S_7
REMARK    4  A    between atoms: S_7  and  N_10
REMARK    5  A    between atoms: N_14  and  S_15
REMARK    6  A    between atoms: S_15  and  C_18
REMARK    7  A    between atoms: C_21  and  O_22
REMARK    8  A    between atoms: O_22  and  C_23
REMARK                            x       y       z     vdW  Elec       q    Type
REMARK                         _______ _______ _______ _____ _____    ______ ____
ROOT
ATOM      1  N   UNL     1       3.416   3.752  19.086  0.00  0.00    +0.000 N 
ATOM      2  C   UNL     1       4.720   3.912  19.777  0.00  0.00    +0.000 C 
ATOM      3  C   UNL     1       5.664   4.768  18.954  0.00  0.00    +0.000 C 
ATOM      4  O   UNL     1       6.356   5.632  19.474  0.00  0.00    +0.000 OA
ATOM      5  N   UNL     1       5.671   4.472  17.564  0.00  0.00    +0.000 N 
ATOM      6  C   UNL     1       4.694   3.524  16.967  0.00  0.00    +0.000 C 
ATOM      7  C   UNL     1       3.348   3.605  17.670  0.00  0.00    +0.000 C 
ATOM      8  O   UNL     1       2.298   3.544  17.044  0.00  0.00    +0.000 OA
ENDROOT
BRANCH   1   9
ATOM      9  S   UNL     1       2.042   4.044  20.022  0.00  0.00    +0.000 S 
ATOM     10  O   UNL     1       2.348   3.672  21.389  0.00  0.00    +0.000 OA
ATOM     11  O   UNL     1       0.873   3.500  19.370  0.00  0.00    +0.000 OA
BRANCH   9  15
ATOM     12  C   UNL     1       1.570   8.594  19.804  0.00  0.00    +0.000 A 
ATOM     13  C   UNL     1       2.189   7.893  18.766  0.00  0.00    +0.000 A 
ATOM     14  C   UNL     1       2.353   6.508  18.839  0.00  0.00    +0.000 A 
ATOM     15  C   UNL     1       1.914   5.821  19.977  0.00  0.00    +0.000 A 
ATOM     16  C   UNL     1       1.306   6.516  21.027  0.00  0.00    +0.000 A 
ATOM     17  C   UNL     1       1.139   7.906  20.941  0.00  0.00    +0.000 A 
BRANCH  12  19
ATOM     18  C   UNL     1       0.554  10.365  18.601  0.00  0.00    +0.000 C 
ATOM     19  O   UNL     1       1.468   9.945  19.608  0.00  0.00    +0.000 OA
ENDBRANCH  12  19
ENDBRANCH   9  15
ENDBRANCH   1   9
BRANCH   5  20
ATOM     20  S   UNL     1       6.801   5.126  16.497  0.00  0.00    +0.000 S 
ATOM     21  O   UNL     1       6.630   6.556  16.391  0.00  0.00    +0.000 OA
ATOM     22  O   UNL     1       8.088   4.573  16.868  0.00  0.00    +0.000 OA
BRANCH  20  23
ATOM     23  C   UNL     1       6.351   4.428  14.921  0.00  0.00    +0.000 A 
ATOM     24  C   UNL     1       5.017   4.096  14.666  0.00  0.00    +0.000 A 
ATOM     25  C   UNL     1       4.652   3.635  13.399  0.00  0.00    +0.000 A 
ATOM     26  C   UNL     1       5.596   3.539  12.377  0.00  0.00    +0.000 A 
ATOM     27  C   UNL     1       6.930   3.865  12.635  0.00  0.00    +0.000 A 
ATOM     28  C   UNL     1       7.311   4.307  13.909  0.00  0.00    +0.000 A 
BRANCH  26  29
ATOM     29  O   UNL     1       5.114   3.093  11.176  0.00  0.00    +0.000 OA
ATOM     30  C   UNL     1       3.729   3.321  10.935  0.00  0.00    +0.000 C 
ENDBRANCH  26  29
ENDBRANCH  20  23
ENDBRANCH   5  20
TORSDOF 6
ENDMDL
MODEL 6
REMARK VINA RESULT:      -6.6      4.910      7.352
REMARK  Name = 
REMARK  8 active torsions:
REMARK  status: ('A' for Active; 'I' for Inactive)
REMARK    1  A    between atoms: C_1  and  O_2
REMARK    2  A    between atoms: O_2  and  C_3
REMARK    3  A    between atoms: C_6  and  S_7
REMARK    4  A    between atoms: S_7  and  N_10
REMARK    5  A    between atoms: N_14  and  S_15
REMARK    6  A    between atoms: S_15  and  C_18
REMARK    7  A    between atoms: C_21  and  O_22
REMARK    8  A    between atoms: O_22  and  C_23
REMARK                            x       y       z     vdW  Elec       q    Type
REMARK                         _______ _______ _______ _____ _____    ______ ____
ROOT
ATOM      1  N   UNL     1       0.706  11.514  20.241  0.00  0.00    +0.000 N 
ATOM      2  C   UNL     1       0.547  11.092  21.655  0.00  0.00    +0.000 C 
ATOM      3  C   UNL     1      -0.510  11.929  22.351  0.00  0.00    +0.000 C 
ATOM      4  O   UNL     1      -1.336  11.421  23.096  0.00  0.00    +0.000 OA
ATOM      5  N   UNL     1      -0.443  13.321  22.068  0.00  0.00    +0.000 N 
ATOM      6  C   UNL     1       0.478  13.859  21.033  0.00  0.00    +0.000 C 
ATOM      7  C   UNL     1       0.628  12.888  19.871  0.00  0.00    +0.000 C 
ATOM      8  O   UNL     1       0.680  13.283  18.714  0.00  0.00    +0.000 OA
ENDROOT
BRANCH   1   9
ATOM      9  S   UNL     1       0.689  10.276  19.094  0.00  0.00    +0.000 S 
ATOM     10  O   UNL     1       0.740   9.013  19.802  0.00  0.00    +0.000 OA
ATOM     11  O   UNL     1       1.646  10.556  18.048  0.00  0.00    +0.000 OA
BRANCH   9  15
ATOM     12  C   UNL     1      -3.457  10.805  17.223  0.00  0.00    +0.000 A 
ATOM     13  C   UNL     1      -3.139  11.425  18.434  0.00  0.00    +0.000 A 
ATOM     14  C   UNL     1      -1.883  11.248  19.017  0.00  0.00    +0.000 A 
ATOM     15  C   UNL     1      -0.942  10.422  18.393  0.00  0.00    +0.000 A 
ATOM     16  C   UNL     1      -1.256   9.786  17.186  0.00  0.00    +0.000 A 
ATOM     17  C   UNL     1      -2.518   9.976  16.605  0.00  0.00    +0.000 A 
BRANCH  12  19
ATOM     18  C   UNL     1      -5.435  12.095  17.422  0.00  0.00    +0.000 C 
ATOM     19  O   UNL     1      -4.718  11.062  16.756  0.00  0.00    +0.000 OA
ENDBRANCH  12  19
ENDBRANCH   9  15
ENDBRANCH   1   9
BRANCH   5  20
ATOM     20  S   UNL     1      -1.356  14.467  22.901  0.00  0.00    +0.000 S 
ATOM     21  O   UNL     1      -1.047  14.434  24.312  0.00  0.00    +0.000 OA
ATOM     22  O   UNL     1      -1.240  15.707  22.160  0.00  0.00    +0.000 OA
BRANCH  20  23
ATOM     23  C   UNL     1      -3.031  13.889  22.721  0.00  0.00    +0.000 A 
ATOM     24  C   UNL     1      -3.537  13.619  21.445  0.00  0.00    +0.000 A 
ATOM     25  C   UNL     1      -4.818  13.079  21.312  0.00  0.00    +0.000 A 
ATOM     26  C   UNL     1      -5.582  12.772  22.440  0.00  0.00    +0.000 A 
ATOM     27  C   UNL     1      -5.078  13.049  23.712  0.00  0.00    +0.000 A 
ATOM     28  C   UNL     1      -3.802  13.612  23.855  0.00  0.00    +0.000 A 
BRANCH  26  29
ATOM     29  O   UNL     1      -6.812  12.230  22.182  0.00  0.00    +0.000 OA
ATOM     30  C   UNL     1      -7.629  12.946  21.261  0.00  0.00    +0.000 C 
ENDBRANCH  26  29
ENDBRANCH  20  23
ENDBRANCH   5  20
TORSDOF 6
ENDMDL
MODEL 7
REMARK VINA RESULT:      -6.5      5.487      9.077
REMARK  Name = 
REMARK  8 active torsions:
REMARK  status: ('A' for Active; 'I' for Inactive)
REMARK    1  A    between atoms: C_1  and  O_2
REMARK    2  A    between atoms: O_2  and  C_3
REMARK    3  A    between atoms: C_6  and  S_7
REMARK    4  A    between atoms: S_7  and  N_10
REMARK    5  A    between atoms: N_14  and  S_15
REMARK    6  A    between atoms: S_15  and  C_18
REMARK    7  A    between atoms: C_21  and  O_22
REMARK    8  A    between atoms: O_22  and  C_23
REMARK                            x       y       z     vdW  Elec       q    Type
REMARK                         _______ _______ _______ _____ _____    ______ ____
ROOT
ATOM      1  N   UNL     1       0.685  13.179  19.822  0.00  0.00    +0.000 N 
ATOM      2  C   UNL     1       1.974  12.643  20.324  0.00  0.00    +0.000 C 
ATOM      3  C   UNL     1       2.920  13.770  20.694  0.00  0.00    +0.000 C 
ATOM      4  O   UNL     1       3.590  13.730  21.716  0.00  0.00    +0.000 OA
ATOM      5  N   UNL     1       2.954  14.843  19.761  0.00  0.00    +0.000 N 
ATOM      6  C   UNL     1       2.002  14.912  18.622  0.00  0.00    +0.000 C 
ATOM      7  C   UNL     1       0.643  14.347  19.006  0.00  0.00    +0.000 C 
ATOM      8  O   UNL     1      -0.395  14.872  18.626  0.00  0.00    +0.000 OA
ENDROOT
BRANCH   1   9
ATOM      9  S   UNL     1      -0.708  12.513  20.502  0.00  0.00    +0.000 S 
ATOM     10  O   UNL     1      -1.579  13.604  20.892  0.00  0.00    +0.000 OA
ATOM     11  O   UNL     1      -0.352  11.495  21.465  0.00  0.00    +0.000 OA
BRANCH   9  15
ATOM     12  C   UNL     1      -2.710  10.297  17.030  0.00  0.00    +0.000 A 
ATOM     13  C   UNL     1      -1.406   9.979  17.419  0.00  0.00    +0.000 A 
ATOM     14  C   UNL     1      -0.786  10.668  18.464  0.00  0.00    +0.000 A 
ATOM     15  C   UNL     1      -1.470  11.703  19.110  0.00  0.00    +0.000 A 
ATOM     16  C   UNL     1      -2.771  12.037  18.718  0.00  0.00    +0.000 A 
ATOM     17  C   UNL     1      -3.388  11.336  17.673  0.00  0.00    +0.000 A 
BRANCH  12  19
ATOM     18  C   UNL     1      -3.292  10.198  14.735  0.00  0.00    +0.000 C 
ATOM     19  O   UNL     1      -3.203   9.547  15.997  0.00  0.00    +0.000 OA
ENDBRANCH  12  19
ENDBRANCH   9  15
ENDBRANCH   1   9
BRANCH   5  20
ATOM     20  S   UNL     1       4.092  16.085  19.839  0.00  0.00    +0.000 S 
ATOM     21  O   UNL     1       3.813  17.092  18.842  0.00  0.00    +0.000 OA
ATOM     22  O   UNL     1       4.204  16.455  21.235  0.00  0.00    +0.000 OA
BRANCH  20  23
ATOM     23  C   UNL     1       5.617  15.293  19.369  0.00  0.00    +0.000 A 
ATOM     24  C   UNL     1       5.785  14.835  18.059  0.00  0.00    +0.000 A 
ATOM     25  C   UNL     1       7.014  14.298  17.669  0.00  0.00    +0.000 A 
ATOM     26  C   UNL     1       8.086  14.250  18.562  0.00  0.00    +0.000 A 
ATOM     27  C   UNL     1       7.915  14.703  19.872  0.00  0.00    +0.000 A 
ATOM     28  C   UNL     1       6.678  15.222  20.280  0.00  0.00    +0.000 A 
BRANCH  26  29
ATOM     29  O   UNL     1       9.243  13.720  18.058  0.00  0.00    +0.000 OA
ATOM     30  C   UNL     1      10.346  13.661  18.957  0.00  0.00    +0.000 C 
ENDBRANCH  26  29
ENDBRANCH  20  23
ENDBRANCH   5  20
TORSDOF 6
ENDMDL
MODEL 8
REMARK VINA RESULT:      -6.5      6.754     10.338
REMARK  Name = 
REMARK  8 active torsions:
REMARK  status: ('A' for Active; 'I' for Inactive)
REMARK    1  A    between atoms: C_1  and  O_2
REMARK    2  A    between atoms: O_2  and  C_3
REMARK    3  A    between atoms: C_6  and  S_7
REMARK    4  A    between atoms: S_7  and  N_10
REMARK    5  A    between atoms: N_14  and  S_15
REMARK    6  A    between atoms: S_15  and  C_18
REMARK    7  A    between atoms: C_21  and  O_22
REMARK    8  A    between atoms: O_22  and  C_23
REMARK                            x       y       z     vdW  Elec       q    Type
REMARK                         _______ _______ _______ _____ _____    ______ ____
ROOT
ATOM      1  N   UNL     1      -7.183  12.555  19.729  0.00  0.00    +0.000 N 
ATOM      2  C   UNL     1      -7.497  14.001  19.611  0.00  0.00    +0.000 C 
ATOM      3  C   UNL     1      -7.058  14.751  20.855  0.00  0.00    +0.000 C 
ATOM      4  O   UNL     1      -6.497  15.835  20.781  0.00  0.00    +0.000 OA
ATOM      5  N   UNL     1      -7.361  14.094  22.079  0.00  0.00    +0.000 N 
ATOM      6  C   UNL     1      -7.898  12.709  22.105  0.00  0.00    +0.000 C 
ATOM      7  C   UNL     1      -7.319  11.873  20.974  0.00  0.00    +0.000 C 
ATOM      8  O   UNL     1      -7.005  10.702  21.143  0.00  0.00    +0.000 OA
ENDROOT
BRANCH   1   9
ATOM      9  S   UNL     1      -6.393  11.860  18.410  0.00  0.00    +0.000 S 
ATOM     10  O   UNL     1      -6.607  12.718  17.261  0.00  0.00    +0.000 OA
ATOM     11  O   UNL     1      -6.709  10.452  18.328  0.00  0.00    +0.000 OA
BRANCH   9  15
ATOM     12  C   UNL     1      -2.003  12.104  19.690  0.00  0.00    +0.000 A 
ATOM     13  C   UNL     1      -3.003  12.699  20.463  0.00  0.00    +0.000 A 
ATOM     14  C   UNL     1      -4.340  12.644  20.064  0.00  0.00    +0.000 A 
ATOM     15  C   UNL     1      -4.677  12.007  18.864  0.00  0.00    +0.000 A 
ATOM     16  C   UNL     1      -3.681  11.420  18.077  0.00  0.00    +0.000 A 
ATOM     17  C   UNL     1      -2.342  11.474  18.490  0.00  0.00    +0.000 A 
BRANCH  12  19
ATOM     18  C   UNL     1      -0.250  11.119  20.945  0.00  0.00    +0.000 C 
ATOM     19  O   UNL     1      -0.736  12.225  20.193  0.00  0.00    +0.000 OA
ENDBRANCH  12  19
ENDBRANCH   9  15
ENDBRANCH   1   9
BRANCH   5  20
ATOM     20  S   UNL     1      -7.183  14.837  23.583  0.00  0.00    +0.000 S 
ATOM     21  O   UNL     1      -7.599  16.219  23.518  0.00  0.00    +0.000 OA
ATOM     22  O   UNL     1      -7.776  13.944  24.557  0.00  0.00    +0.000 OA
BRANCH  20  23
ATOM     23  C   UNL     1      -5.423  14.833  23.852  0.00  0.00    +0.000 A 
ATOM     24  C   UNL     1      -4.789  15.994  24.307  0.00  0.00    +0.000 A 
ATOM     25  C   UNL     1      -3.425  15.962  24.605  0.00  0.00    +0.000 A 
ATOM     26  C   UNL     1      -2.698  14.776  24.489  0.00  0.00    +0.000 A 
ATOM     27  C   UNL     1      -3.331  13.620  24.028  0.00  0.00    +0.000 A 
ATOM     28  C   UNL     1      -4.695  13.647  23.704  0.00  0.00    +0.000 A 
BRANCH  26  29
ATOM     29  O   UNL     1      -1.375  14.867  24.827  0.00  0.00    +0.000 OA
ATOM     30  C   UNL     1      -1.076  15.657  25.973  0.00  0.00    +0.000 C 
ENDBRANCH  26  29
ENDBRANCH  20  23
ENDBRANCH   5  20
TORSDOF 6
ENDMDL
MODEL 9
REMARK VINA RESULT:      -6.5      5.500      7.178
REMARK  Name = 
REMARK  8 active torsions:
REMARK  status: ('A' for Active; 'I' for Inactive)
REMARK    1  A    between atoms: C_1  and  O_2
REMARK    2  A    between atoms: O_2  and  C_3
REMARK    3  A    between atoms: C_6  and  S_7
REMARK    4  A    between atoms: S_7  and  N_10
REMARK    5  A    between atoms: N_14  and  S_15
REMARK    6  A    between atoms: S_15  and  C_18
REMARK    7  A    between atoms: C_21  and  O_22
REMARK    8  A    between atoms: O_22  and  C_23
REMARK                            x       y       z     vdW  Elec       q    Type
REMARK                         _______ _______ _______ _____ _____    ______ ____
ROOT
ATOM      1  N   UNL     1       2.998  14.671  19.650  0.00  0.00    +0.000 N 
ATOM      2  C   UNL     1       1.995  14.643  18.556  0.00  0.00    +0.000 C 
ATOM      3  C   UNL     1       0.616  14.315  19.098  0.00  0.00    +0.000 C 
ATOM      4  O   UNL     1      -0.378  14.915  18.715  0.00  0.00    +0.000 OA
ATOM      5  N   UNL     1       0.592  13.268  20.060  0.00  0.00    +0.000 N 
ATOM      6  C   UNL     1       1.846  12.686  20.605  0.00  0.00    +0.000 C 
ATOM      7  C   UNL     1       2.935  13.741  20.729  0.00  0.00    +0.000 C 
ATOM      8  O   UNL     1       3.691  13.766  21.690  0.00  0.00    +0.000 OA
ENDROOT
BRANCH   1   9
ATOM      9  S   UNL     1       4.011  16.020  19.690  0.00  0.00    +0.000 S 
ATOM     10  O   UNL     1       4.136  16.442  21.071  0.00  0.00    +0.000 OA
ATOM     11  O   UNL     1       3.609  16.972  18.679  0.00  0.00    +0.000 OA
BRANCH   9  15
ATOM     12  C   UNL     1       8.008  14.118  18.518  0.00  0.00    +0.000 A 
ATOM     13  C   UNL     1       7.826  14.662  19.793  0.00  0.00    +0.000 A 
ATOM     14  C   UNL     1       6.615  15.261  20.145  0.00  0.00    +0.000 A 
ATOM     15  C   UNL     1       5.583  15.339  19.203  0.00  0.00    +0.000 A 
ATOM     16  C   UNL     1       5.762  14.810  17.920  0.00  0.00    +0.000 A 
ATOM     17  C   UNL     1       6.978  14.203  17.578  0.00  0.00    +0.000 A 
BRANCH  12  19
ATOM     18  C   UNL     1      10.054  13.368  19.452  0.00  0.00    +0.000 C 
ATOM     19  O   UNL     1       9.238  13.557  18.301  0.00  0.00    +0.000 OA
ENDBRANCH  12  19
ENDBRANCH   9  15
ENDBRANCH   1   9
BRANCH   5  20
ATOM     20  S   UNL     1      -0.839  12.578  20.623  0.00  0.00    +0.000 S 
ATOM     21  O   UNL     1      -0.559  11.558  21.607  0.00  0.00    +0.000 OA
ATOM     22  O   UNL     1      -1.729  13.675  20.946  0.00  0.00    +0.000 OA
BRANCH  20  23
ATOM     23  C   UNL     1      -1.504  11.752  19.191  0.00  0.00    +0.000 A 
ATOM     24  C   UNL     1      -0.745  10.774  18.540  0.00  0.00    +0.000 A 
ATOM     25  C   UNL     1      -1.303  10.065  17.475  0.00  0.00    +0.000 A 
ATOM     26  C   UNL     1      -2.621  10.295  17.078  0.00  0.00    +0.000 A 
ATOM     27  C   UNL     1      -3.376  11.277  17.725  0.00  0.00    +0.000 A 
ATOM     28  C   UNL     1      -2.817  12.011  18.780  0.00  0.00    +0.000 A 
BRANCH  26  29
ATOM     29  O   UNL     1      -3.061   9.525  16.036  0.00  0.00    +0.000 OA
ATOM     30  C   UNL     1      -3.058  10.148  14.755  0.00  0.00    +0.000 C 
ENDBRANCH  26  29
ENDBRANCH  20  23
ENDBRANCH   5  20
TORSDOF 6
ENDMDL
