MODEL 1
REMARK VINA RESULT:      -5.2      0.000      0.000
REMARK  Name = 
REMARK  9 active torsions:
REMARK  status: ('A' for Active; 'I' for Inactive)
REMARK    1  A    between atoms: C_1  and  C_2
REMARK    2  A    between atoms: C_2  and  O_3
REMARK    3  A    between atoms: O_3  and  C_4
REMARK    4  A    between atoms: C_4  and  C_6
REMARK    5  A    between atoms: C_6  and  C_7
REMARK    6  A    between atoms: C_6  and  N_8
REMARK    7  A    between atoms: N_8  and  C_16
REMARK    8  A    between atoms: C_9  and  C_11
REMARK    9  A    between atoms: C_17  and  C_18
REMARK                            x       y       z     vdW  Elec       q    Type
REMARK                         _______ _______ _______ _____ _____    ______ ____
ROOT
ATOM      1  N   UNL     1       3.193   5.402  18.383  0.00  0.00    +0.000 N 
ATOM      2  C   UNL     1       4.598   5.587  18.383  0.00  0.00    +0.000 C 
ATOM      3  O   UNL     1       5.117   6.222  19.309  0.00  0.00    +0.000 OA
ENDROOT
BRANCH   1   4
ATOM      4  C   UNL     1       2.444   6.255  19.287  0.00  0.00    +0.000 A 
ATOM      5  C   UNL     1       1.959   5.783  20.530  0.00  0.00    +0.000 A 
ATOM      6  C   UNL     1       2.218   4.409  21.077  0.00  0.00    +0.000 C 
ATOM      7  C   UNL     1       1.236   6.655  21.374  0.00  0.00    +0.000 A 
ATOM      8  C   UNL     1       1.056   7.993  21.044  0.00  0.00    +0.000 A 
ATOM      9  C   UNL     1       1.579   8.484  19.856  0.00  0.00    +0.000 A 
ATOM     10  C   UNL     1       2.257   7.627  18.980  0.00  0.00    +0.000 A 
ATOM     11 CL   UNL     1       2.809   8.335  17.497  0.00  0.00    +0.000 Cl
ENDBRANCH   1   4
BRANCH   2  12
ATOM     12  C   UNL     1       5.439   5.094  17.287  0.00  0.00    +0.000 A 
ATOM     13  C   UNL     1       6.409   4.114  17.191  0.00  0.00    +0.000 A 
ATOM     14  C   UNL     1       7.009   4.037  15.896  0.00  0.00    +0.000 A 
ATOM     15  C   UNL     1       6.504   4.981  15.035  0.00  0.00    +0.000 A 
ATOM     16  S   UNL     1       5.292   5.926  15.773  0.00  0.00    +0.000 S 
ENDBRANCH   2  12
BRANCH   1  17
ATOM     17  C   UNL     1       2.396   4.501  17.507  0.00  0.00    +0.000 C 
ATOM     18  C   UNL     1       1.023   5.043  17.098  0.00  0.00    +0.000 C 
BRANCH  17  19
ATOM     19  C   UNL     1       2.304   3.020  17.916  0.00  0.00    +0.000 C 
ATOM     20  O   UNL     1       1.261   2.475  18.265  0.00  0.00    +0.000 OA
BRANCH  19  21
ATOM     21  O   UNL     1       3.463   2.356  17.672  0.00  0.00    +0.000 OA
BRANCH  21  23
ATOM     22  C   UNL     1       4.472   2.105  19.849  0.00  0.00    +0.000 C 
ATOM     23  C   UNL     1       3.831   1.391  18.669  0.00  0.00    +0.000 C 
ENDBRANCH  21  23
ENDBRANCH  19  21
ENDBRANCH  17  19
ENDBRANCH   1  17
TORSDOF 6
ENDMDL
MODEL 2
REMARK VINA RESULT:      -5.1      1.983      3.993
REMARK  Name = 
REMARK  9 active torsions:
REMARK  status: ('A' for Active; 'I' for Inactive)
REMARK    1  A    between atoms: C_1  and  C_2
REMARK    2  A    between atoms: C_2  and  O_3
REMARK    3  A    between atoms: O_3  and  C_4
REMARK    4  A    between atoms: C_4  and  C_6
REMARK    5  A    between atoms: C_6  and  C_7
REMARK    6  A    between atoms: C_6  and  N_8
REMARK    7  A    between atoms: N_8  and  C_16
REMARK    8  A    between atoms: C_9  and  C_11
REMARK    9  A    between atoms: C_17  and  C_18
REMARK                            x       y       z     vdW  Elec       q    Type
REMARK                         _______ _______ _______ _____ _____    ______ ____
ROOT
ATOM      1  N   UNL     1       4.100   4.723  18.135  0.00  0.00    +0.000 N 
ATOM      2  C   UNL     1       4.198   3.914  16.975  0.00  0.00    +0.000 C 
ATOM      3  O   UNL     1       3.351   3.033  16.788  0.00  0.00    +0.000 OA
ENDROOT
BRANCH   1   4
ATOM      4  C   UNL     1       3.210   4.235  19.171  0.00  0.00    +0.000 A 
ATOM      5  C   UNL     1       3.525   3.097  19.952  0.00  0.00    +0.000 A 
ATOM      6  C   UNL     1       4.813   2.329  19.855  0.00  0.00    +0.000 C 
ATOM      7  C   UNL     1       2.625   2.662  20.949  0.00  0.00    +0.000 A 
ATOM      8  C   UNL     1       1.466   3.376  21.234  0.00  0.00    +0.000 A 
ATOM      9  C   UNL     1       1.174   4.527  20.517  0.00  0.00    +0.000 A 
ATOM     10  C   UNL     1       2.028   4.950  19.490  0.00  0.00    +0.000 A 
ATOM     11 CL   UNL     1       1.530   6.364  18.619  0.00  0.00    +0.000 Cl
ENDBRANCH   1   4
BRANCH   2  12
ATOM     12  C   UNL     1       5.308   4.059  16.027  0.00  0.00    +0.000 A 
ATOM     13  C   UNL     1       6.685   4.061  16.157  0.00  0.00    +0.000 A 
ATOM     14  C   UNL     1       7.369   4.303  14.925  0.00  0.00    +0.000 A 
ATOM     15  C   UNL     1       6.499   4.511  13.883  0.00  0.00    +0.000 A 
ATOM     16  S   UNL     1       4.873   4.378  14.380  0.00  0.00    +0.000 S 
ENDBRANCH   2  12
BRANCH   1  17
ATOM     17  C   UNL     1       4.863   5.963  18.443  0.00  0.00    +0.000 C 
ATOM     18  C   UNL     1       4.733   7.080  17.403  0.00  0.00    +0.000 C 
BRANCH  17  19
ATOM     19  C   UNL     1       6.326   5.797  18.892  0.00  0.00    +0.000 C 
ATOM     20  O   UNL     1       6.670   5.105  19.846  0.00  0.00    +0.000 OA
BRANCH  19  21
ATOM     21  O   UNL     1       7.192   6.352  18.004  0.00  0.00    +0.000 OA
BRANCH  21  23
ATOM     22  C   UNL     1       8.111   8.581  17.920  0.00  0.00    +0.000 C 
ATOM     23  C   UNL     1       8.183   7.214  18.583  0.00  0.00    +0.000 C 
ENDBRANCH  21  23
ENDBRANCH  19  21
ENDBRANCH  17  19
ENDBRANCH   1  17
TORSDOF 6
ENDMDL
MODEL 3
REMARK VINA RESULT:      -5.1      2.196      4.646
REMARK  Name = 
REMARK  9 active torsions:
REMARK  status: ('A' for Active; 'I' for Inactive)
REMARK    1  A    between atoms: C_1  and  C_2
REMARK    2  A    between atoms: C_2  and  O_3
REMARK    3  A    between atoms: O_3  and  C_4
REMARK    4  A    between atoms: C_4  and  C_6
REMARK    5  A    between atoms: C_6  and  C_7
REMARK    6  A    between atoms: C_6  and  N_8
REMARK    7  A    between atoms: N_8  and  C_16
REMARK    8  A    between atoms: C_9  and  C_11
REMARK    9  A    between atoms: C_17  and  C_18
REMARK                            x       y       z     vdW  Elec       q    Type
REMARK                         _______ _______ _______ _____ _____    ______ ____
ROOT
ATOM      1  N   UNL     1       3.649   5.049  18.636  0.00  0.00    +0.000 N 
ATOM      2  C   UNL     1       4.794   4.889  17.815  0.00  0.00    +0.000 C 
ATOM      3  O   UNL     1       4.864   3.902  17.074  0.00  0.00    +0.000 OA
ENDROOT
BRANCH   1   4
ATOM      4  C   UNL     1       2.812   3.874  18.786  0.00  0.00    +0.000 A 
ATOM      5  C   UNL     1       3.180   2.795  19.625  0.00  0.00    +0.000 A 
ATOM      6  C   UNL     1       4.406   2.773  20.492  0.00  0.00    +0.000 C 
ATOM      7  C   UNL     1       2.328   1.674  19.737  0.00  0.00    +0.000 A 
ATOM      8  C   UNL     1       1.095   1.641  19.097  0.00  0.00    +0.000 A 
ATOM      9  C   UNL     1       0.694   2.717  18.319  0.00  0.00    +0.000 A 
ATOM     10  C   UNL     1       1.543   3.819  18.154  0.00  0.00    +0.000 A 
ATOM     11 CL   UNL     1       0.966   5.075  17.108  0.00  0.00    +0.000 Cl
ENDBRANCH   1   4
BRANCH   2  12
ATOM     12  C   UNL     1       5.915   5.833  17.867  0.00  0.00    +0.000 A 
ATOM     13  C   UNL     1       6.316   6.888  17.069  0.00  0.00    +0.000 A 
ATOM     14  C   UNL     1       7.540   7.489  17.498  0.00  0.00    +0.000 A 
ATOM     15  C   UNL     1       8.065   6.862  18.601  0.00  0.00    +0.000 A 
ATOM     16  S   UNL     1       7.071   5.582  19.134  0.00  0.00    +0.000 S 
ENDBRANCH   2  12
BRANCH   1  17
ATOM     17  C   UNL     1       3.258   6.250  19.423  0.00  0.00    +0.000 C 
ATOM     18  C   UNL     1       2.362   5.966  20.634  0.00  0.00    +0.000 C 
BRANCH  17  19
ATOM     19  C   UNL     1       2.752   7.473  18.639  0.00  0.00    +0.000 C 
ATOM     20  O   UNL     1       3.056   7.706  17.472  0.00  0.00    +0.000 OA
BRANCH  19  21
ATOM     21  O   UNL     1       1.798   8.153  19.325  0.00  0.00    +0.000 OA
BRANCH  21  23
ATOM     22  C   UNL     1       0.242   9.986  19.529  0.00  0.00    +0.000 C 
ATOM     23  C   UNL     1       1.397   9.398  18.733  0.00  0.00    +0.000 C 
ENDBRANCH  21  23
ENDBRANCH  19  21
ENDBRANCH  17  19
ENDBRANCH   1  17
TORSDOF 6
ENDMDL
MODEL 4
REMARK VINA RESULT:      -5.0      2.490      4.878
REMARK  Name = 
REMARK  9 active torsions:
REMARK  status: ('A' for Active; 'I' for Inactive)
REMARK    1  A    between atoms: C_1  and  C_2
REMARK    2  A    between atoms: C_2  and  O_3
REMARK    3  A    between atoms: O_3  and  C_4
REMARK    4  A    between atoms: C_4  and  C_6
REMARK    5  A    between atoms: C_6  and  C_7
REMARK    6  A    between atoms: C_6  and  N_8
REMARK    7  A    between atoms: N_8  and  C_16
REMARK    8  A    between atoms: C_9  and  C_11
REMARK    9  A    between atoms: C_17  and  C_18
REMARK                            x       y       z     vdW  Elec       q    Type
REMARK                         _______ _______ _______ _____ _____    ______ ____
ROOT
ATOM      1  N   UNL     1       3.589   5.158  18.638  0.00  0.00    +0.000 N 
ATOM      2  C   UNL     1       4.763   4.916  17.882  0.00  0.00    +0.000 C 
ATOM      3  O   UNL     1       4.846   3.872  17.225  0.00  0.00    +0.000 OA
ENDROOT
BRANCH   1   4
ATOM      4  C   UNL     1       2.725   4.011  18.845  0.00  0.00    +0.000 A 
ATOM      5  C   UNL     1       1.504   3.858  18.147  0.00  0.00    +0.000 A 
ATOM      6  C   UNL     1       1.008   4.799  17.086  0.00  0.00    +0.000 C 
ATOM      7  C   UNL     1       0.699   2.722  18.385  0.00  0.00    +0.000 A 
ATOM      8  C   UNL     1       1.120   1.708  19.237  0.00  0.00    +0.000 A 
ATOM      9  C   UNL     1       2.343   1.815  19.882  0.00  0.00    +0.000 A 
ATOM     10  C   UNL     1       3.136   2.956  19.700  0.00  0.00    +0.000 A 
ATOM     11 CL   UNL     1       4.612   3.011  20.607  0.00  0.00    +0.000 Cl
ENDBRANCH   1   4
BRANCH   2  12
ATOM     12  C   UNL     1       5.898   5.845  17.906  0.00  0.00    +0.000 A 
ATOM     13  C   UNL     1       6.301   6.886  17.091  0.00  0.00    +0.000 A 
ATOM     14  C   UNL     1       7.539   7.475  17.495  0.00  0.00    +0.000 A 
ATOM     15  C   UNL     1       8.073   6.851  18.595  0.00  0.00    +0.000 A 
ATOM     16  S   UNL     1       7.071   5.591  19.157  0.00  0.00    +0.000 S 
ENDBRANCH   2  12
BRANCH   1  17
ATOM     17  C   UNL     1       3.187   6.423  19.311  0.00  0.00    +0.000 C 
ATOM     18  C   UNL     1       2.206   6.254  20.476  0.00  0.00    +0.000 C 
BRANCH  17  19
ATOM     19  C   UNL     1       2.773   7.600  18.410  0.00  0.00    +0.000 C 
ATOM     20  O   UNL     1       3.039   7.666  17.213  0.00  0.00    +0.000 OA
BRANCH  19  21
ATOM     21  O   UNL     1       1.933   8.454  19.050  0.00  0.00    +0.000 OA
BRANCH  21  23
ATOM     22  C   UNL     1       0.121  10.041  18.915  0.00  0.00    +0.000 C 
ATOM     23  C   UNL     1       1.338   9.458  18.214  0.00  0.00    +0.000 C 
ENDBRANCH  21  23
ENDBRANCH  19  21
ENDBRANCH  17  19
ENDBRANCH   1  17
TORSDOF 6
ENDMDL
MODEL 5
REMARK VINA RESULT:      -5.0      2.390      5.330
REMARK  Name = 
REMARK  9 active torsions:
REMARK  status: ('A' for Active; 'I' for Inactive)
REMARK    1  A    between atoms: C_1  and  C_2
REMARK    2  A    between atoms: C_2  and  O_3
REMARK    3  A    between atoms: O_3  and  C_4
REMARK    4  A    between atoms: C_4  and  C_6
REMARK    5  A    between atoms: C_6  and  C_7
REMARK    6  A    between atoms: C_6  and  N_8
REMARK    7  A    between atoms: N_8  and  C_16
REMARK    8  A    between atoms: C_9  and  C_11
REMARK    9  A    between atoms: C_17  and  C_18
REMARK                            x       y       z     vdW  Elec       q    Type
REMARK                         _______ _______ _______ _____ _____    ______ ____
ROOT
ATOM      1  N   UNL     1       3.934   6.002  17.983  0.00  0.00    +0.000 N 
ATOM      2  C   UNL     1       3.236   7.180  17.616  0.00  0.00    +0.000 C 
ATOM      3  O   UNL     1       3.331   7.594  16.455  0.00  0.00    +0.000 OA
ENDROOT
BRANCH   1   4
ATOM      4  C   UNL     1       4.966   5.568  17.061  0.00  0.00    +0.000 A 
ATOM      5  C   UNL     1       6.205   6.244  16.953  0.00  0.00    +0.000 A 
ATOM      6  C   UNL     1       6.615   7.409  17.808  0.00  0.00    +0.000 C 
ATOM      7  C   UNL     1       7.177   5.781  16.039  0.00  0.00    +0.000 A 
ATOM      8  C   UNL     1       6.972   4.624  15.295  0.00  0.00    +0.000 A 
ATOM      9  C   UNL     1       5.787   3.918  15.434  0.00  0.00    +0.000 A 
ATOM     10  C   UNL     1       4.788   4.386  16.298  0.00  0.00    +0.000 A 
ATOM     11 CL   UNL     1       3.324   3.458  16.343  0.00  0.00    +0.000 Cl
ENDBRANCH   1   4
BRANCH   2  12
ATOM     12  C   UNL     1       2.452   7.945  18.592  0.00  0.00    +0.000 A 
ATOM     13  C   UNL     1       2.085   7.729  19.907  0.00  0.00    +0.000 A 
ATOM     14  C   UNL     1       1.245   8.757  20.437  0.00  0.00    +0.000 A 
ATOM     15  C   UNL     1       0.963   9.725  19.505  0.00  0.00    +0.000 A 
ATOM     16  S   UNL     1       1.734   9.414  18.016  0.00  0.00    +0.000 S 
ENDBRANCH   2  12
BRANCH   1  17
ATOM     17  C   UNL     1       3.789   5.215  19.237  0.00  0.00    +0.000 C 
ATOM     18  C   UNL     1       5.067   4.518  19.715  0.00  0.00    +0.000 C 
BRANCH  17  19
ATOM     19  C   UNL     1       2.577   4.274  19.343  0.00  0.00    +0.000 C 
ATOM     20  O   UNL     1       1.482   4.516  18.841  0.00  0.00    +0.000 OA
BRANCH  19  21
ATOM     21  O   UNL     1       2.913   3.077  19.892  0.00  0.00    +0.000 OA
BRANCH  21  23
ATOM     22  C   UNL     1       1.497   2.664  21.801  0.00  0.00    +0.000 C 
ATOM     23  C   UNL     1       1.806   2.292  20.359  0.00  0.00    +0.000 C 
ENDBRANCH  21  23
ENDBRANCH  19  21
ENDBRANCH  17  19
ENDBRANCH   1  17
TORSDOF 6
ENDMDL
MODEL 6
REMARK VINA RESULT:      -5.0      2.779      5.219
REMARK  Name = 
REMARK  9 active torsions:
REMARK  status: ('A' for Active; 'I' for Inactive)
REMARK    1  A    between atoms: C_1  and  C_2
REMARK    2  A    between atoms: C_2  and  O_3
REMARK    3  A    between atoms: O_3  and  C_4
REMARK    4  A    between atoms: C_4  and  C_6
REMARK    5  A    between atoms: C_6  and  C_7
REMARK    6  A    between atoms: C_6  and  N_8
REMARK    7  A    between atoms: N_8  and  C_16
REMARK    8  A    between atoms: C_9  and  C_11
REMARK    9  A    between atoms: C_17  and  C_18
REMARK                            x       y       z     vdW  Elec       q    Type
REMARK                         _______ _______ _______ _____ _____    ______ ____
ROOT
ATOM      1  N   UNL     1       4.549   5.029  17.734  0.00  0.00    +0.000 N 
ATOM      2  C   UNL     1       3.494   5.295  18.643  0.00  0.00    +0.000 C 
ATOM      3  O   UNL     1       3.479   6.378  19.240  0.00  0.00    +0.000 OA
ENDROOT
BRANCH   1   4
ATOM      4  C   UNL     1       5.700   5.907  17.829  0.00  0.00    +0.000 A 
ATOM      5  C   UNL     1       6.738   5.681  18.765  0.00  0.00    +0.000 A 
ATOM      6  C   UNL     1       6.806   4.499  19.690  0.00  0.00    +0.000 C 
ATOM      7  C   UNL     1       7.837   6.566  18.817  0.00  0.00    +0.000 A 
ATOM      8  C   UNL     1       7.961   7.614  17.913  0.00  0.00    +0.000 A 
ATOM      9  C   UNL     1       6.981   7.812  16.951  0.00  0.00    +0.000 A 
ATOM     10  C   UNL     1       5.857   6.977  16.912  0.00  0.00    +0.000 A 
ATOM     11 CL   UNL     1       4.667   7.358  15.710  0.00  0.00    +0.000 Cl
ENDBRANCH   1   4
BRANCH   2  12
ATOM     12  C   UNL     1       2.457   4.299  18.931  0.00  0.00    +0.000 A 
ATOM     13  C   UNL     1       1.347   3.845  18.244  0.00  0.00    +0.000 A 
ATOM     14  C   UNL     1       0.584   2.882  18.974  0.00  0.00    +0.000 A 
ATOM     15  C   UNL     1       1.111   2.641  20.219  0.00  0.00    +0.000 A 
ATOM     16  S   UNL     1       2.534   3.541  20.488  0.00  0.00    +0.000 S 
ENDBRANCH   2  12
BRANCH   1  17
ATOM     17  C   UNL     1       4.646   3.909  16.760  0.00  0.00    +0.000 C 
ATOM     18  C   UNL     1       4.546   2.507  17.372  0.00  0.00    +0.000 C 
BRANCH  17  19
ATOM     19  C   UNL     1       5.778   3.975  15.719  0.00  0.00    +0.000 C 
ATOM     20  O   UNL     1       6.954   3.737  15.978  0.00  0.00    +0.000 OA
BRANCH  19  21
ATOM     21  O   UNL     1       5.297   4.145  14.460  0.00  0.00    +0.000 OA
BRANCH  21  23
ATOM     22  C   UNL     1       5.593   3.231  12.247  0.00  0.00    +0.000 C 
ATOM     23  C   UNL     1       6.258   3.947  13.412  0.00  0.00    +0.000 C 
ENDBRANCH  21  23
ENDBRANCH  19  21
ENDBRANCH  17  19
ENDBRANCH   1  17
TORSDOF 6
ENDMDL
MODEL 7
REMARK VINA RESULT:      -5.0      2.355      4.276
REMARK  Name = 
REMARK  9 active torsions:
REMARK  status: ('A' for Active; 'I' for Inactive)
REMARK    1  A    between atoms: C_1  and  C_2
REMARK    2  A    between atoms: C_2  and  O_3
REMARK    3  A    between atoms: O_3  and  C_4
REMARK    4  A    between atoms: C_4  and  C_6
REMARK    5  A    between atoms: C_6  and  C_7
REMARK    6  A    between atoms: C_6  and  N_8
REMARK    7  A    between atoms: N_8  and  C_16
REMARK    8  A    between atoms: C_9  and  C_11
REMARK    9  A    between atoms: C_17  and  C_18
REMARK                            x       y       z     vdW  Elec       q    Type
REMARK                         _______ _______ _______ _____ _____    ______ ____
ROOT
ATOM      1  N   UNL     1       4.067   4.727  18.224  0.00  0.00    +0.000 N 
ATOM      2  C   UNL     1       4.188   3.902  17.078  0.00  0.00    +0.000 C 
ATOM      3  O   UNL     1       3.354   3.008  16.894  0.00  0.00    +0.000 OA
ENDROOT
BRANCH   1   4
ATOM      4  C   UNL     1       3.172   4.241  19.258  0.00  0.00    +0.000 A 
ATOM      5  C   UNL     1       1.900   4.820  19.479  0.00  0.00    +0.000 A 
ATOM      6  C   UNL     1       1.312   5.923  18.646  0.00  0.00    +0.000 C 
ATOM      7  C   UNL     1       1.067   4.310  20.499  0.00  0.00    +0.000 A 
ATOM      8  C   UNL     1       1.440   3.196  21.243  0.00  0.00    +0.000 A 
ATOM      9  C   UNL     1       2.658   2.581  20.996  0.00  0.00    +0.000 A 
ATOM     10  C   UNL     1       3.522   3.099  20.023  0.00  0.00    +0.000 A 
ATOM     11 CL   UNL     1       5.045   2.289  19.847  0.00  0.00    +0.000 Cl
ENDBRANCH   1   4
BRANCH   2  12
ATOM     12  C   UNL     1       5.306   4.048  16.140  0.00  0.00    +0.000 A 
ATOM     13  C   UNL     1       6.681   3.981  16.270  0.00  0.00    +0.000 A 
ATOM     14  C   UNL     1       7.379   4.258  15.054  0.00  0.00    +0.000 A 
ATOM     15  C   UNL     1       6.522   4.561  14.024  0.00  0.00    +0.000 A 
ATOM     16  S   UNL     1       4.890   4.475  14.512  0.00  0.00    +0.000 S 
ENDBRANCH   2  12
BRANCH   1  17
ATOM     17  C   UNL     1       4.810   5.980  18.523  0.00  0.00    +0.000 C 
ATOM     18  C   UNL     1       4.606   7.112  17.510  0.00  0.00    +0.000 C 
BRANCH  17  19
ATOM     19  C   UNL     1       6.295   5.845  18.905  0.00  0.00    +0.000 C 
ATOM     20  O   UNL     1       6.698   5.143  19.828  0.00  0.00    +0.000 OA
BRANCH  19  21
ATOM     21  O   UNL     1       7.106   6.442  17.994  0.00  0.00    +0.000 OA
BRANCH  21  23
ATOM     22  C   UNL     1       8.115   8.631  17.881  0.00  0.00    +0.000 C 
ATOM     23  C   UNL     1       8.141   7.267  18.552  0.00  0.00    +0.000 C 
ENDBRANCH  21  23
ENDBRANCH  19  21
ENDBRANCH  17  19
ENDBRANCH   1  17
TORSDOF 6
ENDMDL
MODEL 8
REMARK VINA RESULT:      -4.9      7.269      9.481
REMARK  Name = 
REMARK  9 active torsions:
REMARK  status: ('A' for Active; 'I' for Inactive)
REMARK    1  A    between atoms: C_1  and  C_2
REMARK    2  A    between atoms: C_2  and  O_3
REMARK    3  A    between atoms: O_3  and  C_4
REMARK    4  A    between atoms: C_4  and  C_6
REMARK    5  A    between atoms: C_6  and  C_7
REMARK    6  A    between atoms: C_6  and  N_8
REMARK    7  A    between atoms: N_8  and  C_16
REMARK    8  A    between atoms: C_9  and  C_11
REMARK    9  A    between atoms: C_17  and  C_18
REMARK                            x       y       z     vdW  Elec       q    Type
REMARK                         _______ _______ _______ _____ _____    ______ ____
ROOT
ATOM      1  N   UNL     1       0.068  12.766  20.407  0.00  0.00    +0.000 N 
ATOM      2  C   UNL     1       1.323  13.387  20.625  0.00  0.00    +0.000 C 
ATOM      3  O   UNL     1       2.241  12.722  21.118  0.00  0.00    +0.000 OA
ENDROOT
BRANCH   1   4
ATOM      4  C   UNL     1      -0.136  11.501  21.088  0.00  0.00    +0.000 A 
ATOM      5  C   UNL     1       0.260  10.270  20.513  0.00  0.00    +0.000 A 
ATOM      6  C   UNL     1       0.985  10.138  19.204  0.00  0.00    +0.000 C 
ATOM      7  C   UNL     1       0.039   9.066  21.218  0.00  0.00    +0.000 A 
ATOM      8  C   UNL     1      -0.492   9.071  22.502  0.00  0.00    +0.000 A 
ATOM      9  C   UNL     1      -0.830  10.275  23.102  0.00  0.00    +0.000 A 
ATOM     10  C   UNL     1      -0.665  11.478  22.404  0.00  0.00    +0.000 A 
ATOM     11 CL   UNL     1      -1.182  12.914  23.227  0.00  0.00    +0.000 Cl
ENDBRANCH   1   4
BRANCH   2  12
ATOM     12  C   UNL     1       1.540  14.808  20.331  0.00  0.00    +0.000 A 
ATOM     13  C   UNL     1       1.863  15.511  19.186  0.00  0.00    +0.000 A 
ATOM     14  C   UNL     1       2.031  16.912  19.411  0.00  0.00    +0.000 A 
ATOM     15  C   UNL     1       1.860  17.248  20.731  0.00  0.00    +0.000 A 
ATOM     16  S   UNL     1       1.466  15.890  21.684  0.00  0.00    +0.000 S 
ENDBRANCH   2  12
BRANCH   1  17
ATOM     17  C   UNL     1      -1.087  13.300  19.636  0.00  0.00    +0.000 C 
ATOM     18  C   UNL     1      -1.880  14.406  20.340  0.00  0.00    +0.000 C 
BRANCH  17  19
ATOM     19  C   UNL     1      -2.032  12.277  18.982  0.00  0.00    +0.000 C 
ATOM     20  O   UNL     1      -3.128  11.972  19.442  0.00  0.00    +0.000 OA
BRANCH  19  21
ATOM     21  O   UNL     1      -1.592  11.897  17.754  0.00  0.00    +0.000 OA
BRANCH  21  23
ATOM     22  C   UNL     1      -2.727  10.926  15.859  0.00  0.00    +0.000 C 
ATOM     23  C   UNL     1      -2.169  10.682  17.253  0.00  0.00    +0.000 C 
ENDBRANCH  21  23
ENDBRANCH  19  21
ENDBRANCH  17  19
ENDBRANCH   1  17
TORSDOF 6
ENDMDL
MODEL 9
REMARK VINA RESULT:      -4.9      2.025      5.219
REMARK  Name = 
REMARK  9 active torsions:
REMARK  status: ('A' for Active; 'I' for Inactive)
REMARK    1  A    between atoms: C_1  and  C_2
REMARK    2  A    between atoms: C_2  and  O_3
REMARK    3  A    between atoms: O_3  and  C_4
REMARK    4  A    between atoms: C_4  and  C_6
REMARK    5  A    between atoms: C_6  and  C_7
REMARK    6  A    between atoms: C_6  and  N_8
REMARK    7  A    between atoms: N_8  and  C_16
REMARK    8  A    between atoms: C_9  and  C_11
REMARK    9  A    between atoms: C_17  and  C_18
REMARK                            x       y       z     vdW  Elec       q    Type
REMARK                         _______ _______ _______ _____ _____    ______ ____
ROOT
ATOM      1  N   UNL     1       3.972   5.199  18.182  0.00  0.00    +0.000 N 
ATOM      2  C   UNL     1       3.625   6.571  18.100  0.00  0.00    +0.000 C 
ATOM      3  O   UNL     1       4.159   7.272  17.234  0.00  0.00    +0.000 OA
ENDROOT
BRANCH   1   4
ATOM      4  C   UNL     1       5.170   4.809  17.462  0.00  0.00    +0.000 A 
ATOM      5  C   UNL     1       5.117   4.283  16.149  0.00  0.00    +0.000 A 
ATOM      6  C   UNL     1       3.858   4.143  15.341  0.00  0.00    +0.000 C 
ATOM      7  C   UNL     1       6.313   3.919  15.493  0.00  0.00    +0.000 A 
ATOM      8  C   UNL     1       7.553   4.138  16.081  0.00  0.00    +0.000 A 
ATOM      9  C   UNL     1       7.623   4.708  17.344  0.00  0.00    +0.000 A 
ATOM     10  C   UNL     1       6.449   5.032  18.035  0.00  0.00    +0.000 A 
ATOM     11 CL   UNL     1       6.657   5.678  19.630  0.00  0.00    +0.000 Cl
ENDBRANCH   1   4
BRANCH   2  12
ATOM     12  C   UNL     1       2.692   7.185  19.051  0.00  0.00    +0.000 A 
ATOM     13  C   UNL     1       2.206   6.816  20.292  0.00  0.00    +0.000 A 
ATOM     14  C   UNL     1       1.246   7.733  20.820  0.00  0.00    +0.000 A 
ATOM     15  C   UNL     1       0.995   8.772  19.957  0.00  0.00    +0.000 A 
ATOM     16  S   UNL     1       1.937   8.660  18.541  0.00  0.00    +0.000 S 
ENDBRANCH   2  12
BRANCH   1  17
ATOM     17  C   UNL     1       3.303   4.139  18.983  0.00  0.00    +0.000 C 
ATOM     18  C   UNL     1       4.186   2.936  19.332  0.00  0.00    +0.000 C 
BRANCH  17  19
ATOM     19  C   UNL     1       1.908   3.682  18.523  0.00  0.00    +0.000 C 
ATOM     20  O   UNL     1       1.437   3.942  17.419  0.00  0.00    +0.000 OA
BRANCH  19  21
ATOM     21  O   UNL     1       1.346   2.813  19.403  0.00  0.00    +0.000 OA
BRANCH  21  23
ATOM     22  C   UNL     1       1.510   2.555  21.796  0.00  0.00    +0.000 C 
ATOM     23  C   UNL     1       0.950   3.391  20.656  0.00  0.00    +0.000 C 
ENDBRANCH  21  23
ENDBRANCH  19  21
ENDBRANCH  17  19
ENDBRANCH   1  17
TORSDOF 6
ENDMDL
