MODEL 1
REMARK VINA RESULT:      -7.6      0.000      0.000
REMARK  Name = 
REMARK  3 active torsions:
REMARK  status: ('A' for Active; 'I' for Inactive)
REMARK    1  A    between atoms: C_2  and  C_5
REMARK    2  A    between atoms: C_8  and  C_9
REMARK    3  A    between atoms: C_12  and  C_13
REMARK                            x       y       z     vdW  Elec       q    Type
REMARK                         _______ _______ _______ _____ _____    ______ ____
ROOT
ATOM      1  C   UNL     1       2.603   6.678  19.110  0.00  0.00    +0.000 A 
ATOM      2  C   UNL     1       2.133   5.978  20.200  0.00  0.00    +0.000 A 
ATOM      3  N   UNL     1       1.543   6.912  20.996  0.00  0.00    +0.000 N 
ATOM      4  C   UNL     1       1.651   8.132  20.373  0.00  0.00    +0.000 A 
ATOM      5  N   UNL     1       2.302   8.015  19.231  0.00  0.00    +0.000 NA
ATOM      6  H   UNL     1       1.090   6.767  21.891  0.00  0.00    +0.000 HD
ENDROOT
BRANCH   4   7
ATOM      7  C   UNL     1       1.096   9.378  20.991  0.00  0.00    +0.000 C 
ATOM      8  C   UNL     1       0.958   9.194  22.521  0.00  0.00    +0.000 C 
ATOM      9  O   UNL     1       0.358  10.342  23.144  0.00  0.00    +0.000 OA
ATOM     10  C   UNL     1      -0.929  10.596  22.568  0.00  0.00    +0.000 C 
ATOM     11  C   UNL     1      -0.805  10.859  21.062  0.00  0.00    +0.000 C 
ATOM     12  N   UNL     1      -0.206   9.716  20.354  0.00  0.00    +0.000 NA
ATOM     13  H   UNL     1      -0.012   9.995  19.391  0.00  0.00    +0.000 HD
ENDBRANCH   4   7
BRANCH   1  17
ATOM     14  C   UNL     1       5.092   4.987  16.090  0.00  0.00    +0.000 A 
ATOM     15  C   UNL     1       4.227   4.173  16.833  0.00  0.00    +0.000 A 
ATOM     16  C   UNL     1       3.378   4.730  17.789  0.00  0.00    +0.000 A 
ATOM     17  C   UNL     1       3.385   6.109  18.032  0.00  0.00    +0.000 A 
ATOM     18  C   UNL     1       4.214   6.931  17.260  0.00  0.00    +0.000 A 
ATOM     19  C   UNL     1       5.068   6.375  16.302  0.00  0.00    +0.000 A 
BRANCH  14  21
ATOM     20  F   UNL     1       7.286   4.939  15.115  0.00  0.00    +0.000 F 
ATOM     21  C   UNL     1       6.041   4.383  15.086  0.00  0.00    +0.000 C 
ATOM     22  F   UNL     1       5.605   4.521  13.804  0.00  0.00    +0.000 F 
ATOM     23  F   UNL     1       6.226   3.047  15.278  0.00  0.00    +0.000 F 
ENDBRANCH  14  21
ENDBRANCH   1  17
TORSDOF 3
ENDMDL
MODEL 2
REMARK VINA RESULT:      -7.6      0.335      1.105
REMARK  Name = 
REMARK  3 active torsions:
REMARK  status: ('A' for Active; 'I' for Inactive)
REMARK    1  A    between atoms: C_2  and  C_5
REMARK    2  A    between atoms: C_8  and  C_9
REMARK    3  A    between atoms: C_12  and  C_13
REMARK                            x       y       z     vdW  Elec       q    Type
REMARK                         _______ _______ _______ _____ _____    ______ ____
ROOT
ATOM      1  C   UNL     1       2.752   6.585  19.094  0.00  0.00    +0.000 A 
ATOM      2  C   UNL     1       2.190   5.867  20.127  0.00  0.00    +0.000 A 
ATOM      3  N   UNL     1       1.568   6.795  20.906  0.00  0.00    +0.000 N 
ATOM      4  C   UNL     1       1.749   8.028  20.329  0.00  0.00    +0.000 A 
ATOM      5  N   UNL     1       2.477   7.926  19.232  0.00  0.00    +0.000 NA
ATOM      6  H   UNL     1       1.049   6.637  21.763  0.00  0.00    +0.000 HD
ENDROOT
BRANCH   4   7
ATOM      7  C   UNL     1       1.182   9.270  20.942  0.00  0.00    +0.000 C 
ATOM      8  C   UNL     1       1.029   9.084  22.470  0.00  0.00    +0.000 C 
ATOM      9  O   UNL     1       0.417  10.229  23.089  0.00  0.00    +0.000 OA
ATOM     10  C   UNL     1      -0.865  10.478  22.500  0.00  0.00    +0.000 C 
ATOM     11  C   UNL     1      -0.727  10.743  20.995  0.00  0.00    +0.000 C 
ATOM     12  N   UNL     1      -0.114   9.604  20.293  0.00  0.00    +0.000 NA
ATOM     13  H   UNL     1       0.088   9.885  19.332  0.00  0.00    +0.000 HD
ENDBRANCH   4   7
BRANCH   1  17
ATOM     14  C   UNL     1       5.040   4.940  15.894  0.00  0.00    +0.000 A 
ATOM     15  C   UNL     1       5.055   6.319  16.140  0.00  0.00    +0.000 A 
ATOM     16  C   UNL     1       4.346   6.854  17.215  0.00  0.00    +0.000 A 
ATOM     17  C   UNL     1       3.595   6.025  18.057  0.00  0.00    +0.000 A 
ATOM     18  C   UNL     1       3.614   4.642  17.843  0.00  0.00    +0.000 A 
ATOM     19  C   UNL     1       4.323   4.102  16.765  0.00  0.00    +0.000 A 
BRANCH  14  21
ATOM     20  F   UNL     1       6.803   5.145  14.277  0.00  0.00    +0.000 F 
ATOM     21  C   UNL     1       5.772   4.364  14.708  0.00  0.00    +0.000 C 
ATOM     22  F   UNL     1       4.963   4.192  13.627  0.00  0.00    +0.000 F 
ATOM     23  F   UNL     1       6.314   3.143  14.970  0.00  0.00    +0.000 F 
ENDBRANCH  14  21
ENDBRANCH   1  17
TORSDOF 3
ENDMDL
MODEL 3
REMARK VINA RESULT:      -7.2      5.352      8.107
REMARK  Name = 
REMARK  3 active torsions:
REMARK  status: ('A' for Active; 'I' for Inactive)
REMARK    1  A    between atoms: C_2  and  C_5
REMARK    2  A    between atoms: C_8  and  C_9
REMARK    3  A    between atoms: C_12  and  C_13
REMARK                            x       y       z     vdW  Elec       q    Type
REMARK                         _______ _______ _______ _____ _____    ______ ____
ROOT
ATOM      1  C   UNL     1       3.196   6.371  18.916  0.00  0.00    +0.000 A 
ATOM      2  C   UNL     1       3.357   5.282  19.743  0.00  0.00    +0.000 A 
ATOM      3  N   UNL     1       4.231   4.466  19.090  0.00  0.00    +0.000 N 
ATOM      4  C   UNL     1       4.587   5.078  17.913  0.00  0.00    +0.000 A 
ATOM      5  N   UNL     1       3.960   6.231  17.781  0.00  0.00    +0.000 NA
ATOM      6  H   UNL     1       4.583   3.565  19.394  0.00  0.00    +0.000 HD
ENDROOT
BRANCH   4   7
ATOM      7  C   UNL     1       5.544   4.438  16.957  0.00  0.00    +0.000 C 
ATOM      8  C   UNL     1       6.899   5.183  16.985  0.00  0.00    +0.000 C 
ATOM      9  O   UNL     1       7.824   4.646  16.025  0.00  0.00    +0.000 OA
ATOM     10  C   UNL     1       7.261   4.714  14.709  0.00  0.00    +0.000 C 
ATOM     11  C   UNL     1       5.954   3.915  14.638  0.00  0.00    +0.000 C 
ATOM     12  N   UNL     1       4.952   4.418  15.592  0.00  0.00    +0.000 NA
ATOM     13  H   UNL     1       4.164   3.768  15.609  0.00  0.00    +0.000 HD
ENDBRANCH   4   7
BRANCH   1  17
ATOM     14  C   UNL     1       0.693   9.731  19.708  0.00  0.00    +0.000 A 
ATOM     15  C   UNL     1       1.199   9.512  18.420  0.00  0.00    +0.000 A 
ATOM     16  C   UNL     1       1.979   8.389  18.147  0.00  0.00    +0.000 A 
ATOM     17  C   UNL     1       2.281   7.468  19.158  0.00  0.00    +0.000 A 
ATOM     18  C   UNL     1       1.740   7.659  20.434  0.00  0.00    +0.000 A 
ATOM     19  C   UNL     1       0.959   8.785  20.711  0.00  0.00    +0.000 A 
BRANCH  14  21
ATOM     20  F   UNL     1      -1.245  11.076  19.259  0.00  0.00    +0.000 F 
ATOM     21  C   UNL     1      -0.115  10.967  20.015  0.00  0.00    +0.000 C 
ATOM     22  F   UNL     1       0.584  12.115  19.802  0.00  0.00    +0.000 F 
ATOM     23  F   UNL     1      -0.529  11.013  21.311  0.00  0.00    +0.000 F 
ENDBRANCH  14  21
ENDBRANCH   1  17
TORSDOF 3
ENDMDL
MODEL 4
REMARK VINA RESULT:      -7.2      5.362      8.334
REMARK  Name = 
REMARK  3 active torsions:
REMARK  status: ('A' for Active; 'I' for Inactive)
REMARK    1  A    between atoms: C_2  and  C_5
REMARK    2  A    between atoms: C_8  and  C_9
REMARK    3  A    between atoms: C_12  and  C_13
REMARK                            x       y       z     vdW  Elec       q    Type
REMARK                         _______ _______ _______ _____ _____    ______ ____
ROOT
ATOM      1  C   UNL     1       3.882   4.925  17.894  0.00  0.00    +0.000 A 
ATOM      2  C   UNL     1       3.850   3.551  17.983  0.00  0.00    +0.000 A 
ATOM      3  N   UNL     1       4.723   3.112  17.035  0.00  0.00    +0.000 N 
ATOM      4  C   UNL     1       5.268   4.211  16.416  0.00  0.00    +0.000 A 
ATOM      5  N   UNL     1       4.762   5.323  16.914  0.00  0.00    +0.000 NA
ATOM      6  H   UNL     1       4.957   2.153  16.804  0.00  0.00    +0.000 HD
ENDROOT
BRANCH   4   7
ATOM      7  C   UNL     1       6.275   4.071  15.318  0.00  0.00    +0.000 C 
ATOM      8  C   UNL     1       7.136   5.353  15.221  0.00  0.00    +0.000 C 
ATOM      9  O   UNL     1       8.067   5.289  14.128  0.00  0.00    +0.000 OA
ATOM     10  C   UNL     1       7.365   5.083  12.896  0.00  0.00    +0.000 C 
ATOM     11  C   UNL     1       6.566   3.775  12.942  0.00  0.00    +0.000 C 
ATOM     12  N   UNL     1       5.581   3.773  14.036  0.00  0.00    +0.000 NA
ATOM     13  H   UNL     1       5.183   2.835  14.114  0.00  0.00    +0.000 HD
ENDBRANCH   4   7
BRANCH   1  17
ATOM     14  C   UNL     1       1.608   7.645  20.262  0.00  0.00    +0.000 A 
ATOM     15  C   UNL     1       2.093   8.034  19.007  0.00  0.00    +0.000 A 
ATOM     16  C   UNL     1       2.797   7.131  18.210  0.00  0.00    +0.000 A 
ATOM     17  C   UNL     1       3.043   5.827  18.656  0.00  0.00    +0.000 A 
ATOM     18  C   UNL     1       2.520   5.421  19.889  0.00  0.00    +0.000 A 
ATOM     19  C   UNL     1       1.815   6.324  20.692  0.00  0.00    +0.000 A 
BRANCH  14  21
ATOM     20  F   UNL     1      -0.367   8.222  21.500  0.00  0.00    +0.000 F 
ATOM     21  C   UNL     1       0.884   8.631  21.143  0.00  0.00    +0.000 C 
ATOM     22  F   UNL     1       0.719   9.843  20.546  0.00  0.00    +0.000 F 
ATOM     23  F   UNL     1       1.542   8.873  22.310  0.00  0.00    +0.000 F 
ENDBRANCH  14  21
ENDBRANCH   1  17
TORSDOF 3
ENDMDL
MODEL 5
REMARK VINA RESULT:      -7.2      0.732      1.480
REMARK  Name = 
REMARK  3 active torsions:
REMARK  status: ('A' for Active; 'I' for Inactive)
REMARK    1  A    between atoms: C_2  and  C_5
REMARK    2  A    between atoms: C_8  and  C_9
REMARK    3  A    between atoms: C_12  and  C_13
REMARK                            x       y       z     vdW  Elec       q    Type
REMARK                         _______ _______ _______ _____ _____    ______ ____
ROOT
ATOM      1  C   UNL     1       2.763   6.484  19.088  0.00  0.00    +0.000 A 
ATOM      2  C   UNL     1       2.212   5.745  20.112  0.00  0.00    +0.000 A 
ATOM      3  N   UNL     1       1.589   6.655  20.911  0.00  0.00    +0.000 N 
ATOM      4  C   UNL     1       1.759   7.899  20.354  0.00  0.00    +0.000 A 
ATOM      5  N   UNL     1       2.481   7.820  19.252  0.00  0.00    +0.000 NA
ATOM      6  H   UNL     1       1.076   6.479  21.768  0.00  0.00    +0.000 HD
ENDROOT
BRANCH   4   7
ATOM      7  C   UNL     1       1.189   9.127  20.993  0.00  0.00    +0.000 C 
ATOM      8  C   UNL     1      -0.153   8.790  21.685  0.00  0.00    +0.000 C 
ATOM      9  O   UNL     1      -0.772   9.959  22.247  0.00  0.00    +0.000 OA
ATOM     10  C   UNL     1      -0.987  10.940  21.226  0.00  0.00    +0.000 C 
ATOM     11  C   UNL     1       0.343  11.347  20.579  0.00  0.00    +0.000 C 
ATOM     12  N   UNL     1       1.031  10.197  19.970  0.00  0.00    +0.000 NA
ATOM     13  H   UNL     1       1.968  10.490  19.687  0.00  0.00    +0.000 HD
ENDBRANCH   4   7
BRANCH   1  17
ATOM     14  C   UNL     1       5.042   4.913  15.844  0.00  0.00    +0.000 A 
ATOM     15  C   UNL     1       5.070   6.284  16.131  0.00  0.00    +0.000 A 
ATOM     16  C   UNL     1       4.363   6.794  17.220  0.00  0.00    +0.000 A 
ATOM     17  C   UNL     1       3.603   5.947  18.037  0.00  0.00    +0.000 A 
ATOM     18  C   UNL     1       3.610   4.572  17.781  0.00  0.00    +0.000 A 
ATOM     19  C   UNL     1       4.316   4.057  16.689  0.00  0.00    +0.000 A 
BRANCH  14  21
ATOM     20  F   UNL     1       6.380   3.169  14.879  0.00  0.00    +0.000 F 
ATOM     21  C   UNL     1       5.771   4.366  14.643  0.00  0.00    +0.000 C 
ATOM     22  F   UNL     1       6.753   5.200  14.203  0.00  0.00    +0.000 F 
ATOM     23  F   UNL     1       4.947   4.161  13.579  0.00  0.00    +0.000 F 
ENDBRANCH  14  21
ENDBRANCH   1  17
TORSDOF 3
ENDMDL
MODEL 6
REMARK VINA RESULT:      -7.2      5.379      8.196
REMARK  Name = 
REMARK  3 active torsions:
REMARK  status: ('A' for Active; 'I' for Inactive)
REMARK    1  A    between atoms: C_2  and  C_5
REMARK    2  A    between atoms: C_8  and  C_9
REMARK    3  A    between atoms: C_12  and  C_13
REMARK                            x       y       z     vdW  Elec       q    Type
REMARK                         _______ _______ _______ _____ _____    ______ ____
ROOT
ATOM      1  C   UNL     1       3.124   6.156  18.130  0.00  0.00    +0.000 A 
ATOM      2  C   UNL     1       2.695   4.851  18.228  0.00  0.00    +0.000 A 
ATOM      3  N   UNL     1       3.566   4.133  17.466  0.00  0.00    +0.000 N 
ATOM      4  C   UNL     1       4.496   5.001  16.948  0.00  0.00    +0.000 A 
ATOM      5  N   UNL     1       4.239   6.238  17.328  0.00  0.00    +0.000 NA
ATOM      6  H   UNL     1       3.562   3.133  17.295  0.00  0.00    +0.000 HD
ENDROOT
BRANCH   4   7
ATOM      7  C   UNL     1       5.603   4.525  16.060  0.00  0.00    +0.000 C 
ATOM      8  C   UNL     1       6.712   5.599  15.972  0.00  0.00    +0.000 C 
ATOM      9  O   UNL     1       7.760   5.212  15.068  0.00  0.00    +0.000 OA
ATOM     10  C   UNL     1       7.219   4.967  13.764  0.00  0.00    +0.000 C 
ATOM     11  C   UNL     1       6.171   3.847  13.816  0.00  0.00    +0.000 C 
ATOM     12  N   UNL     1       5.057   4.181  14.718  0.00  0.00    +0.000 NA
ATOM     13  H   UNL     1       4.469   3.353  14.830  0.00  0.00    +0.000 HD
ENDBRANCH   4   7
BRANCH   1  17
ATOM     14  C   UNL     1       0.918   9.419  19.764  0.00  0.00    +0.000 A 
ATOM     15  C   UNL     1       1.306   8.347  20.579  0.00  0.00    +0.000 A 
ATOM     16  C   UNL     1       2.068   7.302  20.058  0.00  0.00    +0.000 A 
ATOM     17  C   UNL     1       2.446   7.298  18.709  0.00  0.00    +0.000 A 
ATOM     18  C   UNL     1       2.099   8.388  17.903  0.00  0.00    +0.000 A 
ATOM     19  C   UNL     1       1.333   9.437  18.423  0.00  0.00    +0.000 A 
BRANCH  14  21
ATOM     20  F   UNL     1      -0.161  10.428  21.656  0.00  0.00    +0.000 F 
ATOM     21  C   UNL     1       0.059  10.529  20.314  0.00  0.00    +0.000 C 
ATOM     22  F   UNL     1      -1.176  10.569  19.741  0.00  0.00    +0.000 F 
ATOM     23  F   UNL     1       0.605  11.760  20.118  0.00  0.00    +0.000 F 
ENDBRANCH  14  21
ENDBRANCH   1  17
TORSDOF 3
ENDMDL
MODEL 7
REMARK VINA RESULT:      -7.2      5.358      8.095
REMARK  Name = 
REMARK  3 active torsions:
REMARK  status: ('A' for Active; 'I' for Inactive)
REMARK    1  A    between atoms: C_2  and  C_5
REMARK    2  A    between atoms: C_8  and  C_9
REMARK    3  A    between atoms: C_12  and  C_13
REMARK                            x       y       z     vdW  Elec       q    Type
REMARK                         _______ _______ _______ _____ _____    ______ ____
ROOT
ATOM      1  C   UNL     1       3.059   6.505  18.705  0.00  0.00    +0.000 A 
ATOM      2  C   UNL     1       2.920   5.278  19.315  0.00  0.00    +0.000 A 
ATOM      3  N   UNL     1       3.807   4.463  18.680  0.00  0.00    +0.000 N 
ATOM      4  C   UNL     1       4.464   5.206  17.729  0.00  0.00    +0.000 A 
ATOM      5  N   UNL     1       4.016   6.448  17.719  0.00  0.00    +0.000 NA
ATOM      6  H   UNL     1       3.982   3.480  18.856  0.00  0.00    +0.000 HD
ENDROOT
BRANCH   4   7
ATOM      7  C   UNL     1       5.514   4.602  16.851  0.00  0.00    +0.000 C 
ATOM      8  C   UNL     1       6.711   5.572  16.711  0.00  0.00    +0.000 C 
ATOM      9  O   UNL     1       7.711   5.060  15.813  0.00  0.00    +0.000 OA
ATOM     10  C   UNL     1       7.134   4.814  14.525  0.00  0.00    +0.000 C 
ATOM     11  C   UNL     1       5.994   3.792  14.630  0.00  0.00    +0.000 C 
ATOM     12  N   UNL     1       4.924   4.256  15.529  0.00  0.00    +0.000 NA
ATOM     13  H   UNL     1       4.268   3.487  15.678  0.00  0.00    +0.000 HD
ENDBRANCH   4   7
BRANCH   1  17
ATOM     14  C   UNL     1       0.479   9.807  19.496  0.00  0.00    +0.000 A 
ATOM     15  C   UNL     1       0.905   8.975  20.539  0.00  0.00    +0.000 A 
ATOM     16  C   UNL     1       1.786   7.923  20.291  0.00  0.00    +0.000 A 
ATOM     17  C   UNL     1       2.249   7.671  18.994  0.00  0.00    +0.000 A 
ATOM     18  C   UNL     1       1.862   8.527  17.957  0.00  0.00    +0.000 A 
ATOM     19  C   UNL     1       0.977   9.582  18.202  0.00  0.00    +0.000 A 
BRANCH  14  21
ATOM     20  F   UNL     1       0.022  12.162  19.579  0.00  0.00    +0.000 F 
ATOM     21  C   UNL     1      -0.507  10.918  19.754  0.00  0.00    +0.000 C 
ATOM     22  F   UNL     1      -0.994  10.900  21.026  0.00  0.00    +0.000 F 
ATOM     23  F   UNL     1      -1.593  10.857  18.935  0.00  0.00    +0.000 F 
ENDBRANCH  14  21
ENDBRANCH   1  17
TORSDOF 3
ENDMDL
MODEL 8
REMARK VINA RESULT:      -7.1      1.305      2.046
REMARK  Name = 
REMARK  3 active torsions:
REMARK  status: ('A' for Active; 'I' for Inactive)
REMARK    1  A    between atoms: C_2  and  C_5
REMARK    2  A    between atoms: C_8  and  C_9
REMARK    3  A    between atoms: C_12  and  C_13
REMARK                            x       y       z     vdW  Elec       q    Type
REMARK                         _______ _______ _______ _____ _____    ______ ____
ROOT
ATOM      1  C   UNL     1       2.754   6.947  18.780  0.00  0.00    +0.000 A 
ATOM      2  C   UNL     1       2.493   6.510  20.060  0.00  0.00    +0.000 A 
ATOM      3  N   UNL     1       1.713   7.478  20.614  0.00  0.00    +0.000 N 
ATOM      4  C   UNL     1       1.507   8.453  19.668  0.00  0.00    +0.000 A 
ATOM      5  N   UNL     1       2.141   8.157  18.550  0.00  0.00    +0.000 NA
ATOM      6  H   UNL     1       1.329   7.504  21.552  0.00  0.00    +0.000 HD
ENDROOT
BRANCH   4   7
ATOM      7  C   UNL     1       0.681   9.667  19.962  0.00  0.00    +0.000 C 
ATOM      8  C   UNL     1       1.153  10.853  19.089  0.00  0.00    +0.000 C 
ATOM      9  O   UNL     1       0.434  12.060  19.395  0.00  0.00    +0.000 OA
ATOM     10  C   UNL     1       0.590  12.386  20.781  0.00  0.00    +0.000 C 
ATOM     11  C   UNL     1       0.054  11.254  21.667  0.00  0.00    +0.000 C 
ATOM     12  N   UNL     1       0.755   9.984  21.414  0.00  0.00    +0.000 NA
ATOM     13  H   UNL     1       0.268   9.239  21.916  0.00  0.00    +0.000 HD
ENDBRANCH   4   7
BRANCH   1  17
ATOM     14  C   UNL     1       5.139   4.984  15.840  0.00  0.00    +0.000 A 
ATOM     15  C   UNL     1       5.230   6.371  16.016  0.00  0.00    +0.000 A 
ATOM     16  C   UNL     1       4.486   7.010  17.008  0.00  0.00    +0.000 A 
ATOM     17  C   UNL     1       3.626   6.278  17.836  0.00  0.00    +0.000 A 
ATOM     18  C   UNL     1       3.567   4.887  17.695  0.00  0.00    +0.000 A 
ATOM     19  C   UNL     1       4.311   4.244  16.699  0.00  0.00    +0.000 A 
BRANCH  14  21
ATOM     20  F   UNL     1       5.198   4.159  13.587  0.00  0.00    +0.000 F 
ATOM     21  C   UNL     1       5.910   4.298  14.741  0.00  0.00    +0.000 C 
ATOM     22  F   UNL     1       6.305   3.042  15.085  0.00  0.00    +0.000 F 
ATOM     23  F   UNL     1       7.045   4.969  14.400  0.00  0.00    +0.000 F 
ENDBRANCH  14  21
ENDBRANCH   1  17
TORSDOF 3
ENDMDL
MODEL 9
REMARK VINA RESULT:      -7.1      1.260      1.912
REMARK  Name = 
REMARK  3 active torsions:
REMARK  status: ('A' for Active; 'I' for Inactive)
REMARK    1  A    between atoms: C_2  and  C_5
REMARK    2  A    between atoms: C_8  and  C_9
REMARK    3  A    between atoms: C_12  and  C_13
REMARK                            x       y       z     vdW  Elec       q    Type
REMARK                         _______ _______ _______ _____ _____    ______ ____
ROOT
ATOM      1  C   UNL     1       3.060   6.023  18.937  0.00  0.00    +0.000 A 
ATOM      2  C   UNL     1       2.946   5.339  20.127  0.00  0.00    +0.000 A 
ATOM      3  N   UNL     1       2.158   6.123  20.913  0.00  0.00    +0.000 N 
ATOM      4  C   UNL     1       1.803   7.234  20.189  0.00  0.00    +0.000 A 
ATOM      5  N   UNL     1       2.351   7.200  18.988  0.00  0.00    +0.000 NA
ATOM      6  H   UNL     1       1.860   5.945  21.866  0.00  0.00    +0.000 HD
ENDROOT
BRANCH   4   7
ATOM      7  C   UNL     1       0.930   8.302  20.770  0.00  0.00    +0.000 C 
ATOM      8  C   UNL     1       0.811   9.486  19.781  0.00  0.00    +0.000 C 
ATOM      9  O   UNL     1       0.041  10.567  20.333  0.00  0.00    +0.000 OA
ATOM     10  C   UNL     1       0.633  11.016  21.558  0.00  0.00    +0.000 C 
ATOM     11  C   UNL     1       0.690   9.876  22.582  0.00  0.00    +0.000 C 
ATOM     12  N   UNL     1       1.475   8.733  22.086  0.00  0.00    +0.000 NA
ATOM     13  H   UNL     1       1.359   7.953  22.736  0.00  0.00    +0.000 HD
ENDBRANCH   4   7
BRANCH   1  17
ATOM     14  C   UNL     1       5.285   4.806  15.509  0.00  0.00    +0.000 A 
ATOM     15  C   UNL     1       5.196   6.162  15.851  0.00  0.00    +0.000 A 
ATOM     16  C   UNL     1       4.508   6.559  16.998  0.00  0.00    +0.000 A 
ATOM     17  C   UNL     1       3.884   5.611  17.819  0.00  0.00    +0.000 A 
ATOM     18  C   UNL     1       4.010   4.253  17.506  0.00  0.00    +0.000 A 
ATOM     19  C   UNL     1       4.698   3.852  16.356  0.00  0.00    +0.000 A 
BRANCH  14  21
ATOM     20  F   UNL     1       6.669   3.202  14.379  0.00  0.00    +0.000 F 
ATOM     21  C   UNL     1       5.992   4.379  14.248  0.00  0.00    +0.000 C 
ATOM     22  F   UNL     1       6.913   5.290  13.829  0.00  0.00    +0.000 F 
ATOM     23  F   UNL     1       5.137   4.201  13.203  0.00  0.00    +0.000 F 
ENDBRANCH  14  21
ENDBRANCH   1  17
TORSDOF 3
ENDMDL
