MODEL 1
REMARK VINA RESULT:      -8.1      0.000      0.000
REMARK  Name = 
REMARK  12 active torsions:
REMARK  status: ('A' for Active; 'I' for Inactive)
REMARK    1  A    between atoms: C_1  and  C_2
REMARK    2  A    between atoms: C_2  and  N_3
REMARK    3  A    between atoms: N_3  and  C_4
REMARK    4  A    between atoms: N_3  and  C_6
REMARK    5  A    between atoms: C_4  and  C_5
REMARK    6  A    between atoms: C_6  and  C_7
REMARK    7  A    between atoms: C_7  and  N_8
REMARK    8  A    between atoms: C_9  and  C_11
REMARK    9  A    between atoms: C_15  and  N_16
REMARK   10  A    between atoms: C_17  and  C_19
REMARK   11  A    between atoms: C_19  and  O_20
REMARK   12  A    between atoms: O_20  and  C_21
REMARK                            x       y       z     vdW  Elec       q    Type
REMARK                         _______ _______ _______ _____ _____    ______ ____
ROOT
ATOM      1  C   UNL     1       3.012   5.898  18.652  0.00  0.00    +0.000 A 
ATOM      2  C   UNL     1       2.110   4.985  18.083  0.00  0.00    +0.000 A 
ATOM      3  C   UNL     1       2.564   3.783  17.538  0.00  0.00    +0.000 A 
ATOM      4  C   UNL     1       3.924   3.481  17.569  0.00  0.00    +0.000 A 
ATOM      5  C   UNL     1       4.815   4.376  18.163  0.00  0.00    +0.000 A 
ATOM      6  C   UNL     1       4.375   5.589  18.695  0.00  0.00    +0.000 A 
ENDROOT
BRANCH   1   8
ATOM      7  N   UNL     1       2.036   7.052  20.575  0.00  0.00    +0.000 N 
ATOM      8  C   UNL     1       2.466   7.137  19.265  0.00  0.00    +0.000 C 
ATOM      9  O   UNL     1       2.435   8.177  18.612  0.00  0.00    +0.000 OA
ATOM     10  H   UNL     1       2.324   6.277  21.160  0.00  0.00    +0.000 HD
BRANCH   7  11
ATOM     11  C   UNL     1       1.538   8.230  21.256  0.00  0.00    +0.000 C 
BRANCH  11  12
ATOM     12  C   UNL     1       0.002   8.337  21.222  0.00  0.00    +0.000 C 
BRANCH  12  13
ATOM     13  N   UNL     1      -0.552   9.695  20.989  0.00  0.00    +0.000 NA
BRANCH  13  15
ATOM     14  C   UNL     1      -1.174  11.185  22.936  0.00  0.00    +0.000 C 
ATOM     15  C   UNL     1      -0.083  10.647  22.014  0.00  0.00    +0.000 C 
ENDBRANCH  13  15
BRANCH  13  16
ATOM     16  C   UNL     1      -0.277  10.138  19.606  0.00  0.00    +0.000 C 
ATOM     17  C   UNL     1       0.727  11.277  19.435  0.00  0.00    +0.000 C 
ENDBRANCH  13  16
ENDBRANCH  12  13
ENDBRANCH  11  12
ENDBRANCH   7  11
ENDBRANCH   1   8
BRANCH   5  18
ATOM     18  N   UNL     1       6.160   4.018  18.261  0.00  0.00    +0.000 N 
ATOM     19  C   UNL     1       7.198   4.619  17.590  0.00  0.00    +0.000 C 
ATOM     20  O   UNL     1       8.343   4.191  17.744  0.00  0.00    +0.000 OA
ATOM     21  H   UNL     1       6.409   3.192  18.797  0.00  0.00    +0.000 HD
BRANCH  19  22
ATOM     22  C   UNL     1       6.887   5.793  16.664  0.00  0.00    +0.000 C 
BRANCH  22  23
ATOM     23  O   UNL     1       7.565   5.529  15.440  0.00  0.00    +0.000 OA
BRANCH  23  24
ATOM     24  C   UNL     1       6.851   4.881  14.474  0.00  0.00    +0.000 A 
ATOM     25  C   UNL     1       7.547   4.653  13.283  0.00  0.00    +0.000 A 
ATOM     26  C   UNL     1       6.948   3.956  12.232  0.00  0.00    +0.000 A 
ATOM     27  C   UNL     1       5.651   3.473  12.380  0.00  0.00    +0.000 A 
ATOM     28 CL   UNL     1       4.914   2.594  11.098  0.00  0.00    +0.000 Cl
ATOM     29  C   UNL     1       4.952   3.688  13.567  0.00  0.00    +0.000 A 
ATOM     30  C   UNL     1       5.552   4.393  14.617  0.00  0.00    +0.000 A 
ENDBRANCH  23  24
ENDBRANCH  22  23
ENDBRANCH  19  22
ENDBRANCH   5  18
TORSDOF 10
ENDMDL
MODEL 2
REMARK VINA RESULT:      -7.8      1.026      1.810
REMARK  Name = 
REMARK  12 active torsions:
REMARK  status: ('A' for Active; 'I' for Inactive)
REMARK    1  A    between atoms: C_1  and  C_2
REMARK    2  A    between atoms: C_2  and  N_3
REMARK    3  A    between atoms: N_3  and  C_4
REMARK    4  A    between atoms: N_3  and  C_6
REMARK    5  A    between atoms: C_4  and  C_5
REMARK    6  A    between atoms: C_6  and  C_7
REMARK    7  A    between atoms: C_7  and  N_8
REMARK    8  A    between atoms: C_9  and  C_11
REMARK    9  A    between atoms: C_15  and  N_16
REMARK   10  A    between atoms: C_17  and  C_19
REMARK   11  A    between atoms: C_19  and  O_20
REMARK   12  A    between atoms: O_20  and  C_21
REMARK                            x       y       z     vdW  Elec       q    Type
REMARK                         _______ _______ _______ _____ _____    ______ ____
ROOT
ATOM      1  C   UNL     1       2.726   5.081  19.180  0.00  0.00    +0.000 A 
ATOM      2  C   UNL     1       2.021   4.297  18.254  0.00  0.00    +0.000 A 
ATOM      3  C   UNL     1       2.699   3.442  17.384  0.00  0.00    +0.000 A 
ATOM      4  C   UNL     1       4.088   3.357  17.443  0.00  0.00    +0.000 A 
ATOM      5  C   UNL     1       4.785   4.115  18.386  0.00  0.00    +0.000 A 
ATOM      6  C   UNL     1       4.120   4.986  19.248  0.00  0.00    +0.000 A 
ENDROOT
BRANCH   1   8
ATOM      7  N   UNL     1       2.194   7.292  20.081  0.00  0.00    +0.000 N 
ATOM      8  C   UNL     1       1.949   5.933  20.118  0.00  0.00    +0.000 C 
ATOM      9  O   UNL     1       1.119   5.418  20.862  0.00  0.00    +0.000 OA
ATOM     10  H   UNL     1       2.666   7.707  19.287  0.00  0.00    +0.000 HD
BRANCH   7  11
ATOM     11  C   UNL     1       1.438   8.191  20.930  0.00  0.00    +0.000 C 
BRANCH  11  12
ATOM     12  C   UNL     1       1.221   9.575  20.292  0.00  0.00    +0.000 C 
BRANCH  12  13
ATOM     13  N   UNL     1       0.126  10.395  20.869  0.00  0.00    +0.000 NA
BRANCH  13  15
ATOM     14  C   UNL     1      -1.060  11.894  19.213  0.00  0.00    +0.000 C 
ATOM     15  C   UNL     1      -0.991  10.542  19.918  0.00  0.00    +0.000 C 
ENDBRANCH  13  15
BRANCH  13  16
ATOM     16  C   UNL     1      -0.287   9.859  22.183  0.00  0.00    +0.000 C 
ATOM     17  C   UNL     1      -1.106  10.788  23.078  0.00  0.00    +0.000 C 
ENDBRANCH  13  16
ENDBRANCH  12  13
ENDBRANCH  11  12
ENDBRANCH   7  11
ENDBRANCH   1   8
BRANCH   5  18
ATOM     18  N   UNL     1       6.167   3.952  18.487  0.00  0.00    +0.000 N 
ATOM     19  C   UNL     1       7.109   4.642  17.761  0.00  0.00    +0.000 C 
ATOM     20  O   UNL     1       8.302   4.387  17.926  0.00  0.00    +0.000 OA
ATOM     21  H   UNL     1       6.531   3.207  19.074  0.00  0.00    +0.000 HD
BRANCH  19  22
ATOM     22  C   UNL     1       6.633   5.696  16.763  0.00  0.00    +0.000 C 
BRANCH  22  23
ATOM     23  O   UNL     1       7.480   5.580  15.624  0.00  0.00    +0.000 OA
BRANCH  23  24
ATOM     24  C   UNL     1       6.974   4.902  14.553  0.00  0.00    +0.000 A 
ATOM     25  C   UNL     1       5.693   4.375  14.745  0.00  0.00    +0.000 A 
ATOM     26  C   UNL     1       5.039   3.702  13.711  0.00  0.00    +0.000 A 
ATOM     27  C   UNL     1       5.666   3.569  12.475  0.00  0.00    +0.000 A 
ATOM     28 CL   UNL     1       4.858   2.759  11.190  0.00  0.00    +0.000 Cl
ATOM     29  C   UNL     1       6.938   4.099  12.271  0.00  0.00    +0.000 A 
ATOM     30  C   UNL     1       7.595   4.767  13.311  0.00  0.00    +0.000 A 
ENDBRANCH  23  24
ENDBRANCH  22  23
ENDBRANCH  19  22
ENDBRANCH   5  18
TORSDOF 10
ENDMDL
MODEL 3
REMARK VINA RESULT:      -7.7      0.999      1.024
REMARK  Name = 
REMARK  12 active torsions:
REMARK  status: ('A' for Active; 'I' for Inactive)
REMARK    1  A    between atoms: C_1  and  C_2
REMARK    2  A    between atoms: C_2  and  N_3
REMARK    3  A    between atoms: N_3  and  C_4
REMARK    4  A    between atoms: N_3  and  C_6
REMARK    5  A    between atoms: C_4  and  C_5
REMARK    6  A    between atoms: C_6  and  C_7
REMARK    7  A    between atoms: C_7  and  N_8
REMARK    8  A    between atoms: C_9  and  C_11
REMARK    9  A    between atoms: C_15  and  N_16
REMARK   10  A    between atoms: C_17  and  C_19
REMARK   11  A    between atoms: C_19  and  O_20
REMARK   12  A    between atoms: O_20  and  C_21
REMARK                            x       y       z     vdW  Elec       q    Type
REMARK                         _______ _______ _______ _____ _____    ______ ____
ROOT
ATOM      1  C   UNL     1       2.887   5.167  19.053  0.00  0.00    +0.000 A 
ATOM      2  C   UNL     1       2.123   4.457  18.112  0.00  0.00    +0.000 A 
ATOM      3  C   UNL     1       2.737   3.591  17.205  0.00  0.00    +0.000 A 
ATOM      4  C   UNL     1       4.120   3.422  17.241  0.00  0.00    +0.000 A 
ATOM      5  C   UNL     1       4.873   4.106  18.197  0.00  0.00    +0.000 A 
ATOM      6  C   UNL     1       4.273   4.987  19.096  0.00  0.00    +0.000 A 
ENDROOT
BRANCH   1   8
ATOM      7  N   UNL     1       2.230   7.396  19.815  0.00  0.00    +0.000 N 
ATOM      8  C   UNL     1       2.174   6.033  20.028  0.00  0.00    +0.000 C 
ATOM      9  O   UNL     1       1.556   5.521  20.958  0.00  0.00    +0.000 OA
ATOM     10  H   UNL     1       2.503   7.763  18.911  0.00  0.00    +0.000 HD
BRANCH   7  11
ATOM     11  C   UNL     1       1.518   8.301  20.695  0.00  0.00    +0.000 C 
BRANCH  11  12
ATOM     12  C   UNL     1       0.799   9.432  19.937  0.00  0.00    +0.000 C 
BRANCH  12  13
ATOM     13  N   UNL     1      -0.295  10.116  20.671  0.00  0.00    +0.000 NA
BRANCH  13  15
ATOM     14  C   UNL     1      -0.798  11.970  22.316  0.00  0.00    +0.000 C 
ATOM     15  C   UNL     1       0.240  11.048  21.682  0.00  0.00    +0.000 C 
ENDBRANCH  13  15
BRANCH  13  16
ATOM     16  C   UNL     1      -1.235  10.753  19.725  0.00  0.00    +0.000 C 
ATOM     17  C   UNL     1      -0.848  10.728  18.248  0.00  0.00    +0.000 C 
ENDBRANCH  13  16
ENDBRANCH  12  13
ENDBRANCH  11  12
ENDBRANCH   7  11
ENDBRANCH   1   8
BRANCH   5  18
ATOM     18  N   UNL     1       6.244   3.857  18.272  0.00  0.00    +0.000 N 
ATOM     19  C   UNL     1       7.224   4.579  17.631  0.00  0.00    +0.000 C 
ATOM     20  O   UNL     1       8.401   4.242  17.760  0.00  0.00    +0.000 OA
ATOM     21  H   UNL     1       6.566   3.029  18.763  0.00  0.00    +0.000 HD
BRANCH  19  22
ATOM     22  C   UNL     1       6.808   5.770  16.771  0.00  0.00    +0.000 C 
BRANCH  22  23
ATOM     23  O   UNL     1       7.508   5.636  15.537  0.00  0.00    +0.000 OA
BRANCH  23  24
ATOM     24  C   UNL     1       6.873   4.944  14.547  0.00  0.00    +0.000 A 
ATOM     25  C   UNL     1       7.619   4.778  13.376  0.00  0.00    +0.000 A 
ATOM     26  C   UNL     1       7.106   4.045  12.305  0.00  0.00    +0.000 A 
ATOM     27  C   UNL     1       5.845   3.464  12.411  0.00  0.00    +0.000 A 
ATOM     28 CL   UNL     1       5.215   2.543  11.103  0.00  0.00    +0.000 Cl
ATOM     29  C   UNL     1       5.098   3.617  13.578  0.00  0.00    +0.000 A 
ATOM     30  C   UNL     1       5.611   4.358  14.648  0.00  0.00    +0.000 A 
ENDBRANCH  23  24
ENDBRANCH  22  23
ENDBRANCH  19  22
ENDBRANCH   5  18
TORSDOF 10
ENDMDL
MODEL 4
REMARK VINA RESULT:      -7.4      1.558      2.211
REMARK  Name = 
REMARK  12 active torsions:
REMARK  status: ('A' for Active; 'I' for Inactive)
REMARK    1  A    between atoms: C_1  and  C_2
REMARK    2  A    between atoms: C_2  and  N_3
REMARK    3  A    between atoms: N_3  and  C_4
REMARK    4  A    between atoms: N_3  and  C_6
REMARK    5  A    between atoms: C_4  and  C_5
REMARK    6  A    between atoms: C_6  and  C_7
REMARK    7  A    between atoms: C_7  and  N_8
REMARK    8  A    between atoms: C_9  and  C_11
REMARK    9  A    between atoms: C_15  and  N_16
REMARK   10  A    between atoms: C_17  and  C_19
REMARK   11  A    between atoms: C_19  and  O_20
REMARK   12  A    between atoms: O_20  and  C_21
REMARK                            x       y       z     vdW  Elec       q    Type
REMARK                         _______ _______ _______ _____ _____    ______ ____
ROOT
ATOM      1  C   UNL     1       2.854   6.074  18.525  0.00  0.00    +0.000 A 
ATOM      2  C   UNL     1       2.010   5.053  18.061  0.00  0.00    +0.000 A 
ATOM      3  C   UNL     1       2.530   3.807  17.706  0.00  0.00    +0.000 A 
ATOM      4  C   UNL     1       3.899   3.572  17.823  0.00  0.00    +0.000 A 
ATOM      5  C   UNL     1       4.732   4.579  18.313  0.00  0.00    +0.000 A 
ATOM      6  C   UNL     1       4.226   5.833  18.655  0.00  0.00    +0.000 A 
ENDROOT
BRANCH   1   8
ATOM      7  N   UNL     1       1.969   8.279  17.943  0.00  0.00    +0.000 N 
ATOM      8  C   UNL     1       2.239   7.361  18.940  0.00  0.00    +0.000 C 
ATOM      9  O   UNL     1       1.976   7.557  20.124  0.00  0.00    +0.000 OA
ATOM     10  H   UNL     1       1.939   7.987  16.973  0.00  0.00    +0.000 HD
BRANCH   7  11
ATOM     11  C   UNL     1       1.323   9.535  18.265  0.00  0.00    +0.000 C 
BRANCH  11  12
ATOM     12  C   UNL     1       2.266  10.745  18.126  0.00  0.00    +0.000 C 
BRANCH  12  13
ATOM     13  N   UNL     1       1.663  12.075  18.394  0.00  0.00    +0.000 NA
BRANCH  13  15
ATOM     14  C   UNL     1       1.010  12.252  20.832  0.00  0.00    +0.000 C 
ATOM     15  C   UNL     1       0.580  11.981  19.392  0.00  0.00    +0.000 C 
ENDBRANCH  13  15
BRANCH  13  16
ATOM     16  C   UNL     1       2.708  13.056  18.754  0.00  0.00    +0.000 C 
ATOM     17  C   UNL     1       2.571  14.457  18.159  0.00  0.00    +0.000 C 
ENDBRANCH  13  16
ENDBRANCH  12  13
ENDBRANCH  11  12
ENDBRANCH   7  11
ENDBRANCH   1   8
BRANCH   5  18
ATOM     18  N   UNL     1       6.085   4.296  18.504  0.00  0.00    +0.000 N 
ATOM     19  C   UNL     1       7.123   4.822  17.772  0.00  0.00    +0.000 C 
ATOM     20  O   UNL     1       8.276   4.472  18.025  0.00  0.00    +0.000 OA
ATOM     21  H   UNL     1       6.345   3.579  19.174  0.00  0.00    +0.000 HD
BRANCH  19  22
ATOM     22  C   UNL     1       6.800   5.817  16.660  0.00  0.00    +0.000 C 
BRANCH  22  23
ATOM     23  O   UNL     1       7.651   5.486  15.567  0.00  0.00    +0.000 OA
BRANCH  23  24
ATOM     24  C   UNL     1       7.068   4.849  14.510  0.00  0.00    +0.000 A 
ATOM     25  C   UNL     1       5.824   4.273  14.786  0.00  0.00    +0.000 A 
ATOM     26  C   UNL     1       5.098   3.634  13.780  0.00  0.00    +0.000 A 
ATOM     27  C   UNL     1       5.614   3.584  12.488  0.00  0.00    +0.000 A 
ATOM     28 CL   UNL     1       4.715   2.816  11.238  0.00  0.00    +0.000 Cl
ATOM     29  C   UNL     1       6.848   4.162  12.201  0.00  0.00    +0.000 A 
ATOM     30  C   UNL     1       7.578   4.796  13.213  0.00  0.00    +0.000 A 
ENDBRANCH  23  24
ENDBRANCH  22  23
ENDBRANCH  19  22
ENDBRANCH   5  18
TORSDOF 10
ENDMDL
MODEL 5
REMARK VINA RESULT:      -7.4      5.188      7.344
REMARK  Name = 
REMARK  12 active torsions:
REMARK  status: ('A' for Active; 'I' for Inactive)
REMARK    1  A    between atoms: C_1  and  C_2
REMARK    2  A    between atoms: C_2  and  N_3
REMARK    3  A    between atoms: N_3  and  C_4
REMARK    4  A    between atoms: N_3  and  C_6
REMARK    5  A    between atoms: C_4  and  C_5
REMARK    6  A    between atoms: C_6  and  C_7
REMARK    7  A    between atoms: C_7  and  N_8
REMARK    8  A    between atoms: C_9  and  C_11
REMARK    9  A    between atoms: C_15  and  N_16
REMARK   10  A    between atoms: C_17  and  C_19
REMARK   11  A    between atoms: C_19  and  O_20
REMARK   12  A    between atoms: O_20  and  C_21
REMARK                            x       y       z     vdW  Elec       q    Type
REMARK                         _______ _______ _______ _____ _____    ______ ____
ROOT
ATOM      1  C   UNL     1       7.872   7.360  18.023  0.00  0.00    +0.000 A 
ATOM      2  C   UNL     1       8.059   6.524  19.136  0.00  0.00    +0.000 A 
ATOM      3  C   UNL     1       7.881   5.144  19.027  0.00  0.00    +0.000 A 
ATOM      4  C   UNL     1       7.524   4.590  17.799  0.00  0.00    +0.000 A 
ATOM      5  C   UNL     1       7.368   5.419  16.687  0.00  0.00    +0.000 A 
ATOM      6  C   UNL     1       7.527   6.801  16.789  0.00  0.00    +0.000 A 
ENDROOT
BRANCH   1   8
ATOM      7  N   UNL     1       9.094   9.184  19.101  0.00  0.00    +0.000 N 
ATOM      8  C   UNL     1       8.128   8.815  18.185  0.00  0.00    +0.000 C 
ATOM      9  O   UNL     1       7.503   9.622  17.503  0.00  0.00    +0.000 OA
ATOM     10  H   UNL     1       9.769   8.506  19.435  0.00  0.00    +0.000 HD
BRANCH   7  11
ATOM     11  C   UNL     1       9.435  10.581  19.277  0.00  0.00    +0.000 C 
BRANCH  11  12
ATOM     12  C   UNL     1       9.260  11.061  20.730  0.00  0.00    +0.000 C 
BRANCH  12  13
ATOM     13  N   UNL     1      10.170  12.148  21.172  0.00  0.00    +0.000 NA
BRANCH  13  15
ATOM     14  C   UNL     1      12.320  12.275  19.846  0.00  0.00    +0.000 C 
ATOM     15  C   UNL     1      10.880  12.749  20.028  0.00  0.00    +0.000 C 
ENDBRANCH  13  15
BRANCH  13  16
ATOM     16  C   UNL     1       9.439  13.135  21.994  0.00  0.00    +0.000 C 
ATOM     17  C   UNL     1       8.313  12.597  22.876  0.00  0.00    +0.000 C 
ENDBRANCH  13  16
ENDBRANCH  12  13
ENDBRANCH  11  12
ENDBRANCH   7  11
ENDBRANCH   1   8
BRANCH   5  18
ATOM     18  N   UNL     1       7.096   4.836  15.449  0.00  0.00    +0.000 N 
ATOM     19  C   UNL     1       5.867   4.380  15.034  0.00  0.00    +0.000 C 
ATOM     20  O   UNL     1       5.762   3.861  13.922  0.00  0.00    +0.000 OA
ATOM     21  H   UNL     1       7.867   4.642  14.819  0.00  0.00    +0.000 HD
BRANCH  19  22
ATOM     22  C   UNL     1       4.677   4.525  15.979  0.00  0.00    +0.000 C 
BRANCH  22  23
ATOM     23  O   UNL     1       4.499   3.254  16.598  0.00  0.00    +0.000 OA
BRANCH  23  24
ATOM     24  C   UNL     1       3.780   3.235  17.757  0.00  0.00    +0.000 A 
ATOM     25  C   UNL     1       2.697   2.350  17.761  0.00  0.00    +0.000 A 
ATOM     26  C   UNL     1       1.908   2.197  18.903  0.00  0.00    +0.000 A 
ATOM     27  C   UNL     1       2.215   2.922  20.051  0.00  0.00    +0.000 A 
ATOM     28 CL   UNL     1       1.261   2.722  21.468  0.00  0.00    +0.000 Cl
ATOM     29  C   UNL     1       3.298   3.799  20.060  0.00  0.00    +0.000 A 
ATOM     30  C   UNL     1       4.083   3.957  18.912  0.00  0.00    +0.000 A 
ENDBRANCH  23  24
ENDBRANCH  22  23
ENDBRANCH  19  22
ENDBRANCH   5  18
TORSDOF 10
ENDMDL
MODEL 6
REMARK VINA RESULT:      -7.3      3.299      5.180
REMARK  Name = 
REMARK  12 active torsions:
REMARK  status: ('A' for Active; 'I' for Inactive)
REMARK    1  A    between atoms: C_1  and  C_2
REMARK    2  A    between atoms: C_2  and  N_3
REMARK    3  A    between atoms: N_3  and  C_4
REMARK    4  A    between atoms: N_3  and  C_6
REMARK    5  A    between atoms: C_4  and  C_5
REMARK    6  A    between atoms: C_6  and  C_7
REMARK    7  A    between atoms: C_7  and  N_8
REMARK    8  A    between atoms: C_9  and  C_11
REMARK    9  A    between atoms: C_15  and  N_16
REMARK   10  A    between atoms: C_17  and  C_19
REMARK   11  A    between atoms: C_19  and  O_20
REMARK   12  A    between atoms: O_20  and  C_21
REMARK                            x       y       z     vdW  Elec       q    Type
REMARK                         _______ _______ _______ _____ _____    ______ ____
ROOT
ATOM      1  C   UNL     1       1.240   9.164  18.928  0.00  0.00    +0.000 A 
ATOM      2  C   UNL     1       2.036   8.992  17.785  0.00  0.00    +0.000 A 
ATOM      3  C   UNL     1       2.926   7.921  17.692  0.00  0.00    +0.000 A 
ATOM      4  C   UNL     1       3.017   7.006  18.740  0.00  0.00    +0.000 A 
ATOM      5  C   UNL     1       2.202   7.162  19.862  0.00  0.00    +0.000 A 
ATOM      6  C   UNL     1       1.322   8.238  19.974  0.00  0.00    +0.000 A 
ENDROOT
BRANCH   1   8
ATOM      7  N   UNL     1      -0.537  10.444  17.840  0.00  0.00    +0.000 N 
ATOM      8  C   UNL     1       0.272  10.291  18.949  0.00  0.00    +0.000 C 
ATOM      9  O   UNL     1       0.209  11.021  19.935  0.00  0.00    +0.000 OA
ATOM     10  H   UNL     1      -0.654   9.682  17.182  0.00  0.00    +0.000 HD
BRANCH   7  11
ATOM     11  C   UNL     1      -1.540  11.489  17.809  0.00  0.00    +0.000 C 
BRANCH  11  12
ATOM     12  C   UNL     1      -2.947  10.980  18.171  0.00  0.00    +0.000 C 
BRANCH  12  13
ATOM     13  N   UNL     1      -3.881  10.778  17.034  0.00  0.00    +0.000 NA
BRANCH  13  15
ATOM     14  C   UNL     1      -5.259  12.217  18.593  0.00  0.00    +0.000 C 
ATOM     15  C   UNL     1      -5.174  11.444  17.279  0.00  0.00    +0.000 C 
ENDBRANCH  13  15
BRANCH  13  16
ATOM     16  C   UNL     1      -3.245  11.181  15.762  0.00  0.00    +0.000 C 
ATOM     17  C   UNL     1      -3.011  10.079  14.731  0.00  0.00    +0.000 C 
ENDBRANCH  13  16
ENDBRANCH  12  13
ENDBRANCH  11  12
ENDBRANCH   7  11
ENDBRANCH   1   8
BRANCH   5  18
ATOM     18  N   UNL     1       2.246   6.189  20.862  0.00  0.00    +0.000 N 
ATOM     19  C   UNL     1       2.031   4.843  20.677  0.00  0.00    +0.000 C 
ATOM     20  O   UNL     1       2.074   4.088  21.649  0.00  0.00    +0.000 OA
ATOM     21  H   UNL     1       2.356   6.483  21.827  0.00  0.00    +0.000 HD
BRANCH  19  22
ATOM     22  C   UNL     1       1.736   4.338  19.267  0.00  0.00    +0.000 C 
BRANCH  22  23
ATOM     23  O   UNL     1       2.681   3.304  19.005  0.00  0.00    +0.000 OA
BRANCH  23  24
ATOM     24  C   UNL     1       3.816   3.669  18.342  0.00  0.00    +0.000 A 
ATOM     25  C   UNL     1       3.673   3.790  16.957  0.00  0.00    +0.000 A 
ATOM     26  C   UNL     1       4.745   4.205  16.165  0.00  0.00    +0.000 A 
ATOM     27  C   UNL     1       5.963   4.515  16.766  0.00  0.00    +0.000 A 
ATOM     28 CL   UNL     1       7.282   5.048  15.799  0.00  0.00    +0.000 Cl
ATOM     29  C   UNL     1       6.112   4.407  18.147  0.00  0.00    +0.000 A 
ATOM     30  C   UNL     1       5.038   3.983  18.938  0.00  0.00    +0.000 A 
ENDBRANCH  23  24
ENDBRANCH  22  23
ENDBRANCH  19  22
ENDBRANCH   5  18
TORSDOF 10
ENDMDL
MODEL 7
REMARK VINA RESULT:      -7.3      4.544      7.349
REMARK  Name = 
REMARK  12 active torsions:
REMARK  status: ('A' for Active; 'I' for Inactive)
REMARK    1  A    between atoms: C_1  and  C_2
REMARK    2  A    between atoms: C_2  and  N_3
REMARK    3  A    between atoms: N_3  and  C_4
REMARK    4  A    between atoms: N_3  and  C_6
REMARK    5  A    between atoms: C_4  and  C_5
REMARK    6  A    between atoms: C_6  and  C_7
REMARK    7  A    between atoms: C_7  and  N_8
REMARK    8  A    between atoms: C_9  and  C_11
REMARK    9  A    between atoms: C_15  and  N_16
REMARK   10  A    between atoms: C_17  and  C_19
REMARK   11  A    between atoms: C_19  and  O_20
REMARK   12  A    between atoms: O_20  and  C_21
REMARK                            x       y       z     vdW  Elec       q    Type
REMARK                         _______ _______ _______ _____ _____    ______ ____
ROOT
ATOM      1  C   UNL     1       6.797   6.083  17.498  0.00  0.00    +0.000 A 
ATOM      2  C   UNL     1       6.344   6.559  16.257  0.00  0.00    +0.000 A 
ATOM      3  C   UNL     1       5.427   5.823  15.505  0.00  0.00    +0.000 A 
ATOM      4  C   UNL     1       4.948   4.610  15.996  0.00  0.00    +0.000 A 
ATOM      5  C   UNL     1       5.376   4.153  17.243  0.00  0.00    +0.000 A 
ATOM      6  C   UNL     1       6.306   4.872  17.995  0.00  0.00    +0.000 A 
ENDROOT
BRANCH   1   8
ATOM      7  N   UNL     1       7.848   8.255  17.894  0.00  0.00    +0.000 N 
ATOM      8  C   UNL     1       7.732   6.934  18.279  0.00  0.00    +0.000 C 
ATOM      9  O   UNL     1       8.341   6.453  19.231  0.00  0.00    +0.000 OA
ATOM     10  H   UNL     1       7.146   8.680  17.301  0.00  0.00    +0.000 HD
BRANCH   7  11
ATOM     11  C   UNL     1       8.702   9.158  18.639  0.00  0.00    +0.000 C 
BRANCH  11  12
ATOM     12  C   UNL     1       9.038  10.443  17.860  0.00  0.00    +0.000 C 
BRANCH  12  13
ATOM     13  N   UNL     1       9.112  11.691  18.661  0.00  0.00    +0.000 NA
BRANCH  13  15
ATOM     14  C   UNL     1      11.632  11.537  18.829  0.00  0.00    +0.000 C 
ATOM     15  C   UNL     1      10.292  11.689  19.547  0.00  0.00    +0.000 C 
ENDBRANCH  13  15
BRANCH  13  16
ATOM     16  C   UNL     1       9.039  12.878  17.783  0.00  0.00    +0.000 C 
ATOM     17  C   UNL     1       7.670  13.541  17.637  0.00  0.00    +0.000 C 
ENDBRANCH  13  16
ENDBRANCH  12  13
ENDBRANCH  11  12
ENDBRANCH   7  11
ENDBRANCH   1   8
BRANCH   5  18
ATOM     18  N   UNL     1       4.821   2.980  17.755  0.00  0.00    +0.000 N 
ATOM     19  C   UNL     1       3.543   2.849  18.245  0.00  0.00    +0.000 C 
ATOM     20  O   UNL     1       3.179   1.761  18.693  0.00  0.00    +0.000 OA
ATOM     21  H   UNL     1       5.415   2.165  17.867  0.00  0.00    +0.000 HD
BRANCH  19  22
ATOM     22  C   UNL     1       2.624   4.068  18.225  0.00  0.00    +0.000 C 
BRANCH  22  23
ATOM     23  O   UNL     1       2.993   4.866  19.346  0.00  0.00    +0.000 OA
BRANCH  23  24
ATOM     24  C   UNL     1       2.596   6.172  19.323  0.00  0.00    +0.000 A 
ATOM     25  C   UNL     1       2.786   6.821  18.099  0.00  0.00    +0.000 A 
ATOM     26  C   UNL     1       2.377   8.144  17.926  0.00  0.00    +0.000 A 
ATOM     27  C   UNL     1       1.763   8.816  18.980  0.00  0.00    +0.000 A 
ATOM     28 CL   UNL     1       1.237  10.440  18.767  0.00  0.00    +0.000 Cl
ATOM     29  C   UNL     1       1.561   8.175  20.200  0.00  0.00    +0.000 A 
ATOM     30  C   UNL     1       1.978   6.850  20.374  0.00  0.00    +0.000 A 
ENDBRANCH  23  24
ENDBRANCH  22  23
ENDBRANCH  19  22
ENDBRANCH   5  18
TORSDOF 10
ENDMDL
MODEL 8
REMARK VINA RESULT:      -7.2      1.181      1.671
REMARK  Name = 
REMARK  12 active torsions:
REMARK  status: ('A' for Active; 'I' for Inactive)
REMARK    1  A    between atoms: C_1  and  C_2
REMARK    2  A    between atoms: C_2  and  N_3
REMARK    3  A    between atoms: N_3  and  C_4
REMARK    4  A    between atoms: N_3  and  C_6
REMARK    5  A    between atoms: C_4  and  C_5
REMARK    6  A    between atoms: C_6  and  C_7
REMARK    7  A    between atoms: C_7  and  N_8
REMARK    8  A    between atoms: C_9  and  C_11
REMARK    9  A    between atoms: C_15  and  N_16
REMARK   10  A    between atoms: C_17  and  C_19
REMARK   11  A    between atoms: C_19  and  O_20
REMARK   12  A    between atoms: O_20  and  C_21
REMARK                            x       y       z     vdW  Elec       q    Type
REMARK                         _______ _______ _______ _____ _____    ______ ____
ROOT
ATOM      1  C   UNL     1       3.086   5.973  18.290  0.00  0.00    +0.000 A 
ATOM      2  C   UNL     1       2.184   4.990  17.854  0.00  0.00    +0.000 A 
ATOM      3  C   UNL     1       2.634   3.714  17.509  0.00  0.00    +0.000 A 
ATOM      4  C   UNL     1       3.991   3.411  17.609  0.00  0.00    +0.000 A 
ATOM      5  C   UNL     1       4.881   4.381  18.072  0.00  0.00    +0.000 A 
ATOM      6  C   UNL     1       4.445   5.664  18.403  0.00  0.00    +0.000 A 
ENDROOT
BRANCH   1   8
ATOM      7  N   UNL     1       2.339   8.224  17.694  0.00  0.00    +0.000 N 
ATOM      8  C   UNL     1       2.543   7.296  18.695  0.00  0.00    +0.000 C 
ATOM      9  O   UNL     1       2.279   7.510  19.876  0.00  0.00    +0.000 OA
ATOM     10  H   UNL     1       2.302   7.933  16.724  0.00  0.00    +0.000 HD
BRANCH   7  11
ATOM     11  C   UNL     1       1.765   9.518  18.005  0.00  0.00    +0.000 C 
BRANCH  11  12
ATOM     12  C   UNL     1       0.941   9.510  19.305  0.00  0.00    +0.000 C 
BRANCH  12  13
ATOM     13  N   UNL     1       0.795  10.817  19.994  0.00  0.00    +0.000 NA
BRANCH  13  15
ATOM     14  C   UNL     1       2.003  13.018  19.689  0.00  0.00    +0.000 C 
ATOM     15  C   UNL     1       1.109  11.937  19.087  0.00  0.00    +0.000 C 
ENDBRANCH  13  15
BRANCH  13  16
ATOM     16  C   UNL     1      -0.537  10.927  20.625  0.00  0.00    +0.000 C 
ATOM     17  C   UNL     1      -1.567  11.799  19.909  0.00  0.00    +0.000 C 
ENDBRANCH  13  16
ENDBRANCH  12  13
ENDBRANCH  11  12
ENDBRANCH   7  11
ENDBRANCH   1   8
BRANCH   5  18
ATOM     18  N   UNL     1       6.221   4.032  18.247  0.00  0.00    +0.000 N 
ATOM     19  C   UNL     1       7.287   4.602  17.593  0.00  0.00    +0.000 C 
ATOM     20  O   UNL     1       8.424   4.186  17.819  0.00  0.00    +0.000 OA
ATOM     21  H   UNL     1       6.446   3.235  18.835  0.00  0.00    +0.000 HD
BRANCH  19  22
ATOM     22  C   UNL     1       7.016   5.728  16.598  0.00  0.00    +0.000 C 
BRANCH  22  23
ATOM     23  O   UNL     1       7.657   5.350  15.382  0.00  0.00    +0.000 OA
BRANCH  23  24
ATOM     24  C   UNL     1       6.867   4.777  14.429  0.00  0.00    +0.000 A 
ATOM     25  C   UNL     1       7.504   4.537  13.207  0.00  0.00    +0.000 A 
ATOM     26  C   UNL     1       6.823   3.909  12.162  0.00  0.00    +0.000 A 
ATOM     27  C   UNL     1       5.503   3.506  12.347  0.00  0.00    +0.000 A 
ATOM     28 CL   UNL     1       4.665   2.712  11.072  0.00  0.00    +0.000 Cl
ATOM     29  C   UNL     1       4.864   3.731  13.565  0.00  0.00    +0.000 A 
ATOM     30  C   UNL     1       5.546   4.368  14.608  0.00  0.00    +0.000 A 
ENDBRANCH  23  24
ENDBRANCH  22  23
ENDBRANCH  19  22
ENDBRANCH   5  18
TORSDOF 10
ENDMDL
MODEL 9
REMARK VINA RESULT:      -7.2      4.474      7.461
REMARK  Name = 
REMARK  12 active torsions:
REMARK  status: ('A' for Active; 'I' for Inactive)
REMARK    1  A    between atoms: C_1  and  C_2
REMARK    2  A    between atoms: C_2  and  N_3
REMARK    3  A    between atoms: N_3  and  C_4
REMARK    4  A    between atoms: N_3  and  C_6
REMARK    5  A    between atoms: C_4  and  C_5
REMARK    6  A    between atoms: C_6  and  C_7
REMARK    7  A    between atoms: C_7  and  N_8
REMARK    8  A    between atoms: C_9  and  C_11
REMARK    9  A    between atoms: C_15  and  N_16
REMARK   10  A    between atoms: C_17  and  C_19
REMARK   11  A    between atoms: C_19  and  O_20
REMARK   12  A    between atoms: O_20  and  C_21
REMARK                            x       y       z     vdW  Elec       q    Type
REMARK                         _______ _______ _______ _____ _____    ______ ____
ROOT
ATOM      1  C   UNL     1       6.755   5.634  17.402  0.00  0.00    +0.000 A 
ATOM      2  C   UNL     1       6.626   5.927  16.035  0.00  0.00    +0.000 A 
ATOM      3  C   UNL     1       5.774   5.175  15.224  0.00  0.00    +0.000 A 
ATOM      4  C   UNL     1       5.037   4.131  15.779  0.00  0.00    +0.000 A 
ATOM      5  C   UNL     1       5.144   3.861  17.144  0.00  0.00    +0.000 A 
ATOM      6  C   UNL     1       6.005   4.595  17.961  0.00  0.00    +0.000 A 
ENDROOT
BRANCH   1   8
ATOM      7  N   UNL     1       7.820   7.800  17.795  0.00  0.00    +0.000 N 
ATOM      8  C   UNL     1       7.634   6.502  18.228  0.00  0.00    +0.000 C 
ATOM      9  O   UNL     1       8.139   6.056  19.255  0.00  0.00    +0.000 OA
ATOM     10  H   UNL     1       7.187   8.211  17.119  0.00  0.00    +0.000 HD
BRANCH   7  11
ATOM     11  C   UNL     1       8.624   8.720  18.574  0.00  0.00    +0.000 C 
BRANCH  11  12
ATOM     12  C   UNL     1       8.635  10.146  17.993  0.00  0.00    +0.000 C 
BRANCH  12  13
ATOM     13  N   UNL     1       9.655  11.070  18.550  0.00  0.00    +0.000 NA
BRANCH  13  15
ATOM     14  C   UNL     1      10.972  12.755  17.200  0.00  0.00    +0.000 C 
ATOM     15  C   UNL     1       9.645  12.366  17.846  0.00  0.00    +0.000 C 
ENDBRANCH  13  15
BRANCH  13  16
ATOM     16  C   UNL     1       9.497  11.196  20.014  0.00  0.00    +0.000 C 
ATOM     17  C   UNL     1      10.599  11.945  20.763  0.00  0.00    +0.000 C 
ENDBRANCH  13  16
ENDBRANCH  12  13
ENDBRANCH  11  12
ENDBRANCH   7  11
ENDBRANCH   1   8
BRANCH   5  18
ATOM     18  N   UNL     1       4.334   2.868  17.696  0.00  0.00    +0.000 N 
ATOM     19  C   UNL     1       3.654   2.961  18.887  0.00  0.00    +0.000 C 
ATOM     20  O   UNL     1       2.990   2.002  19.278  0.00  0.00    +0.000 OA
ATOM     21  H   UNL     1       4.296   1.960  17.244  0.00  0.00    +0.000 HD
BRANCH  19  22
ATOM     22  C   UNL     1       3.762   4.257  19.689  0.00  0.00    +0.000 C 
BRANCH  22  23
ATOM     23  O   UNL     1       2.436   4.765  19.809  0.00  0.00    +0.000 OA
BRANCH  23  24
ATOM     24  C   UNL     1       2.269   6.097  19.568  0.00  0.00    +0.000 A 
ATOM     25  C   UNL     1       2.675   6.519  18.298  0.00  0.00    +0.000 A 
ATOM     26  C   UNL     1       2.512   7.849  17.905  0.00  0.00    +0.000 A 
ATOM     27  C   UNL     1       1.927   8.757  18.783  0.00  0.00    +0.000 A 
ATOM     28 CL   UNL     1       1.704  10.393  18.298  0.00  0.00    +0.000 Cl
ATOM     29  C   UNL     1       1.511   8.344  20.048  0.00  0.00    +0.000 A 
ATOM     30  C   UNL     1       1.682   7.012  20.442  0.00  0.00    +0.000 A 
ENDBRANCH  23  24
ENDBRANCH  22  23
ENDBRANCH  19  22
ENDBRANCH   5  18
TORSDOF 10
ENDMDL
