MODEL 1
REMARK VINA RESULT:      -6.7      0.000      0.000
REMARK  Name = 
REMARK  6 active torsions:
REMARK  status: ('A' for Active; 'I' for Inactive)
REMARK    1  A    between atoms: C_1  and  O_2
REMARK    2  A    between atoms: O_2  and  C_3
REMARK    3  A    between atoms: C_6  and  N_7
REMARK    4  A    between atoms: C_9  and  C_10
REMARK    5  A    between atoms: C_10  and  O_12
REMARK    6  A    between atoms: C_16  and  C_17
REMARK                            x       y       z     vdW  Elec       q    Type
REMARK                         _______ _______ _______ _____ _____    ______ ____
ROOT
ATOM      1  C   UNL     1       6.870   5.022  15.448  0.00  0.00    +0.000 A 
ATOM      2  C   UNL     1       6.254   3.807  15.134  0.00  0.00    +0.000 A 
ATOM      3  C   UNL     1       5.308   3.246  15.991  0.00  0.00    +0.000 A 
ATOM      4  C   UNL     1       4.975   3.887  17.188  0.00  0.00    +0.000 A 
ATOM      5  C   UNL     1       5.628   5.080  17.536  0.00  0.00    +0.000 A 
ATOM      6  C   UNL     1       6.584   5.648  16.673  0.00  0.00    +0.000 A 
ENDROOT
BRANCH   4   7
ATOM      7  N   UNL     1       3.977   3.341  18.041  0.00  0.00    +0.000 N 
ATOM      8  C   UNL     1       3.711   3.689  19.352  0.00  0.00    +0.000 A 
ATOM      9  C   UNL     1       2.674   2.889  19.793  0.00  0.00    +0.000 A 
ATOM     10  C   UNL     1       2.388   2.079  18.675  0.00  0.00    +0.000 A 
ATOM     11  N   UNL     1       3.155   2.353  17.620  0.00  0.00    +0.000 NA
BRANCH   9  12
ATOM     12  C   UNL     1       2.016   2.856  21.084  0.00  0.00    +0.000 C 
ATOM     13  O   UNL     1       2.616   2.631  22.125  0.00  0.00    +0.000 OA
BRANCH  12  14
ATOM     14  O   UNL     1       0.679   3.088  21.069  0.00  0.00    +0.000 OA
ATOM     15  H   UNL     1       0.259   2.919  20.210  0.00  0.00    +0.000 HD
ENDBRANCH  12  14
ENDBRANCH   9  12
ENDBRANCH   4   7
BRANCH   1  17
ATOM     16  C   UNL     1       7.741   5.148  13.261  0.00  0.00    +0.000 C 
ATOM     17  O   UNL     1       7.770   5.625  14.607  0.00  0.00    +0.000 OA
ENDBRANCH   1  17
BRANCH   6  18
ATOM     18  C   UNL     1       7.237   6.866  17.060  0.00  0.00    +0.000 C 
ATOM     19  N   UNL     1       7.752   7.867  17.341  0.00  0.00    +0.000 NA
ENDBRANCH   6  18
TORSDOF 5
ENDMDL
MODEL 2
REMARK VINA RESULT:      -6.6      1.242      1.566
REMARK  Name = 
REMARK  6 active torsions:
REMARK  status: ('A' for Active; 'I' for Inactive)
REMARK    1  A    between atoms: C_1  and  O_2
REMARK    2  A    between atoms: O_2  and  C_3
REMARK    3  A    between atoms: C_6  and  N_7
REMARK    4  A    between atoms: C_9  and  C_10
REMARK    5  A    between atoms: C_10  and  O_12
REMARK    6  A    between atoms: C_16  and  C_17
REMARK                            x       y       z     vdW  Elec       q    Type
REMARK                         _______ _______ _______ _____ _____    ______ ____
ROOT
ATOM      1  C   UNL     1       6.735   5.282  16.048  0.00  0.00    +0.000 A 
ATOM      2  C   UNL     1       5.942   4.132  16.013  0.00  0.00    +0.000 A 
ATOM      3  C   UNL     1       4.959   3.915  16.978  0.00  0.00    +0.000 A 
ATOM      4  C   UNL     1       4.766   4.842  18.006  0.00  0.00    +0.000 A 
ATOM      5  C   UNL     1       5.594   5.972  18.079  0.00  0.00    +0.000 A 
ATOM      6  C   UNL     1       6.588   6.193  17.107  0.00  0.00    +0.000 A 
ENDROOT
BRANCH   4   7
ATOM      7  N   UNL     1       3.733   4.646  18.964  0.00  0.00    +0.000 N 
ATOM      8  C   UNL     1       3.038   3.481  19.224  0.00  0.00    +0.000 A 
ATOM      9  C   UNL     1       2.117   3.756  20.215  0.00  0.00    +0.000 A 
ATOM     10  C   UNL     1       2.324   5.125  20.483  0.00  0.00    +0.000 A 
ATOM     11  N   UNL     1       3.298   5.660  19.746  0.00  0.00    +0.000 NA
BRANCH   9  12
ATOM     12  C   UNL     1       1.150   2.882  20.848  0.00  0.00    +0.000 C 
ATOM     13  O   UNL     1       1.266   2.492  22.001  0.00  0.00    +0.000 OA
BRANCH  12  14
ATOM     14  O   UNL     1       0.095   2.515  20.076  0.00  0.00    +0.000 OA
ATOM     15  H   UNL     1      -0.119   3.149  19.373  0.00  0.00    +0.000 HD
ENDBRANCH  12  14
ENDBRANCH   9  12
ENDBRANCH   4   7
BRANCH   1  17
ATOM     16  C   UNL     1       7.386   5.017  13.798  0.00  0.00    +0.000 C 
ATOM     17  O   UNL     1       7.680   5.550  15.090  0.00  0.00    +0.000 OA
ENDBRANCH   1  17
BRANCH   6  18
ATOM     18  C   UNL     1       7.421   7.357  17.214  0.00  0.00    +0.000 C 
ATOM     19  N   UNL     1       8.063   8.319  17.304  0.00  0.00    +0.000 NA
ENDBRANCH   6  18
TORSDOF 5
ENDMDL
MODEL 3
REMARK VINA RESULT:      -6.6      0.917      1.115
REMARK  Name = 
REMARK  6 active torsions:
REMARK  status: ('A' for Active; 'I' for Inactive)
REMARK    1  A    between atoms: C_1  and  O_2
REMARK    2  A    between atoms: O_2  and  C_3
REMARK    3  A    between atoms: C_6  and  N_7
REMARK    4  A    between atoms: C_9  and  C_10
REMARK    5  A    between atoms: C_10  and  O_12
REMARK    6  A    between atoms: C_16  and  C_17
REMARK                            x       y       z     vdW  Elec       q    Type
REMARK                         _______ _______ _______ _____ _____    ______ ____
ROOT
ATOM      1  C   UNL     1       6.355   5.161  15.675  0.00  0.00    +0.000 A 
ATOM      2  C   UNL     1       5.638   3.971  15.527  0.00  0.00    +0.000 A 
ATOM      3  C   UNL     1       4.960   3.409  16.608  0.00  0.00    +0.000 A 
ATOM      4  C   UNL     1       5.004   4.024  17.863  0.00  0.00    +0.000 A 
ATOM      5  C   UNL     1       5.766   5.190  18.032  0.00  0.00    +0.000 A 
ATOM      6  C   UNL     1       6.453   5.759  16.943  0.00  0.00    +0.000 A 
ENDROOT
BRANCH   4   7
ATOM      7  N   UNL     1       4.275   3.479  18.955  0.00  0.00    +0.000 N 
ATOM      8  C   UNL     1       2.942   3.681  19.260  0.00  0.00    +0.000 A 
ATOM      9  C   UNL     1       2.667   2.976  20.415  0.00  0.00    +0.000 A 
ATOM     10  C   UNL     1       3.905   2.387  20.742  0.00  0.00    +0.000 A 
ATOM     11  N   UNL     1       4.868   2.674  19.866  0.00  0.00    +0.000 NA
BRANCH   9  12
ATOM     12  C   UNL     1       1.423   2.852  21.149  0.00  0.00    +0.000 C 
ATOM     13  O   UNL     1       1.377   2.494  22.317  0.00  0.00    +0.000 OA
BRANCH  12  14
ATOM     14  O   UNL     1       0.298   3.157  20.454  0.00  0.00    +0.000 OA
ATOM     15  H   UNL     1       0.437   3.248  19.497  0.00  0.00    +0.000 HD
ENDBRANCH  12  14
ENDBRANCH   9  12
ENDBRANCH   4   7
BRANCH   1  17
ATOM     16  C   UNL     1       7.385   4.879  13.573  0.00  0.00    +0.000 C 
ATOM     17  O   UNL     1       6.996   5.766  14.623  0.00  0.00    +0.000 OA
ENDBRANCH   1  17
BRANCH   6  18
ATOM     18  C   UNL     1       7.227   6.949  17.151  0.00  0.00    +0.000 C 
ATOM     19  N   UNL     1       7.830   7.920  17.349  0.00  0.00    +0.000 NA
ENDBRANCH   6  18
TORSDOF 5
ENDMDL
MODEL 4
REMARK VINA RESULT:      -6.4      2.093      6.728
REMARK  Name = 
REMARK  6 active torsions:
REMARK  status: ('A' for Active; 'I' for Inactive)
REMARK    1  A    between atoms: C_1  and  O_2
REMARK    2  A    between atoms: O_2  and  C_3
REMARK    3  A    between atoms: C_6  and  N_7
REMARK    4  A    between atoms: C_9  and  C_10
REMARK    5  A    between atoms: C_10  and  O_12
REMARK    6  A    between atoms: C_16  and  C_17
REMARK                            x       y       z     vdW  Elec       q    Type
REMARK                         _______ _______ _______ _____ _____    ______ ____
ROOT
ATOM      1  C   UNL     1       1.888   3.949  19.185  0.00  0.00    +0.000 A 
ATOM      2  C   UNL     1       2.304   2.926  18.329  0.00  0.00    +0.000 A 
ATOM      3  C   UNL     1       3.399   3.105  17.485  0.00  0.00    +0.000 A 
ATOM      4  C   UNL     1       4.087   4.322  17.473  0.00  0.00    +0.000 A 
ATOM      5  C   UNL     1       3.642   5.372  18.291  0.00  0.00    +0.000 A 
ATOM      6  C   UNL     1       2.536   5.195  19.143  0.00  0.00    +0.000 A 
ENDROOT
BRANCH   4   7
ATOM      7  N   UNL     1       5.233   4.491  16.649  0.00  0.00    +0.000 N 
ATOM      8  C   UNL     1       5.282   4.485  15.267  0.00  0.00    +0.000 A 
ATOM      9  C   UNL     1       6.600   4.664  14.896  0.00  0.00    +0.000 A 
ATOM     10  C   UNL     1       7.278   4.757  16.129  0.00  0.00    +0.000 A 
ATOM     11  N   UNL     1       6.464   4.666  17.181  0.00  0.00    +0.000 NA
BRANCH   9  12
ATOM     12  C   UNL     1       7.187   4.738  13.573  0.00  0.00    +0.000 C 
ATOM     13  O   UNL     1       6.808   4.041  12.642  0.00  0.00    +0.000 OA
BRANCH  12  14
ATOM     14  O   UNL     1       8.195   5.634  13.426  0.00  0.00    +0.000 OA
ATOM     15  H   UNL     1       9.077   5.231  13.374  0.00  0.00    +0.000 HD
ENDBRANCH  12  14
ENDBRANCH   9  12
ENDBRANCH   4   7
BRANCH   1  17
ATOM     16  C   UNL     1       1.110   2.914  21.155  0.00  0.00    +0.000 C 
ATOM     17  O   UNL     1       0.843   3.792  20.060  0.00  0.00    +0.000 OA
ENDBRANCH   1  17
BRANCH   6  18
ATOM     18  C   UNL     1       2.104   6.291  19.962  0.00  0.00    +0.000 C 
ATOM     19  N   UNL     1       1.733   7.152  20.646  0.00  0.00    +0.000 NA
ENDBRANCH   6  18
TORSDOF 5
ENDMDL
MODEL 5
REMARK VINA RESULT:      -6.3      1.902      6.864
REMARK  Name = 
REMARK  6 active torsions:
REMARK  status: ('A' for Active; 'I' for Inactive)
REMARK    1  A    between atoms: C_1  and  O_2
REMARK    2  A    between atoms: O_2  and  C_3
REMARK    3  A    between atoms: C_6  and  N_7
REMARK    4  A    between atoms: C_9  and  C_10
REMARK    5  A    between atoms: C_10  and  O_12
REMARK    6  A    between atoms: C_16  and  C_17
REMARK                            x       y       z     vdW  Elec       q    Type
REMARK                         _______ _______ _______ _____ _____    ______ ____
ROOT
ATOM      1  C   UNL     1       2.578   2.803  19.709  0.00  0.00    +0.000 A 
ATOM      2  C   UNL     1       1.920   3.595  18.765  0.00  0.00    +0.000 A 
ATOM      3  C   UNL     1       2.629   4.217  17.739  0.00  0.00    +0.000 A 
ATOM      4  C   UNL     1       4.017   4.070  17.652  0.00  0.00    +0.000 A 
ATOM      5  C   UNL     1       4.692   3.320  18.628  0.00  0.00    +0.000 A 
ATOM      6  C   UNL     1       3.978   2.691  19.665  0.00  0.00    +0.000 A 
ENDROOT
BRANCH   4   7
ATOM      7  N   UNL     1       4.736   4.665  16.580  0.00  0.00    +0.000 N 
ATOM      8  C   UNL     1       5.567   4.034  15.674  0.00  0.00    +0.000 A 
ATOM      9  C   UNL     1       6.068   5.000  14.823  0.00  0.00    +0.000 A 
ATOM     10  C   UNL     1       5.488   6.192  15.305  0.00  0.00    +0.000 A 
ATOM     11  N   UNL     1       4.681   5.996  16.348  0.00  0.00    +0.000 NA
BRANCH   9  12
ATOM     12  C   UNL     1       6.975   4.866  13.701  0.00  0.00    +0.000 C 
ATOM     13  O   UNL     1       6.781   4.081  12.784  0.00  0.00    +0.000 OA
BRANCH  12  14
ATOM     14  O   UNL     1       8.068   5.670  13.730  0.00  0.00    +0.000 OA
ATOM     15  H   UNL     1       8.405   5.847  14.623  0.00  0.00    +0.000 HD
ENDBRANCH  12  14
ENDBRANCH   9  12
ENDBRANCH   4   7
BRANCH   1  17
ATOM     16  C   UNL     1       1.380   2.981  21.732  0.00  0.00    +0.000 C 
ATOM     17  O   UNL     1       1.907   2.139  20.705  0.00  0.00    +0.000 OA
ENDBRANCH   1  17
BRANCH   6  18
ATOM     18  C   UNL     1       4.699   1.936  20.649  0.00  0.00    +0.000 C 
ATOM     19  N   UNL     1       5.255   1.334  21.471  0.00  0.00    +0.000 NA
ENDBRANCH   6  18
TORSDOF 5
ENDMDL
MODEL 6
REMARK VINA RESULT:      -6.3      2.551      6.763
REMARK  Name = 
REMARK  6 active torsions:
REMARK  status: ('A' for Active; 'I' for Inactive)
REMARK    1  A    between atoms: C_1  and  O_2
REMARK    2  A    between atoms: O_2  and  C_3
REMARK    3  A    between atoms: C_6  and  N_7
REMARK    4  A    between atoms: C_9  and  C_10
REMARK    5  A    between atoms: C_10  and  O_12
REMARK    6  A    between atoms: C_16  and  C_17
REMARK                            x       y       z     vdW  Elec       q    Type
REMARK                         _______ _______ _______ _____ _____    ______ ____
ROOT
ATOM      1  C   UNL     1       2.221   6.292  19.986  0.00  0.00    +0.000 A 
ATOM      2  C   UNL     1       2.635   7.117  18.938  0.00  0.00    +0.000 A 
ATOM      3  C   UNL     1       3.473   6.630  17.936  0.00  0.00    +0.000 A 
ATOM      4  C   UNL     1       3.925   5.308  17.977  0.00  0.00    +0.000 A 
ATOM      5  C   UNL     1       3.557   4.488  19.056  0.00  0.00    +0.000 A 
ATOM      6  C   UNL     1       2.712   4.978  20.069  0.00  0.00    +0.000 A 
ENDROOT
BRANCH   4   7
ATOM      7  N   UNL     1       4.741   4.795  16.932  0.00  0.00    +0.000 N 
ATOM      8  C   UNL     1       5.464   5.515  16.001  0.00  0.00    +0.000 A 
ATOM      9  C   UNL     1       6.090   4.609  15.167  0.00  0.00    +0.000 A 
ATOM     10  C   UNL     1       5.672   3.360  15.669  0.00  0.00    +0.000 A 
ATOM     11  N   UNL     1       4.875   3.464  16.733  0.00  0.00    +0.000 NA
BRANCH   9  12
ATOM     12  C   UNL     1       6.965   4.844  14.036  0.00  0.00    +0.000 C 
ATOM     13  O   UNL     1       7.907   5.622  14.079  0.00  0.00    +0.000 OA
BRANCH  12  14
ATOM     14  O   UNL     1       6.674   4.142  12.911  0.00  0.00    +0.000 OA
ATOM     15  H   UNL     1       5.789   3.743  12.914  0.00  0.00    +0.000 HD
ENDBRANCH  12  14
ENDBRANCH   9  12
ENDBRANCH   4   7
BRANCH   1  17
ATOM     16  C   UNL     1       1.224   8.144  21.051  0.00  0.00    +0.000 C 
ATOM     17  O   UNL     1       1.361   6.724  20.964  0.00  0.00    +0.000 OA
ENDBRANCH   1  17
BRANCH   6  18
ATOM     18  C   UNL     1       2.359   4.115  21.160  0.00  0.00    +0.000 C 
ATOM     19  N   UNL     1       2.070   3.388  22.017  0.00  0.00    +0.000 NA
ENDBRANCH   6  18
TORSDOF 5
ENDMDL
MODEL 7
REMARK VINA RESULT:      -6.3      2.023      6.963
REMARK  Name = 
REMARK  6 active torsions:
REMARK  status: ('A' for Active; 'I' for Inactive)
REMARK    1  A    between atoms: C_1  and  O_2
REMARK    2  A    between atoms: O_2  and  C_3
REMARK    3  A    between atoms: C_6  and  N_7
REMARK    4  A    between atoms: C_9  and  C_10
REMARK    5  A    between atoms: C_10  and  O_12
REMARK    6  A    between atoms: C_16  and  C_17
REMARK                            x       y       z     vdW  Elec       q    Type
REMARK                         _______ _______ _______ _____ _____    ______ ____
ROOT
ATOM      1  C   UNL     1       3.030   4.311  19.590  0.00  0.00    +0.000 A 
ATOM      2  C   UNL     1       4.264   4.966  19.613  0.00  0.00    +0.000 A 
ATOM      3  C   UNL     1       5.079   4.989  18.483  0.00  0.00    +0.000 A 
ATOM      4  C   UNL     1       4.678   4.339  17.312  0.00  0.00    +0.000 A 
ATOM      5  C   UNL     1       3.464   3.633  17.298  0.00  0.00    +0.000 A 
ATOM      6  C   UNL     1       2.640   3.608  18.438  0.00  0.00    +0.000 A 
ENDROOT
BRANCH   4   7
ATOM      7  N   UNL     1       5.485   4.400  16.144  0.00  0.00    +0.000 N 
ATOM      8  C   UNL     1       5.253   3.783  14.929  0.00  0.00    +0.000 A 
ATOM      9  C   UNL     1       6.305   4.101  14.092  0.00  0.00    +0.000 A 
ATOM     10  C   UNL     1       7.133   4.908  14.899  0.00  0.00    +0.000 A 
ATOM     11  N   UNL     1       6.642   5.101  16.124  0.00  0.00    +0.000 NA
BRANCH   9  12
ATOM     12  C   UNL     1       6.541   3.715  12.715  0.00  0.00    +0.000 C 
ATOM     13  O   UNL     1       7.221   4.382  11.949  0.00  0.00    +0.000 OA
BRANCH  12  14
ATOM     14  O   UNL     1       5.954   2.556  12.321  0.00  0.00    +0.000 OA
ATOM     15  H   UNL     1       6.415   2.108  11.593  0.00  0.00    +0.000 HD
ENDBRANCH  12  14
ENDBRANCH   9  12
ENDBRANCH   4   7
BRANCH   1  17
ATOM     16  C   UNL     1       2.373   3.217  21.573  0.00  0.00    +0.000 C 
ATOM     17  O   UNL     1       2.182   4.307  20.669  0.00  0.00    +0.000 OA
ENDBRANCH   1  17
BRANCH   6  18
ATOM     18  C   UNL     1       1.408   2.873  18.392  0.00  0.00    +0.000 C 
ATOM     19  N   UNL     1       0.397   2.305  18.378  0.00  0.00    +0.000 NA
ENDBRANCH   6  18
TORSDOF 5
ENDMDL
MODEL 8
REMARK VINA RESULT:      -6.2      2.231      6.947
REMARK  Name = 
REMARK  6 active torsions:
REMARK  status: ('A' for Active; 'I' for Inactive)
REMARK    1  A    between atoms: C_1  and  O_2
REMARK    2  A    between atoms: O_2  and  C_3
REMARK    3  A    between atoms: C_6  and  N_7
REMARK    4  A    between atoms: C_9  and  C_10
REMARK    5  A    between atoms: C_10  and  O_12
REMARK    6  A    between atoms: C_16  and  C_17
REMARK                            x       y       z     vdW  Elec       q    Type
REMARK                         _______ _______ _______ _____ _____    ______ ____
ROOT
ATOM      1  C   UNL     1       3.208   4.637  19.458  0.00  0.00    +0.000 A 
ATOM      2  C   UNL     1       4.407   5.350  19.368  0.00  0.00    +0.000 A 
ATOM      3  C   UNL     1       5.185   5.293  18.213  0.00  0.00    +0.000 A 
ATOM      4  C   UNL     1       4.781   4.504  17.131  0.00  0.00    +0.000 A 
ATOM      5  C   UNL     1       3.606   3.744  17.234  0.00  0.00    +0.000 A 
ATOM      6  C   UNL     1       2.819   3.799  18.400  0.00  0.00    +0.000 A 
ENDROOT
BRANCH   4   7
ATOM      7  N   UNL     1       5.548   4.481  15.935  0.00  0.00    +0.000 N 
ATOM      8  C   UNL     1       5.220   3.871  14.739  0.00  0.00    +0.000 A 
ATOM      9  C   UNL     1       6.264   4.086  13.860  0.00  0.00    +0.000 A 
ATOM     10  C   UNL     1       7.186   4.830  14.624  0.00  0.00    +0.000 A 
ATOM     11  N   UNL     1       6.758   5.080  15.862  0.00  0.00    +0.000 NA
BRANCH   9  12
ATOM     12  C   UNL     1       6.417   3.663  12.483  0.00  0.00    +0.000 C 
ATOM     13  O   UNL     1       5.744   2.771  11.987  0.00  0.00    +0.000 OA
BRANCH  12  14
ATOM     14  O   UNL     1       7.364   4.321  11.767  0.00  0.00    +0.000 OA
ATOM     15  H   UNL     1       8.198   3.832  11.673  0.00  0.00    +0.000 HD
ENDBRANCH  12  14
ENDBRANCH   9  12
ENDBRANCH   4   7
BRANCH   1  17
ATOM     16  C   UNL     1       1.670   5.930  20.692  0.00  0.00    +0.000 C 
ATOM     17  O   UNL     1       2.395   4.706  20.561  0.00  0.00    +0.000 OA
ENDBRANCH   1  17
BRANCH   6  18
ATOM     18  C   UNL     1       1.626   3.005  18.474  0.00  0.00    +0.000 C 
ATOM     19  N   UNL     1       0.674   2.343  18.504  0.00  0.00    +0.000 NA
ENDBRANCH   6  18
TORSDOF 5
ENDMDL
MODEL 9
REMARK VINA RESULT:      -6.2      5.181      6.843
REMARK  Name = 
REMARK  6 active torsions:
REMARK  status: ('A' for Active; 'I' for Inactive)
REMARK    1  A    between atoms: C_1  and  O_2
REMARK    2  A    between atoms: O_2  and  C_3
REMARK    3  A    between atoms: C_6  and  N_7
REMARK    4  A    between atoms: C_9  and  C_10
REMARK    5  A    between atoms: C_10  and  O_12
REMARK    6  A    between atoms: C_16  and  C_17
REMARK                            x       y       z     vdW  Elec       q    Type
REMARK                         _______ _______ _______ _____ _____    ______ ____
ROOT
ATOM      1  C   UNL     1       3.361   4.336  19.368  0.00  0.00    +0.000 A 
ATOM      2  C   UNL     1       3.581   5.421  18.516  0.00  0.00    +0.000 A 
ATOM      3  C   UNL     1       2.999   6.661  18.775  0.00  0.00    +0.000 A 
ATOM      4  C   UNL     1       2.171   6.830  19.889  0.00  0.00    +0.000 A 
ATOM      5  C   UNL     1       1.902   5.731  20.720  0.00  0.00    +0.000 A 
ATOM      6  C   UNL     1       2.487   4.478  20.459  0.00  0.00    +0.000 A 
ENDROOT
BRANCH   4   7
ATOM      7  N   UNL     1       1.614   8.105  20.182  0.00  0.00    +0.000 N 
ATOM      8  C   UNL     1       1.192   8.574  21.412  0.00  0.00    +0.000 A 
ATOM      9  C   UNL     1       0.704   9.852  21.225  0.00  0.00    +0.000 A 
ATOM     10  C   UNL     1       0.863  10.064  19.840  0.00  0.00    +0.000 A 
ATOM     11  N   UNL     1       1.418   9.027  19.213  0.00  0.00    +0.000 NA
BRANCH   9  12
ATOM     12  C   UNL     1       0.148  10.781  22.190  0.00  0.00    +0.000 C 
ATOM     13  O   UNL     1      -0.043  11.961  21.937  0.00  0.00    +0.000 OA
BRANCH  12  14
ATOM     14  O   UNL     1      -0.148  10.257  23.406  0.00  0.00    +0.000 OA
ATOM     15  H   UNL     1      -0.576  10.884  24.012  0.00  0.00    +0.000 HD
ENDBRANCH  12  14
ENDBRANCH   9  12
ENDBRANCH   4   7
BRANCH   1  17
ATOM     16  C   UNL     1       3.549   2.444  17.974  0.00  0.00    +0.000 C 
ATOM     17  O   UNL     1       3.954   3.115  19.168  0.00  0.00    +0.000 OA
ENDBRANCH   1  17
BRANCH   6  18
ATOM     18  C   UNL     1       2.188   3.375  21.326  0.00  0.00    +0.000 C 
ATOM     19  N   UNL     1       1.928   2.507  22.051  0.00  0.00    +0.000 NA
ENDBRANCH   6  18
TORSDOF 5
ENDMDL
