MODEL 1
REMARK VINA RESULT:      -7.6      0.000      0.000
REMARK  Name = 
REMARK  4 active torsions:
REMARK  status: ('A' for Active; 'I' for Inactive)
REMARK    1  A    between atoms: C_11  and  O_12
REMARK    2  A    between atoms: O_12  and  C_13
REMARK    3  A    between atoms: C_13  and  C_14
REMARK    4  A    between atoms: C_13  and  C_21
REMARK                            x       y       z     vdW  Elec       q    Type
REMARK                         _______ _______ _______ _____ _____    ______ ____
ROOT
ATOM      1  C   UNL     1       2.991   6.009  19.826  0.00  0.00    +0.000 C 
ENDROOT
BRANCH   1   2
ATOM      2  C   UNL     1       2.141   7.269  19.755  0.00  0.00    +0.000 A 
ATOM      3  C   UNL     1       2.164   8.092  18.614  0.00  0.00    +0.000 A 
ATOM      4  C   UNL     1       1.469   9.301  18.590  0.00  0.00    +0.000 A 
ATOM      5  C   UNL     1       0.745   9.712  19.708  0.00  0.00    +0.000 A 
ATOM      6  C   UNL     1       0.705   8.902  20.839  0.00  0.00    +0.000 A 
ATOM      7 CL   UNL     1      -0.161   9.424  22.230  0.00  0.00    +0.000 Cl
ATOM      8  C   UNL     1       1.387   7.683  20.866  0.00  0.00    +0.000 A 
ENDBRANCH   1   2
BRANCH   1   9
ATOM      9  C   UNL     1       2.257   4.759  19.390  0.00  0.00    +0.000 A 
ATOM     10  C   UNL     1       1.888   4.560  18.051  0.00  0.00    +0.000 A 
ATOM     11  C   UNL     1       1.151   3.440  17.685  0.00  0.00    +0.000 A 
ATOM     12  C   UNL     1       0.806   2.535  18.671  0.00  0.00    +0.000 A 
ATOM     13  N   UNL     1       1.163   2.666  19.964  0.00  0.00    +0.000 NA
ATOM     14  C   UNL     1       1.877   3.768  20.291  0.00  0.00    +0.000 A 
ATOM     15 CL   UNL     1       2.297   3.802  21.962  0.00  0.00    +0.000 Cl
ENDBRANCH   1   9
BRANCH   1  16
ATOM     16  O   UNL     1       4.173   6.176  19.017  0.00  0.00    +0.000 OA
BRANCH  16  27
ATOM     17  O   UNL     1       7.874   6.603  16.520  0.00  0.00    +0.000 OA
ATOM     18  C   UNL     1       7.226   5.558  16.571  0.00  0.00    +0.000 C 
ATOM     19  N   UNL     1       6.995   4.791  15.438  0.00  0.00    +0.000 N 
ATOM     20  C   UNL     1       7.474   5.277  14.142  0.00  0.00    +0.000 C 
ATOM     21  C   UNL     1       6.402   5.143  13.053  0.00  0.00    +0.000 C 
ATOM     22  C   UNL     1       5.716   3.774  13.050  0.00  0.00    +0.000 C 
ATOM     23  C   UNL     1       5.286   3.366  14.457  0.00  0.00    +0.000 C 
ATOM     24  C   UNL     1       6.496   3.421  15.381  0.00  0.00    +0.000 C 
ATOM     25  N   UNL     1       6.718   5.133  17.765  0.00  0.00    +0.000 N 
ATOM     26  C   UNL     1       5.641   4.254  18.169  0.00  0.00    +0.000 C 
ATOM     27  C   UNL     1       5.295   5.279  19.259  0.00  0.00    +0.000 C 
ATOM     28  C   UNL     1       6.700   5.868  19.028  0.00  0.00    +0.000 C 
ENDBRANCH  16  27
ENDBRANCH   1  16
TORSDOF 4
ENDMDL
MODEL 2
REMARK VINA RESULT:      -7.5      1.121      1.436
REMARK  Name = 
REMARK  4 active torsions:
REMARK  status: ('A' for Active; 'I' for Inactive)
REMARK    1  A    between atoms: C_11  and  O_12
REMARK    2  A    between atoms: O_12  and  C_13
REMARK    3  A    between atoms: C_13  and  C_14
REMARK    4  A    between atoms: C_13  and  C_21
REMARK                            x       y       z     vdW  Elec       q    Type
REMARK                         _______ _______ _______ _____ _____    ______ ____
ROOT
ATOM      1  C   UNL     1       3.090   6.249  19.886  0.00  0.00    +0.000 C 
ENDROOT
BRANCH   1   2
ATOM      2  C   UNL     1       2.207   7.443  19.555  0.00  0.00    +0.000 A 
ATOM      3  C   UNL     1       2.227   8.023  18.274  0.00  0.00    +0.000 A 
ATOM      4  C   UNL     1       1.499   9.181  18.001  0.00  0.00    +0.000 A 
ATOM      5  C   UNL     1       0.745   9.784  19.006  0.00  0.00    +0.000 A 
ATOM      6  C   UNL     1       0.708   9.214  20.276  0.00  0.00    +0.000 A 
ATOM      7 CL   UNL     1      -0.196   9.976  21.525  0.00  0.00    +0.000 Cl
ATOM      8  C   UNL     1       1.423   8.047  20.553  0.00  0.00    +0.000 A 
ENDBRANCH   1   2
BRANCH   1   9
ATOM      9  C   UNL     1       2.316   4.968  20.111  0.00  0.00    +0.000 A 
ATOM     10  C   UNL     1       2.227   4.384  21.384  0.00  0.00    +0.000 A 
ATOM     11  C   UNL     1       1.573   3.169  21.555  0.00  0.00    +0.000 A 
ATOM     12  C   UNL     1       1.012   2.568  20.445  0.00  0.00    +0.000 A 
ATOM     13  N   UNL     1       1.044   3.104  19.208  0.00  0.00    +0.000 NA
ATOM     14  C   UNL     1       1.691   4.285  19.072  0.00  0.00    +0.000 A 
ATOM     15 CL   UNL     1       1.634   4.878  17.454  0.00  0.00    +0.000 Cl
ENDBRANCH   1   9
BRANCH   1  16
ATOM     16  O   UNL     1       4.050   6.049  18.828  0.00  0.00    +0.000 OA
BRANCH  16  27
ATOM     17  O   UNL     1       7.821   6.581  16.461  0.00  0.00    +0.000 OA
ATOM     18  C   UNL     1       7.191   5.524  16.473  0.00  0.00    +0.000 C 
ATOM     19  N   UNL     1       7.010   4.773  15.321  0.00  0.00    +0.000 N 
ATOM     20  C   UNL     1       7.522   5.288  14.050  0.00  0.00    +0.000 C 
ATOM     21  C   UNL     1       6.489   5.154  12.924  0.00  0.00    +0.000 C 
ATOM     22  C   UNL     1       5.828   3.774  12.876  0.00  0.00    +0.000 C 
ATOM     23  C   UNL     1       5.360   3.335  14.262  0.00  0.00    +0.000 C 
ATOM     24  C   UNL     1       6.537   3.395  15.225  0.00  0.00    +0.000 C 
ATOM     25  N   UNL     1       6.652   5.071  17.643  0.00  0.00    +0.000 N 
ATOM     26  C   UNL     1       5.578   4.166  17.997  0.00  0.00    +0.000 C 
ATOM     27  C   UNL     1       5.178   5.167  19.091  0.00  0.00    +0.000 C 
ATOM     28  C   UNL     1       6.580   5.784  18.917  0.00  0.00    +0.000 C 
ENDBRANCH  16  27
ENDBRANCH   1  16
TORSDOF 4
ENDMDL
MODEL 3
REMARK VINA RESULT:      -7.4      5.472      9.821
REMARK  Name = 
REMARK  4 active torsions:
REMARK  status: ('A' for Active; 'I' for Inactive)
REMARK    1  A    between atoms: C_11  and  O_12
REMARK    2  A    between atoms: O_12  and  C_13
REMARK    3  A    between atoms: C_13  and  C_14
REMARK    4  A    between atoms: C_13  and  C_21
REMARK                            x       y       z     vdW  Elec       q    Type
REMARK                         _______ _______ _______ _____ _____    ______ ____
ROOT
ATOM      1  C   UNL     1       0.023  11.044  19.148  0.00  0.00    +0.000 C 
ENDROOT
BRANCH   1   2
ATOM      2  C   UNL     1      -1.342  10.828  18.512  0.00  0.00    +0.000 A 
ATOM      3  C   UNL     1      -1.493   9.985  17.397  0.00  0.00    +0.000 A 
ATOM      4  C   UNL     1      -2.722   9.869  16.748  0.00  0.00    +0.000 A 
ATOM      5  C   UNL     1      -3.820  10.600  17.199  0.00  0.00    +0.000 A 
ATOM      6  C   UNL     1      -3.687  11.429  18.309  0.00  0.00    +0.000 A 
ATOM      7 CL   UNL     1      -5.033  12.356  18.846  0.00  0.00    +0.000 Cl
ATOM      8  C   UNL     1      -2.462  11.540  18.972  0.00  0.00    +0.000 A 
ENDBRANCH   1   2
BRANCH   1   9
ATOM      9  C   UNL     1       0.943   9.849  19.030  0.00  0.00    +0.000 A 
ATOM     10  C   UNL     1       1.709   9.629  17.875  0.00  0.00    +0.000 A 
ATOM     11  C   UNL     1       2.491   8.485  17.757  0.00  0.00    +0.000 A 
ATOM     12  C   UNL     1       2.496   7.588  18.808  0.00  0.00    +0.000 A 
ATOM     13  N   UNL     1       1.803   7.769  19.950  0.00  0.00    +0.000 NA
ATOM     14  C   UNL     1       1.048   8.889  20.034  0.00  0.00    +0.000 A 
ATOM     15 CL   UNL     1       0.238   9.019  21.550  0.00  0.00    +0.000 Cl
ENDBRANCH   1   9
BRANCH   1  16
ATOM     16  O   UNL     1       0.657  12.196  18.554  0.00  0.00    +0.000 OA
BRANCH  16  27
ATOM     17  O   UNL     1      -0.365  11.997  22.916  0.00  0.00    +0.000 OA
ATOM     18  C   UNL     1      -0.651  12.966  22.212  0.00  0.00    +0.000 C 
ATOM     19  N   UNL     1      -1.870  13.617  22.334  0.00  0.00    +0.000 N 
ATOM     20  C   UNL     1      -2.864  13.094  23.272  0.00  0.00    +0.000 C 
ATOM     21  C   UNL     1      -4.262  13.029  22.643  0.00  0.00    +0.000 C 
ATOM     22  C   UNL     1      -4.645  14.310  21.897  0.00  0.00    +0.000 C 
ATOM     23  C   UNL     1      -3.521  14.770  20.971  0.00  0.00    +0.000 C 
ATOM     24  C   UNL     1      -2.240  14.916  21.781  0.00  0.00    +0.000 C 
ATOM     25  N   UNL     1       0.245  13.418  21.286  0.00  0.00    +0.000 N 
ATOM     26  C   UNL     1       0.161  14.201  20.072  0.00  0.00    +0.000 C 
ATOM     27  C   UNL     1       1.169  13.226  19.446  0.00  0.00    +0.000 C 
ATOM     28  C   UNL     1       1.498  12.780  20.884  0.00  0.00    +0.000 C 
ENDBRANCH  16  27
ENDBRANCH   1  16
TORSDOF 4
ENDMDL
MODEL 4
REMARK VINA RESULT:      -7.1      4.564      7.685
REMARK  Name = 
REMARK  4 active torsions:
REMARK  status: ('A' for Active; 'I' for Inactive)
REMARK    1  A    between atoms: C_11  and  O_12
REMARK    2  A    between atoms: O_12  and  C_13
REMARK    3  A    between atoms: C_13  and  C_14
REMARK    4  A    between atoms: C_13  and  C_21
REMARK                            x       y       z     vdW  Elec       q    Type
REMARK                         _______ _______ _______ _____ _____    ______ ____
ROOT
ATOM      1  C   UNL     1      -0.948  11.000  19.331  0.00  0.00    +0.000 C 
ENDROOT
BRANCH   1   2
ATOM      2  C   UNL     1      -2.004  10.768  18.260  0.00  0.00    +0.000 A 
ATOM      3  C   UNL     1      -1.751   9.916  17.170  0.00  0.00    +0.000 A 
ATOM      4  C   UNL     1      -2.675   9.785  16.134  0.00  0.00    +0.000 A 
ATOM      5  C   UNL     1      -3.866  10.509  16.167  0.00  0.00    +0.000 A 
ATOM      6  C   UNL     1      -4.134  11.346  17.246  0.00  0.00    +0.000 A 
ATOM      7 CL   UNL     1      -5.589  12.265  17.271  0.00  0.00    +0.000 Cl
ATOM      8  C   UNL     1      -3.219  11.472  18.294  0.00  0.00    +0.000 A 
ENDBRANCH   1   2
BRANCH   1   9
ATOM      9  C   UNL     1      -1.308  12.099  20.307  0.00  0.00    +0.000 A 
ATOM     10  C   UNL     1      -1.939  11.813  21.528  0.00  0.00    +0.000 A 
ATOM     11  C   UNL     1      -2.327  12.843  22.377  0.00  0.00    +0.000 A 
ATOM     12  C   UNL     1      -2.065  14.143  21.987  0.00  0.00    +0.000 A 
ATOM     13  N   UNL     1      -1.435  14.468  20.841  0.00  0.00    +0.000 NA
ATOM     14  C   UNL     1      -1.073  13.444  20.033  0.00  0.00    +0.000 A 
ATOM     15 CL   UNL     1      -0.251  13.987  18.619  0.00  0.00    +0.000 Cl
ENDBRANCH   1   9
BRANCH   1  16
ATOM     16  O   UNL     1      -0.715   9.775  20.055  0.00  0.00    +0.000 OA
BRANCH  16  27
ATOM     17  O   UNL     1       2.847   7.962  18.022  0.00  0.00    +0.000 OA
ATOM     18  C   UNL     1       2.367   7.497  19.055  0.00  0.00    +0.000 C 
ATOM     19  N   UNL     1       2.241   6.128  19.245  0.00  0.00    +0.000 N 
ATOM     20  C   UNL     1       2.625   5.222  18.161  0.00  0.00    +0.000 C 
ATOM     21  C   UNL     1       1.573   4.129  17.933  0.00  0.00    +0.000 C 
ATOM     22  C   UNL     1       1.102   3.467  19.231  0.00  0.00    +0.000 C 
ATOM     23  C   UNL     1       0.756   4.511  20.291  0.00  0.00    +0.000 C 
ATOM     24  C   UNL     1       1.954   5.429  20.494  0.00  0.00    +0.000 C 
ATOM     25  N   UNL     1       1.943   8.337  20.044  0.00  0.00    +0.000 N 
ATOM     26  C   UNL     1       1.017   8.237  21.152  0.00  0.00    +0.000 C 
ATOM     27  C   UNL     1       0.532   9.650  20.797  0.00  0.00    +0.000 C 
ATOM     28  C   UNL     1       1.829   9.793  19.976  0.00  0.00    +0.000 C 
ENDBRANCH  16  27
ENDBRANCH   1  16
TORSDOF 4
ENDMDL
MODEL 5
REMARK VINA RESULT:      -7.1      3.957      6.508
REMARK  Name = 
REMARK  4 active torsions:
REMARK  status: ('A' for Active; 'I' for Inactive)
REMARK    1  A    between atoms: C_11  and  O_12
REMARK    2  A    between atoms: O_12  and  C_13
REMARK    3  A    between atoms: C_13  and  C_14
REMARK    4  A    between atoms: C_13  and  C_21
REMARK                            x       y       z     vdW  Elec       q    Type
REMARK                         _______ _______ _______ _____ _____    ______ ____
ROOT
ATOM      1  C   UNL     1       0.198  10.138  19.116  0.00  0.00    +0.000 C 
ENDROOT
BRANCH   1   2
ATOM      2  C   UNL     1      -1.088  10.514  18.396  0.00  0.00    +0.000 A 
ATOM      3  C   UNL     1      -2.042  11.346  19.008  0.00  0.00    +0.000 A 
ATOM      4  C   UNL     1      -3.267  11.605  18.393  0.00  0.00    +0.000 A 
ATOM      5  C   UNL     1      -3.562  11.031  17.158  0.00  0.00    +0.000 A 
ATOM      6  C   UNL     1      -2.622  10.214  16.536  0.00  0.00    +0.000 A 
ATOM      7 CL   UNL     1      -2.999   9.479  15.027  0.00  0.00    +0.000 Cl
ATOM      8  C   UNL     1      -1.388   9.962  17.139  0.00  0.00    +0.000 A 
ENDBRANCH   1   2
BRANCH   1   9
ATOM      9  C   UNL     1       0.038  10.016  20.616  0.00  0.00    +0.000 A 
ATOM     10  C   UNL     1      -0.345   8.805  21.213  0.00  0.00    +0.000 A 
ATOM     11  C   UNL     1      -0.557   8.734  22.585  0.00  0.00    +0.000 A 
ATOM     12  C   UNL     1      -0.371   9.880  23.334  0.00  0.00    +0.000 A 
ATOM     13  N   UNL     1       0.025  11.058  22.812  0.00  0.00    +0.000 NA
ATOM     14  C   UNL     1       0.220  11.098  21.474  0.00  0.00    +0.000 A 
ATOM     15 CL   UNL     1       0.754  12.646  20.937  0.00  0.00    +0.000 Cl
ENDBRANCH   1   9
BRANCH   1  16
ATOM     16  O   UNL     1       0.703   8.895  18.587  0.00  0.00    +0.000 OA
BRANCH  16  27
ATOM     17  O   UNL     1       2.372   5.106  16.864  0.00  0.00    +0.000 OA
ATOM     18  C   UNL     1       2.512   5.413  18.047  0.00  0.00    +0.000 C 
ATOM     19  N   UNL     1       2.405   4.471  19.060  0.00  0.00    +0.000 N 
ATOM     20  C   UNL     1       2.046   3.095  18.714  0.00  0.00    +0.000 C 
ATOM     21  C   UNL     1       0.962   2.537  19.646  0.00  0.00    +0.000 C 
ATOM     22  C   UNL     1       1.243   2.811  21.126  0.00  0.00    +0.000 C 
ATOM     23  C   UNL     1       1.631   4.270  21.356  0.00  0.00    +0.000 C 
ATOM     24  C   UNL     1       2.807   4.619  20.455  0.00  0.00    +0.000 C 
ATOM     25  N   UNL     1       2.780   6.709  18.383  0.00  0.00    +0.000 N 
ATOM     26  C   UNL     1       2.624   7.515  19.575  0.00  0.00    +0.000 C 
ATOM     27  C   UNL     1       2.137   8.655  18.668  0.00  0.00    +0.000 C 
ATOM     28  C   UNL     1       2.764   7.872  17.497  0.00  0.00    +0.000 C 
ENDBRANCH  16  27
ENDBRANCH   1  16
TORSDOF 4
ENDMDL
MODEL 6
REMARK VINA RESULT:      -7.1      6.297      9.664
REMARK  Name = 
REMARK  4 active torsions:
REMARK  status: ('A' for Active; 'I' for Inactive)
REMARK    1  A    between atoms: C_11  and  O_12
REMARK    2  A    between atoms: O_12  and  C_13
REMARK    3  A    between atoms: C_13  and  C_14
REMARK    4  A    between atoms: C_13  and  C_21
REMARK                            x       y       z     vdW  Elec       q    Type
REMARK                         _______ _______ _______ _____ _____    ______ ____
ROOT
ATOM      1  C   UNL     1       0.027  10.881  19.447  0.00  0.00    +0.000 C 
ENDROOT
BRANCH   1   2
ATOM      2  C   UNL     1      -1.276  10.772  18.668  0.00  0.00    +0.000 A 
ATOM      3  C   UNL     1      -1.346  10.025  17.479  0.00  0.00    +0.000 A 
ATOM      4  C   UNL     1      -2.509  10.012  16.710  0.00  0.00    +0.000 A 
ATOM      5  C   UNL     1      -3.620  10.751  17.112  0.00  0.00    +0.000 A 
ATOM      6  C   UNL     1      -3.567  11.486  18.294  0.00  0.00    +0.000 A 
ATOM      7 CL   UNL     1      -4.927  12.425  18.773  0.00  0.00    +0.000 Cl
ATOM      8  C   UNL     1      -2.411  11.493  19.076  0.00  0.00    +0.000 A 
ENDBRANCH   1   2
BRANCH   1   9
ATOM      9  C   UNL     1       0.979   9.732  19.196  0.00  0.00    +0.000 A 
ATOM     10  C   UNL     1       1.666   9.605  17.979  0.00  0.00    +0.000 A 
ATOM     11  C   UNL     1       2.479   8.503  17.742  0.00  0.00    +0.000 A 
ATOM     12  C   UNL     1       2.596   7.552  18.738  0.00  0.00    +0.000 A 
ATOM     13  N   UNL     1       1.982   7.644  19.935  0.00  0.00    +0.000 NA
ATOM     14  C   UNL     1       1.194   8.725  20.135  0.00  0.00    +0.000 A 
ATOM     15 CL   UNL     1       0.494   8.741  21.710  0.00  0.00    +0.000 Cl
ENDBRANCH   1   9
BRANCH   1  16
ATOM     16  O   UNL     1       0.682  12.124  19.122  0.00  0.00    +0.000 OA
BRANCH  16  27
ATOM     17  O   UNL     1      -1.362  15.940  20.294  0.00  0.00    +0.000 OA
ATOM     18  C   UNL     1      -0.185  15.902  19.937  0.00  0.00    +0.000 C 
ATOM     19  N   UNL     1       0.355  16.877  19.110  0.00  0.00    +0.000 N 
ATOM     20  C   UNL     1      -0.517  17.934  18.596  0.00  0.00    +0.000 C 
ATOM     21  C   UNL     1      -0.303  18.168  17.095  0.00  0.00    +0.000 C 
ATOM     22  C   UNL     1       1.175  18.263  16.706  0.00  0.00    +0.000 C 
ATOM     23  C   UNL     1       1.984  17.124  17.322  0.00  0.00    +0.000 C 
ATOM     24  C   UNL     1       1.767  17.119  18.829  0.00  0.00    +0.000 C 
ATOM     25  N   UNL     1       0.618  14.881  20.358  0.00  0.00    +0.000 N 
ATOM     26  C   UNL     1       1.846  14.277  19.885  0.00  0.00    +0.000 C 
ATOM     27  C   UNL     1       1.230  12.910  20.219  0.00  0.00    +0.000 C 
ATOM     28  C   UNL     1       0.211  13.678  21.082  0.00  0.00    +0.000 C 
ENDBRANCH  16  27
ENDBRANCH   1  16
TORSDOF 4
ENDMDL
MODEL 7
REMARK VINA RESULT:      -7.1      7.562     10.276
REMARK  Name = 
REMARK  4 active torsions:
REMARK  status: ('A' for Active; 'I' for Inactive)
REMARK    1  A    between atoms: C_11  and  O_12
REMARK    2  A    between atoms: O_12  and  C_13
REMARK    3  A    between atoms: C_13  and  C_14
REMARK    4  A    between atoms: C_13  and  C_21
REMARK                            x       y       z     vdW  Elec       q    Type
REMARK                         _______ _______ _______ _____ _____    ______ ____
ROOT
ATOM      1  C   UNL     1      -0.414  11.742  19.731  0.00  0.00    +0.000 C 
ENDROOT
BRANCH   1   2
ATOM      2  C   UNL     1      -1.633  11.251  18.963  0.00  0.00    +0.000 A 
ATOM      3  C   UNL     1      -1.532  10.179  18.058  0.00  0.00    +0.000 A 
ATOM      4  C   UNL     1      -2.622   9.798  17.276  0.00  0.00    +0.000 A 
ATOM      5  C   UNL     1      -3.829  10.487  17.379  0.00  0.00    +0.000 A 
ATOM      6  C   UNL     1      -3.945  11.543  18.278  0.00  0.00    +0.000 A 
ATOM      7 CL   UNL     1      -5.425  12.415  18.381  0.00  0.00    +0.000 Cl
ATOM      8  C   UNL     1      -2.863  11.922  19.075  0.00  0.00    +0.000 A 
ENDBRANCH   1   2
BRANCH   1   9
ATOM      9  C   UNL     1      -0.115  10.931  20.973  0.00  0.00    +0.000 A 
ATOM     10  C   UNL     1       0.781   9.851  20.941  0.00  0.00    +0.000 A 
ATOM     11  C   UNL     1       0.986   9.074  22.075  0.00  0.00    +0.000 A 
ATOM     12  C   UNL     1       0.293   9.403  23.225  0.00  0.00    +0.000 A 
ATOM     13  N   UNL     1      -0.554  10.448  23.315  0.00  0.00    +0.000 NA
ATOM     14  C   UNL     1      -0.736  11.183  22.193  0.00  0.00    +0.000 A 
ATOM     15 CL   UNL     1      -1.814  12.504  22.447  0.00  0.00    +0.000 Cl
ENDBRANCH   1   9
BRANCH   1  16
ATOM     16  O   UNL     1       0.739  11.734  18.865  0.00  0.00    +0.000 OA
BRANCH  16  27
ATOM     17  O   UNL     1       2.127  14.473  22.133  0.00  0.00    +0.000 OA
ATOM     18  C   UNL     1       1.280  14.807  21.305  0.00  0.00    +0.000 C 
ATOM     19  N   UNL     1       0.161  15.544  21.667  0.00  0.00    +0.000 N 
ATOM     20  C   UNL     1      -0.049  15.869  23.078  0.00  0.00    +0.000 C 
ATOM     21  C   UNL     1      -1.496  15.609  23.513  0.00  0.00    +0.000 C 
ATOM     22  C   UNL     1      -2.529  16.167  22.530  0.00  0.00    +0.000 C 
ATOM     23  C   UNL     1      -2.189  15.784  21.092  0.00  0.00    +0.000 C 
ATOM     24  C   UNL     1      -0.769  16.236  20.780  0.00  0.00    +0.000 C 
ATOM     25  N   UNL     1       1.434  14.449  19.997  0.00  0.00    +0.000 N 
ATOM     26  C   UNL     1       0.549  14.291  18.863  0.00  0.00    +0.000 C 
ATOM     27  C   UNL     1       1.329  13.017  18.508  0.00  0.00    +0.000 C 
ATOM     28  C   UNL     1       2.437  13.541  19.442  0.00  0.00    +0.000 C 
ENDBRANCH  16  27
ENDBRANCH   1  16
TORSDOF 4
ENDMDL
MODEL 8
REMARK VINA RESULT:      -7.0      6.344      9.737
REMARK  Name = 
REMARK  4 active torsions:
REMARK  status: ('A' for Active; 'I' for Inactive)
REMARK    1  A    between atoms: C_11  and  O_12
REMARK    2  A    between atoms: O_12  and  C_13
REMARK    3  A    between atoms: C_13  and  C_14
REMARK    4  A    between atoms: C_13  and  C_21
REMARK                            x       y       z     vdW  Elec       q    Type
REMARK                         _______ _______ _______ _____ _____    ______ ____
ROOT
ATOM      1  C   UNL     1       0.363  11.154  19.590  0.00  0.00    +0.000 C 
ENDROOT
BRANCH   1   2
ATOM      2  C   UNL     1      -1.001  11.217  18.917  0.00  0.00    +0.000 A 
ATOM      3  C   UNL     1      -2.064  11.925  19.505  0.00  0.00    +0.000 A 
ATOM      4  C   UNL     1      -3.341  11.894  18.946  0.00  0.00    +0.000 A 
ATOM      5  C   UNL     1      -3.579  11.149  17.792  0.00  0.00    +0.000 A 
ATOM      6  C   UNL     1      -2.533  10.453  17.194  0.00  0.00    +0.000 A 
ATOM      7 CL   UNL     1      -2.833   9.506  15.789  0.00  0.00    +0.000 Cl
ATOM      8  C   UNL     1      -1.248  10.489  17.741  0.00  0.00    +0.000 A 
ENDBRANCH   1   2
BRANCH   1   9
ATOM      9  C   UNL     1       1.134   9.891  19.278  0.00  0.00    +0.000 A 
ATOM     10  C   UNL     1       1.773   9.712  18.041  0.00  0.00    +0.000 A 
ATOM     11  C   UNL     1       2.414   8.514  17.747  0.00  0.00    +0.000 A 
ATOM     12  C   UNL     1       2.410   7.520  18.707  0.00  0.00    +0.000 A 
ATOM     13  N   UNL     1       1.838   7.654  19.921  0.00  0.00    +0.000 NA
ATOM     14  C   UNL     1       1.218   8.830  20.176  0.00  0.00    +0.000 A 
ATOM     15 CL   UNL     1       0.557   8.888  21.767  0.00  0.00    +0.000 Cl
ENDBRANCH   1   9
BRANCH   1  16
ATOM     16  O   UNL     1       1.147  12.301  19.201  0.00  0.00    +0.000 OA
BRANCH  16  27
ATOM     17  O   UNL     1      -1.129  15.979  20.385  0.00  0.00    +0.000 OA
ATOM     18  C   UNL     1       0.032  16.021  19.979  0.00  0.00    +0.000 C 
ATOM     19  N   UNL     1       0.462  17.015  19.110  0.00  0.00    +0.000 N 
ATOM     20  C   UNL     1      -0.508  17.992  18.613  0.00  0.00    +0.000 C 
ATOM     21  C   UNL     1      -0.375  18.208  17.100  0.00  0.00    +0.000 C 
ATOM     22  C   UNL     1       1.075  18.403  16.646  0.00  0.00    +0.000 C 
ATOM     23  C   UNL     1       1.992  17.342  17.249  0.00  0.00    +0.000 C 
ATOM     24  C   UNL     1       1.838  17.355  18.764  0.00  0.00    +0.000 C 
ATOM     25  N   UNL     1       0.926  15.073  20.384  0.00  0.00    +0.000 N 
ATOM     26  C   UNL     1       2.175  14.552  19.871  0.00  0.00    +0.000 C 
ATOM     27  C   UNL     1       1.679  13.151  20.258  0.00  0.00    +0.000 C 
ATOM     28  C   UNL     1       0.640  13.860  21.149  0.00  0.00    +0.000 C 
ENDBRANCH  16  27
ENDBRANCH   1  16
TORSDOF 4
ENDMDL
MODEL 9
REMARK VINA RESULT:      -7.0      4.290      7.082
REMARK  Name = 
REMARK  4 active torsions:
REMARK  status: ('A' for Active; 'I' for Inactive)
REMARK    1  A    between atoms: C_11  and  O_12
REMARK    2  A    between atoms: O_12  and  C_13
REMARK    3  A    between atoms: C_13  and  C_14
REMARK    4  A    between atoms: C_13  and  C_21
REMARK                            x       y       z     vdW  Elec       q    Type
REMARK                         _______ _______ _______ _____ _____    ______ ____
ROOT
ATOM      1  C   UNL     1      -1.758  10.728  19.106  0.00  0.00    +0.000 C 
ENDROOT
BRANCH   1   2
ATOM      2  C   UNL     1      -1.073  12.052  19.412  0.00  0.00    +0.000 A 
ATOM      3  C   UNL     1      -0.360  12.744  18.416  0.00  0.00    +0.000 A 
ATOM      4  C   UNL     1       0.357  13.901  18.720  0.00  0.00    +0.000 A 
ATOM      5  C   UNL     1       0.379  14.383  20.028  0.00  0.00    +0.000 A 
ATOM      6  C   UNL     1      -0.332  13.715  21.021  0.00  0.00    +0.000 A 
ATOM      7 CL   UNL     1      -0.278  14.291  22.641  0.00  0.00    +0.000 Cl
ATOM      8  C   UNL     1      -1.063  12.563  20.721  0.00  0.00    +0.000 A 
ENDBRANCH   1   2
BRANCH   1   9
ATOM      9  C   UNL     1      -2.603  10.760  17.851  0.00  0.00    +0.000 A 
ATOM     10  C   UNL     1      -2.166  10.157  16.662  0.00  0.00    +0.000 A 
ATOM     11  C   UNL     1      -2.924  10.261  15.501  0.00  0.00    +0.000 A 
ATOM     12  C   UNL     1      -4.114  10.961  15.560  0.00  0.00    +0.000 A 
ATOM     13  N   UNL     1      -4.592  11.531  16.685  0.00  0.00    +0.000 NA
ATOM     14  C   UNL     1      -3.830  11.417  17.797  0.00  0.00    +0.000 A 
ATOM     15 CL   UNL     1      -4.563  12.157  19.170  0.00  0.00    +0.000 Cl
ENDBRANCH   1   9
BRANCH   1  16
ATOM     16  O   UNL     1      -0.767   9.687  18.989  0.00  0.00    +0.000 OA
BRANCH  16  27
ATOM     17  O   UNL     1       3.011   7.750  17.545  0.00  0.00    +0.000 OA
ATOM     18  C   UNL     1       2.497   7.472  18.628  0.00  0.00    +0.000 C 
ATOM     19  N   UNL     1       2.439   6.165  19.090  0.00  0.00    +0.000 N 
ATOM     20  C   UNL     1       2.940   5.087  18.236  0.00  0.00    +0.000 C 
ATOM     21  C   UNL     1       1.969   3.900  18.189  0.00  0.00    +0.000 C 
ATOM     22  C   UNL     1       1.460   3.485  19.573  0.00  0.00    +0.000 C 
ATOM     23  C   UNL     1       0.991   4.695  20.377  0.00  0.00    +0.000 C 
ATOM     24  C   UNL     1       2.119   5.716  20.442  0.00  0.00    +0.000 C 
ATOM     25  N   UNL     1       1.966   8.464  19.401  0.00  0.00    +0.000 N 
ATOM     26  C   UNL     1       0.982   8.527  20.461  0.00  0.00    +0.000 C 
ATOM     27  C   UNL     1       0.438   9.801  19.798  0.00  0.00    +0.000 C 
ATOM     28  C   UNL     1       1.772   9.865  19.028  0.00  0.00    +0.000 C 
ENDBRANCH  16  27
ENDBRANCH   1  16
TORSDOF 4
ENDMDL
