MODEL 1
REMARK VINA RESULT:      -6.6      0.000      0.000
REMARK  Name = 
REMARK  11 active torsions:
REMARK  status: ('A' for Active; 'I' for Inactive)
REMARK    1  A    between atoms: C_1  and  C_2
REMARK    2  A    between atoms: C_2  and  C_3
REMARK    3  A    between atoms: C_2  and  C_4
REMARK    4  A    between atoms: C_2  and  C_5
REMARK    5  A    between atoms: N_9  and  C_10
REMARK    6  A    between atoms: C_10  and  C_11
REMARK    7  A    between atoms: C_11  and  O_12
REMARK    8  A    between atoms: C_11  and  C_13
REMARK    9  A    between atoms: C_13  and  O_14
REMARK   10  A    between atoms: O_14  and  C_15
REMARK   11  A    between atoms: C_15  and  C_16
REMARK                            x       y       z     vdW  Elec       q    Type
REMARK                         _______ _______ _______ _____ _____    ______ ____
ROOT
ATOM      1  C   UNL     1       3.100   3.980  19.745  0.00  0.00    +0.000 A 
ATOM      2  N   UNL     1       3.393   5.263  19.729  0.00  0.00    +0.000 NA
ATOM      3  N   UNL     1       4.674   5.504  19.301  0.00  0.00    +0.000 NA
ATOM      4  C   UNL     1       5.333   4.409  18.995  0.00  0.00    +0.000 A 
ATOM      5  N   UNL     1       6.621   4.352  18.581  0.00  0.00    +0.000 N 
ATOM      6  S   UNL     1       4.396   2.981  19.196  0.00  0.00    +0.000 S 
ATOM      7  H   UNL     1       6.870   3.563  17.991  0.00  0.00    +0.000 HD
ENDROOT
BRANCH   1   9
ATOM      8  C   UNL     1       0.768   4.586  20.413  0.00  0.00    +0.000 C 
ATOM      9  C   UNL     1       1.759   3.422  20.184  0.00  0.00    +0.000 C 
ATOM     10  C   UNL     1       1.893   2.646  21.507  0.00  0.00    +0.000 C 
ATOM     11  C   UNL     1       1.175   2.506  19.094  0.00  0.00    +0.000 C 
ENDBRANCH   1   9
BRANCH   5  12
ATOM     12  C   UNL     1       7.320   5.599  18.294  0.00  0.00    +0.000 C 
BRANCH  12  13
ATOM     13  C   UNL     1       7.248   6.029  16.812  0.00  0.00    +0.000 C 
BRANCH  13  14
ATOM     14  O   UNL     1       6.104   6.887  16.657  0.00  0.00    +0.000 OA
ATOM     15  H   UNL     1       6.415   7.755  16.352  0.00  0.00    +0.000 HD
ENDBRANCH  13  14
BRANCH  13  16
ATOM     16  C   UNL     1       7.166   4.806  15.877  0.00  0.00    +0.000 C 
BRANCH  16  17
ATOM     17  O   UNL     1       5.811   4.593  15.469  0.00  0.00    +0.000 OA
BRANCH  17  18
ATOM     18  C   UNL     1       5.699   3.503  14.555  0.00  0.00    +0.000 C 
BRANCH  18  19
ATOM     19  C   UNL     1       5.735   4.054  13.165  0.00  0.00    +0.000 C 
ATOM     20  C   UNL     1       6.559   3.369  12.104  0.00  0.00    +0.000 C 
ATOM     21  C   UNL     1       5.058   3.338  12.022  0.00  0.00    +0.000 C 
ENDBRANCH  18  19
ENDBRANCH  17  18
ENDBRANCH  16  17
ENDBRANCH  13  16
ENDBRANCH  12  13
ENDBRANCH   5  12
TORSDOF 8
ENDMDL
MODEL 2
REMARK VINA RESULT:      -6.5      0.458      1.104
REMARK  Name = 
REMARK  11 active torsions:
REMARK  status: ('A' for Active; 'I' for Inactive)
REMARK    1  A    between atoms: C_1  and  C_2
REMARK    2  A    between atoms: C_2  and  C_3
REMARK    3  A    between atoms: C_2  and  C_4
REMARK    4  A    between atoms: C_2  and  C_5
REMARK    5  A    between atoms: N_9  and  C_10
REMARK    6  A    between atoms: C_10  and  C_11
REMARK    7  A    between atoms: C_11  and  O_12
REMARK    8  A    between atoms: C_11  and  C_13
REMARK    9  A    between atoms: C_13  and  O_14
REMARK   10  A    between atoms: O_14  and  C_15
REMARK   11  A    between atoms: C_15  and  C_16
REMARK                            x       y       z     vdW  Elec       q    Type
REMARK                         _______ _______ _______ _____ _____    ______ ____
ROOT
ATOM      1  C   UNL     1       3.102   3.962  19.756  0.00  0.00    +0.000 A 
ATOM      2  N   UNL     1       3.430   5.237  19.719  0.00  0.00    +0.000 NA
ATOM      3  N   UNL     1       4.701   5.439  19.247  0.00  0.00    +0.000 NA
ATOM      4  C   UNL     1       5.319   4.324  18.927  0.00  0.00    +0.000 A 
ATOM      5  N   UNL     1       6.591   4.229  18.471  0.00  0.00    +0.000 N 
ATOM      6  S   UNL     1       4.351   2.924  19.172  0.00  0.00    +0.000 S 
ATOM      7  H   UNL     1       6.798   3.429  17.879  0.00  0.00    +0.000 HD
ENDROOT
BRANCH   1   9
ATOM      8  C   UNL     1       1.170   2.478  19.193  0.00  0.00    +0.000 C 
ATOM      9  C   UNL     1       1.762   3.444  20.244  0.00  0.00    +0.000 C 
ATOM     10  C   UNL     1       0.765   4.600  20.441  0.00  0.00    +0.000 C 
ATOM     11  C   UNL     1       1.933   2.668  21.561  0.00  0.00    +0.000 C 
ENDBRANCH   1   9
BRANCH   5  12
ATOM     12  C   UNL     1       7.314   5.454  18.151  0.00  0.00    +0.000 C 
BRANCH  12  13
ATOM     13  C   UNL     1       7.210   5.871  16.666  0.00  0.00    +0.000 C 
BRANCH  13  14
ATOM     14  O   UNL     1       6.052   6.713  16.525  0.00  0.00    +0.000 OA
ATOM     15  H   UNL     1       6.238   7.560  16.964  0.00  0.00    +0.000 HD
ENDBRANCH  13  14
BRANCH  13  16
ATOM     16  C   UNL     1       7.127   4.640  15.743  0.00  0.00    +0.000 C 
BRANCH  16  17
ATOM     17  O   UNL     1       6.490   4.995  14.511  0.00  0.00    +0.000 OA
BRANCH  17  18
ATOM     18  C   UNL     1       5.513   4.032  14.123  0.00  0.00    +0.000 C 
BRANCH  18  19
ATOM     19  C   UNL     1       5.558   3.895  12.635  0.00  0.00    +0.000 C 
ATOM     20  C   UNL     1       6.880   3.705  11.934  0.00  0.00    +0.000 C 
ATOM     21  C   UNL     1       5.888   2.576  11.980  0.00  0.00    +0.000 C 
ENDBRANCH  18  19
ENDBRANCH  17  18
ENDBRANCH  16  17
ENDBRANCH  13  16
ENDBRANCH  12  13
ENDBRANCH   5  12
TORSDOF 8
ENDMDL
MODEL 3
REMARK VINA RESULT:      -6.4      1.107      1.712
REMARK  Name = 
REMARK  11 active torsions:
REMARK  status: ('A' for Active; 'I' for Inactive)
REMARK    1  A    between atoms: C_1  and  C_2
REMARK    2  A    between atoms: C_2  and  C_3
REMARK    3  A    between atoms: C_2  and  C_4
REMARK    4  A    between atoms: C_2  and  C_5
REMARK    5  A    between atoms: N_9  and  C_10
REMARK    6  A    between atoms: C_10  and  C_11
REMARK    7  A    between atoms: C_11  and  O_12
REMARK    8  A    between atoms: C_11  and  C_13
REMARK    9  A    between atoms: C_13  and  O_14
REMARK   10  A    between atoms: O_14  and  C_15
REMARK   11  A    between atoms: C_15  and  C_16
REMARK                            x       y       z     vdW  Elec       q    Type
REMARK                         _______ _______ _______ _____ _____    ______ ____
ROOT
ATOM      1  C   UNL     1       2.981   3.775  19.384  0.00  0.00    +0.000 A 
ATOM      2  N   UNL     1       3.811   4.740  19.721  0.00  0.00    +0.000 NA
ATOM      3  N   UNL     1       4.921   4.783  18.918  0.00  0.00    +0.000 NA
ATOM      4  C   UNL     1       4.921   3.859  17.983  0.00  0.00    +0.000 A 
ATOM      5  N   UNL     1       5.907   3.651  17.078  0.00  0.00    +0.000 N 
ATOM      6  S   UNL     1       3.515   2.869  18.016  0.00  0.00    +0.000 S 
ATOM      7  H   UNL     1       5.626   3.238  16.193  0.00  0.00    +0.000 HD
ENDROOT
BRANCH   1   9
ATOM      8  C   UNL     1       1.967   2.672  21.386  0.00  0.00    +0.000 C 
ATOM      9  C   UNL     1       1.677   3.487  20.105  0.00  0.00    +0.000 C 
ATOM     10  C   UNL     1       0.731   2.658  19.218  0.00  0.00    +0.000 C 
ATOM     11  C   UNL     1       0.991   4.800  20.521  0.00  0.00    +0.000 C 
ENDBRANCH   1   9
BRANCH   5  12
ATOM     12  C   UNL     1       7.006   4.606  17.008  0.00  0.00    +0.000 C 
BRANCH  12  13
ATOM     13  C   UNL     1       6.978   5.498  15.747  0.00  0.00    +0.000 C 
BRANCH  13  14
ATOM     14  O   UNL     1       6.161   6.647  16.038  0.00  0.00    +0.000 OA
ATOM     15  H   UNL     1       6.511   7.402  15.537  0.00  0.00    +0.000 HD
ENDBRANCH  13  14
BRANCH  13  16
ATOM     16  C   UNL     1       6.447   4.725  14.524  0.00  0.00    +0.000 C 
BRANCH  16  17
ATOM     17  O   UNL     1       7.126   5.158  13.340  0.00  0.00    +0.000 OA
BRANCH  17  18
ATOM     18  C   UNL     1       7.110   4.156  12.325  0.00  0.00    +0.000 C 
BRANCH  18  19
ATOM     19  C   UNL     1       5.924   3.275  12.559  0.00  0.00    +0.000 C 
ATOM     20  C   UNL     1       4.704   3.402  11.681  0.00  0.00    +0.000 C 
ATOM     21  C   UNL     1       5.566   2.173  11.591  0.00  0.00    +0.000 C 
ENDBRANCH  18  19
ENDBRANCH  17  18
ENDBRANCH  16  17
ENDBRANCH  13  16
ENDBRANCH  12  13
ENDBRANCH   5  12
TORSDOF 8
ENDMDL
MODEL 4
REMARK VINA RESULT:      -6.3      3.034      4.981
REMARK  Name = 
REMARK  11 active torsions:
REMARK  status: ('A' for Active; 'I' for Inactive)
REMARK    1  A    between atoms: C_1  and  C_2
REMARK    2  A    between atoms: C_2  and  C_3
REMARK    3  A    between atoms: C_2  and  C_4
REMARK    4  A    between atoms: C_2  and  C_5
REMARK    5  A    between atoms: N_9  and  C_10
REMARK    6  A    between atoms: C_10  and  C_11
REMARK    7  A    between atoms: C_11  and  O_12
REMARK    8  A    between atoms: C_11  and  C_13
REMARK    9  A    between atoms: C_13  and  O_14
REMARK   10  A    between atoms: O_14  and  C_15
REMARK   11  A    between atoms: C_15  and  C_16
REMARK                            x       y       z     vdW  Elec       q    Type
REMARK                         _______ _______ _______ _____ _____    ______ ____
ROOT
ATOM      1  C   UNL     1       3.078   3.724  19.388  0.00  0.00    +0.000 A 
ATOM      2  N   UNL     1       4.149   3.254  19.994  0.00  0.00    +0.000 NA
ATOM      3  N   UNL     1       5.309   3.594  19.349  0.00  0.00    +0.000 NA
ATOM      4  C   UNL     1       5.110   4.317  18.270  0.00  0.00    +0.000 A 
ATOM      5  N   UNL     1       6.074   4.759  17.426  0.00  0.00    +0.000 N 
ATOM      6  S   UNL     1       3.448   4.653  17.981  0.00  0.00    +0.000 S 
ATOM      7  H   UNL     1       5.869   5.614  16.917  0.00  0.00    +0.000 HD
ENDROOT
BRANCH   1   9
ATOM      8  C   UNL     1       1.672   2.478  21.038  0.00  0.00    +0.000 C 
ATOM      9  C   UNL     1       1.659   3.494  19.873  0.00  0.00    +0.000 C 
ATOM     10  C   UNL     1       0.781   2.915  18.749  0.00  0.00    +0.000 C 
ATOM     11  C   UNL     1       1.049   4.807  20.393  0.00  0.00    +0.000 C 
ENDBRANCH   1   9
BRANCH   5  12
ATOM     12  C   UNL     1       7.471   4.564  17.795  0.00  0.00    +0.000 C 
BRANCH  12  13
ATOM     13  C   UNL     1       8.053   5.706  18.658  0.00  0.00    +0.000 C 
BRANCH  13  14
ATOM     14  O   UNL     1       7.587   5.521  20.007  0.00  0.00    +0.000 OA
ATOM     15  H   UNL     1       6.746   5.998  20.104  0.00  0.00    +0.000 HD
ENDBRANCH  13  14
BRANCH  13  16
ATOM     16  C   UNL     1       7.650   7.088  18.107  0.00  0.00    +0.000 C 
BRANCH  16  17
ATOM     17  O   UNL     1       8.466   8.105  18.696  0.00  0.00    +0.000 OA
BRANCH  17  18
ATOM     18  C   UNL     1       8.364   9.340  17.989  0.00  0.00    +0.000 C 
BRANCH  18  19
ATOM     19  C   UNL     1       9.222  10.348  18.685  0.00  0.00    +0.000 C 
ATOM     20  C   UNL     1      10.223  11.158  17.899  0.00  0.00    +0.000 C 
ATOM     21  C   UNL     1       9.010  11.829  18.483  0.00  0.00    +0.000 C 
ENDBRANCH  18  19
ENDBRANCH  17  18
ENDBRANCH  16  17
ENDBRANCH  13  16
ENDBRANCH  12  13
ENDBRANCH   5  12
TORSDOF 8
ENDMDL
MODEL 5
REMARK VINA RESULT:      -6.3      0.870      1.414
REMARK  Name = 
REMARK  11 active torsions:
REMARK  status: ('A' for Active; 'I' for Inactive)
REMARK    1  A    between atoms: C_1  and  C_2
REMARK    2  A    between atoms: C_2  and  C_3
REMARK    3  A    between atoms: C_2  and  C_4
REMARK    4  A    between atoms: C_2  and  C_5
REMARK    5  A    between atoms: N_9  and  C_10
REMARK    6  A    between atoms: C_10  and  C_11
REMARK    7  A    between atoms: C_11  and  O_12
REMARK    8  A    between atoms: C_11  and  C_13
REMARK    9  A    between atoms: C_13  and  O_14
REMARK   10  A    between atoms: O_14  and  C_15
REMARK   11  A    between atoms: C_15  and  C_16
REMARK                            x       y       z     vdW  Elec       q    Type
REMARK                         _______ _______ _______ _____ _____    ______ ____
ROOT
ATOM      1  C   UNL     1       3.008   3.831  19.597  0.00  0.00    +0.000 A 
ATOM      2  N   UNL     1       3.640   4.918  19.988  0.00  0.00    +0.000 NA
ATOM      3  N   UNL     1       4.859   5.064  19.379  0.00  0.00    +0.000 NA
ATOM      4  C   UNL     1       5.136   4.096  18.534  0.00  0.00    +0.000 A 
ATOM      5  N   UNL     1       6.283   3.972  17.823  0.00  0.00    +0.000 N 
ATOM      6  S   UNL     1       3.880   2.927  18.413  0.00  0.00    +0.000 S 
ATOM      7  H   UNL     1       6.213   3.475  16.941  0.00  0.00    +0.000 HD
ENDROOT
BRANCH   1   9
ATOM      8  C   UNL     1       1.809   2.686  21.470  0.00  0.00    +0.000 C 
ATOM      9  C   UNL     1       1.644   3.410  20.114  0.00  0.00    +0.000 C 
ATOM     10  C   UNL     1       0.963   2.436  19.136  0.00  0.00    +0.000 C 
ATOM     11  C   UNL     1       0.750   4.642  20.338  0.00  0.00    +0.000 C 
ENDBRANCH   1   9
BRANCH   5  12
ATOM     12  C   UNL     1       7.250   5.063  17.859  0.00  0.00    +0.000 C 
BRANCH  12  13
ATOM     13  C   UNL     1       7.120   6.051  16.677  0.00  0.00    +0.000 C 
BRANCH  13  14
ATOM     14  O   UNL     1       7.389   7.373  17.177  0.00  0.00    +0.000 OA
ATOM     15  H   UNL     1       7.261   7.364  18.140  0.00  0.00    +0.000 HD
ENDBRANCH  13  14
BRANCH  13  16
ATOM     16  C   UNL     1       5.726   5.967  16.026  0.00  0.00    +0.000 C 
BRANCH  16  17
ATOM     17  O   UNL     1       5.858   5.775  14.613  0.00  0.00    +0.000 OA
BRANCH  17  18
ATOM     18  C   UNL     1       6.880   4.830  14.301  0.00  0.00    +0.000 C 
BRANCH  18  19
ATOM     19  C   UNL     1       6.235   3.642  13.661  0.00  0.00    +0.000 C 
ATOM     20  C   UNL     1       5.070   3.830  12.722  0.00  0.00    +0.000 C 
ATOM     21  C   UNL     1       6.395   3.365  12.186  0.00  0.00    +0.000 C 
ENDBRANCH  18  19
ENDBRANCH  17  18
ENDBRANCH  16  17
ENDBRANCH  13  16
ENDBRANCH  12  13
ENDBRANCH   5  12
TORSDOF 8
ENDMDL
MODEL 6
REMARK VINA RESULT:      -6.2      0.786      1.330
REMARK  Name = 
REMARK  11 active torsions:
REMARK  status: ('A' for Active; 'I' for Inactive)
REMARK    1  A    between atoms: C_1  and  C_2
REMARK    2  A    between atoms: C_2  and  C_3
REMARK    3  A    between atoms: C_2  and  C_4
REMARK    4  A    between atoms: C_2  and  C_5
REMARK    5  A    between atoms: N_9  and  C_10
REMARK    6  A    between atoms: C_10  and  C_11
REMARK    7  A    between atoms: C_11  and  O_12
REMARK    8  A    between atoms: C_11  and  C_13
REMARK    9  A    between atoms: C_13  and  O_14
REMARK   10  A    between atoms: O_14  and  C_15
REMARK   11  A    between atoms: C_15  and  C_16
REMARK                            x       y       z     vdW  Elec       q    Type
REMARK                         _______ _______ _______ _____ _____    ______ ____
ROOT
ATOM      1  C   UNL     1       2.922   3.933  19.664  0.00  0.00    +0.000 A 
ATOM      2  N   UNL     1       3.193   5.143  19.223  0.00  0.00    +0.000 NA
ATOM      3  N   UNL     1       4.492   5.271  18.804  0.00  0.00    +0.000 NA
ATOM      4  C   UNL     1       5.188   4.162  18.926  0.00  0.00    +0.000 A 
ATOM      5  N   UNL     1       6.500   4.015  18.622  0.00  0.00    +0.000 N 
ATOM      6  S   UNL     1       4.265   2.855  19.557  0.00  0.00    +0.000 S 
ATOM      7  H   UNL     1       6.797   3.082  18.353  0.00  0.00    +0.000 HD
ENDROOT
BRANCH   1   9
ATOM      8  C   UNL     1       1.753   2.767  21.542  0.00  0.00    +0.000 C 
ATOM      9  C   UNL     1       1.566   3.509  20.199  0.00  0.00    +0.000 C 
ATOM     10  C   UNL     1       0.865   2.550  19.221  0.00  0.00    +0.000 C 
ATOM     11  C   UNL     1       0.680   4.740  20.454  0.00  0.00    +0.000 C 
ENDBRANCH   1   9
BRANCH   5  12
ATOM     12  C   UNL     1       7.193   5.114  17.961  0.00  0.00    +0.000 C 
BRANCH  12  13
ATOM     13  C   UNL     1       7.433   4.883  16.452  0.00  0.00    +0.000 C 
BRANCH  13  14
ATOM     14  O   UNL     1       7.558   6.171  15.823  0.00  0.00    +0.000 OA
ATOM     15  H   UNL     1       8.384   6.579  16.131  0.00  0.00    +0.000 HD
ENDBRANCH  13  14
BRANCH  13  16
ATOM     16  C   UNL     1       6.294   4.057  15.823  0.00  0.00    +0.000 C 
BRANCH  16  17
ATOM     17  O   UNL     1       6.194   4.349  14.425  0.00  0.00    +0.000 OA
BRANCH  17  18
ATOM     18  C   UNL     1       5.245   3.505  13.775  0.00  0.00    +0.000 C 
BRANCH  18  19
ATOM     19  C   UNL     1       5.559   3.491  12.313  0.00  0.00    +0.000 C 
ATOM     20  C   UNL     1       5.420   2.212  11.525  0.00  0.00    +0.000 C 
ATOM     21  C   UNL     1       4.467   3.350  11.281  0.00  0.00    +0.000 C 
ENDBRANCH  18  19
ENDBRANCH  17  18
ENDBRANCH  16  17
ENDBRANCH  13  16
ENDBRANCH  12  13
ENDBRANCH   5  12
TORSDOF 8
ENDMDL
MODEL 7
REMARK VINA RESULT:      -6.2      1.415      1.731
REMARK  Name = 
REMARK  11 active torsions:
REMARK  status: ('A' for Active; 'I' for Inactive)
REMARK    1  A    between atoms: C_1  and  C_2
REMARK    2  A    between atoms: C_2  and  C_3
REMARK    3  A    between atoms: C_2  and  C_4
REMARK    4  A    between atoms: C_2  and  C_5
REMARK    5  A    between atoms: N_9  and  C_10
REMARK    6  A    between atoms: C_10  and  C_11
REMARK    7  A    between atoms: C_11  and  O_12
REMARK    8  A    between atoms: C_11  and  C_13
REMARK    9  A    between atoms: C_13  and  O_14
REMARK   10  A    between atoms: O_14  and  C_15
REMARK   11  A    between atoms: C_15  and  C_16
REMARK                            x       y       z     vdW  Elec       q    Type
REMARK                         _______ _______ _______ _____ _____    ______ ____
ROOT
ATOM      1  C   UNL     1       2.995   3.757  19.290  0.00  0.00    +0.000 A 
ATOM      2  N   UNL     1       3.388   3.039  18.258  0.00  0.00    +0.000 NA
ATOM      3  N   UNL     1       4.531   3.529  17.682  0.00  0.00    +0.000 NA
ATOM      4  C   UNL     1       4.993   4.604  18.280  0.00  0.00    +0.000 A 
ATOM      5  N   UNL     1       6.084   5.312  17.899  0.00  0.00    +0.000 N 
ATOM      6  S   UNL     1       4.046   5.082  19.633  0.00  0.00    +0.000 S 
ATOM      7  H   UNL     1       6.570   5.818  18.634  0.00  0.00    +0.000 HD
ENDROOT
BRANCH   1   9
ATOM      8  C   UNL     1       1.056   4.778  20.494  0.00  0.00    +0.000 C 
ATOM      9  C   UNL     1       1.756   3.454  20.112  0.00  0.00    +0.000 C 
ATOM     10  C   UNL     1       2.126   2.720  21.413  0.00  0.00    +0.000 C 
ATOM     11  C   UNL     1       0.762   2.609  19.296  0.00  0.00    +0.000 C 
ENDBRANCH   1   9
BRANCH   5  12
ATOM     12  C   UNL     1       6.927   4.782  16.834  0.00  0.00    +0.000 C 
BRANCH  12  13
ATOM     13  C   UNL     1       6.608   5.364  15.438  0.00  0.00    +0.000 C 
BRANCH  13  14
ATOM     14  O   UNL     1       5.296   5.953  15.496  0.00  0.00    +0.000 OA
ATOM     15  H   UNL     1       4.943   5.995  14.592  0.00  0.00    +0.000 HD
ENDBRANCH  13  14
BRANCH  13  16
ATOM     16  C   UNL     1       6.692   4.281  14.345  0.00  0.00    +0.000 C 
BRANCH  16  17
ATOM     17  O   UNL     1       7.381   4.795  13.201  0.00  0.00    +0.000 OA
BRANCH  17  18
ATOM     18  C   UNL     1       6.948   4.165  11.996  0.00  0.00    +0.000 C 
BRANCH  18  19
ATOM     19  C   UNL     1       5.821   3.242  12.332  0.00  0.00    +0.000 C 
ATOM     20  C   UNL     1       4.578   3.227  11.478  0.00  0.00    +0.000 C 
ATOM     21  C   UNL     1       5.506   2.045  11.468  0.00  0.00    +0.000 C 
ENDBRANCH  18  19
ENDBRANCH  17  18
ENDBRANCH  16  17
ENDBRANCH  13  16
ENDBRANCH  12  13
ENDBRANCH   5  12
TORSDOF 8
ENDMDL
MODEL 8
REMARK VINA RESULT:      -6.2      1.176      1.660
REMARK  Name = 
REMARK  11 active torsions:
REMARK  status: ('A' for Active; 'I' for Inactive)
REMARK    1  A    between atoms: C_1  and  C_2
REMARK    2  A    between atoms: C_2  and  C_3
REMARK    3  A    between atoms: C_2  and  C_4
REMARK    4  A    between atoms: C_2  and  C_5
REMARK    5  A    between atoms: N_9  and  C_10
REMARK    6  A    between atoms: C_10  and  C_11
REMARK    7  A    between atoms: C_11  and  O_12
REMARK    8  A    between atoms: C_11  and  C_13
REMARK    9  A    between atoms: C_13  and  O_14
REMARK   10  A    between atoms: O_14  and  C_15
REMARK   11  A    between atoms: C_15  and  C_16
REMARK                            x       y       z     vdW  Elec       q    Type
REMARK                         _______ _______ _______ _____ _____    ______ ____
ROOT
ATOM      1  C   UNL     1       2.955   3.656  19.430  0.00  0.00    +0.000 A 
ATOM      2  N   UNL     1       3.984   4.355  19.861  0.00  0.00    +0.000 NA
ATOM      3  N   UNL     1       5.023   4.365  18.966  0.00  0.00    +0.000 NA
ATOM      4  C   UNL     1       4.772   3.683  17.872  0.00  0.00    +0.000 A 
ATOM      5  N   UNL     1       5.633   3.498  16.841  0.00  0.00    +0.000 N 
ATOM      6  S   UNL     1       3.200   2.986  17.858  0.00  0.00    +0.000 S 
ATOM      7  H   UNL     1       5.214   3.346  15.928  0.00  0.00    +0.000 HD
ENDROOT
BRANCH   1   9
ATOM      8  C   UNL     1       0.680   2.618  19.384  0.00  0.00    +0.000 C 
ATOM      9  C   UNL     1       1.671   3.464  20.216  0.00  0.00    +0.000 C 
ATOM     10  C   UNL     1       1.003   4.818  20.516  0.00  0.00    +0.000 C 
ATOM     11  C   UNL     1       1.952   2.713  21.529  0.00  0.00    +0.000 C 
ENDBRANCH   1   9
BRANCH   5  12
ATOM     12  C   UNL     1       6.896   4.226  16.844  0.00  0.00    +0.000 C 
BRANCH  12  13
ATOM     13  C   UNL     1       7.043   5.225  15.674  0.00  0.00    +0.000 C 
BRANCH  13  14
ATOM     14  O   UNL     1       7.573   6.452  16.207  0.00  0.00    +0.000 OA
ATOM     15  H   UNL     1       7.144   7.192  15.747  0.00  0.00    +0.000 HD
ENDBRANCH  13  14
BRANCH  13  16
ATOM     16  C   UNL     1       5.696   5.456  14.961  0.00  0.00    +0.000 C 
BRANCH  16  17
ATOM     17  O   UNL     1       5.408   4.355  14.093  0.00  0.00    +0.000 OA
BRANCH  17  18
ATOM     18  C   UNL     1       6.548   3.975  13.324  0.00  0.00    +0.000 C 
BRANCH  18  19
ATOM     19  C   UNL     1       6.079   3.576  11.961  0.00  0.00    +0.000 C 
ATOM     20  C   UNL     1       5.560   2.181  11.721  0.00  0.00    +0.000 C 
ATOM     21  C   UNL     1       4.615   3.349  11.673  0.00  0.00    +0.000 C 
ENDBRANCH  18  19
ENDBRANCH  17  18
ENDBRANCH  16  17
ENDBRANCH  13  16
ENDBRANCH  12  13
ENDBRANCH   5  12
TORSDOF 8
ENDMDL
MODEL 9
REMARK VINA RESULT:      -6.1      2.189      3.678
REMARK  Name = 
REMARK  11 active torsions:
REMARK  status: ('A' for Active; 'I' for Inactive)
REMARK    1  A    between atoms: C_1  and  C_2
REMARK    2  A    between atoms: C_2  and  C_3
REMARK    3  A    between atoms: C_2  and  C_4
REMARK    4  A    between atoms: C_2  and  C_5
REMARK    5  A    between atoms: N_9  and  C_10
REMARK    6  A    between atoms: C_10  and  C_11
REMARK    7  A    between atoms: C_11  and  O_12
REMARK    8  A    between atoms: C_11  and  C_13
REMARK    9  A    between atoms: C_13  and  O_14
REMARK   10  A    between atoms: O_14  and  C_15
REMARK   11  A    between atoms: C_15  and  C_16
REMARK                            x       y       z     vdW  Elec       q    Type
REMARK                         _______ _______ _______ _____ _____    ______ ____
ROOT
ATOM      1  C   UNL     1       2.906   3.539  19.116  0.00  0.00    +0.000 A 
ATOM      2  N   UNL     1       2.510   3.503  17.861  0.00  0.00    +0.000 NA
ATOM      3  N   UNL     1       3.556   3.588  16.978  0.00  0.00    +0.000 NA
ATOM      4  C   UNL     1       4.726   3.682  17.568  0.00  0.00    +0.000 A 
ATOM      5  N   UNL     1       5.920   3.814  16.940  0.00  0.00    +0.000 N 
ATOM      6  S   UNL     1       4.620   3.650  19.284  0.00  0.00    +0.000 S 
ATOM      7  H   UNL     1       6.731   3.455  17.435  0.00  0.00    +0.000 HD
ENDROOT
BRANCH   1   9
ATOM      8  C   UNL     1       0.651   2.778  19.883  0.00  0.00    +0.000 C 
ATOM      9  C   UNL     1       1.965   3.474  20.305  0.00  0.00    +0.000 C 
ATOM     10  C   UNL     1       1.613   4.887  20.805  0.00  0.00    +0.000 C 
ATOM     11  C   UNL     1       2.593   2.654  21.445  0.00  0.00    +0.000 C 
ENDBRANCH   1   9
BRANCH   5  12
ATOM     12  C   UNL     1       5.963   3.694  15.487  0.00  0.00    +0.000 C 
BRANCH  12  13
ATOM     13  C   UNL     1       6.152   5.042  14.755  0.00  0.00    +0.000 C 
BRANCH  13  14
ATOM     14  O   UNL     1       7.564   5.302  14.670  0.00  0.00    +0.000 OA
ATOM     15  H   UNL     1       8.037   4.487  14.904  0.00  0.00    +0.000 HD
ENDBRANCH  13  14
BRANCH  13  16
ATOM     16  C   UNL     1       5.411   6.182  15.480  0.00  0.00    +0.000 C 
BRANCH  16  17
ATOM     17  O   UNL     1       6.252   6.746  16.491  0.00  0.00    +0.000 OA
BRANCH  17  18
ATOM     18  C   UNL     1       5.492   7.357  17.532  0.00  0.00    +0.000 C 
BRANCH  18  19
ATOM     19  C   UNL     1       4.041   7.197  17.205  0.00  0.00    +0.000 C 
ATOM     20  C   UNL     1       3.038   6.984  18.311  0.00  0.00    +0.000 C 
ATOM     21  C   UNL     1       3.040   8.275  17.540  0.00  0.00    +0.000 C 
ENDBRANCH  18  19
ENDBRANCH  17  18
ENDBRANCH  16  17
ENDBRANCH  13  16
ENDBRANCH  12  13
ENDBRANCH   5  12
TORSDOF 8
ENDMDL
