MODEL 1
REMARK VINA RESULT:      -8.7      0.000      0.000
REMARK  Name = 
REMARK  4 active torsions:
REMARK  status: ('A' for Active; 'I' for Inactive)
REMARK    1  A    between atoms: C_1  and  N_2
REMARK    2  A    between atoms: C_4  and  C_5
REMARK    3  A    between atoms: C_11  and  C_12
REMARK    4  A    between atoms: C_15  and  C_16
REMARK                            x       y       z     vdW  Elec       q    Type
REMARK                         _______ _______ _______ _____ _____    ______ ____
ROOT
ATOM      1  C   UNL     1      -1.472  10.777  19.128  0.00  0.00    +0.000 A 
ATOM      2  C   UNL     1      -1.566  11.802  20.074  0.00  0.00    +0.000 A 
ATOM      3  C   UNL     1      -0.838  11.765  21.274  0.00  0.00    +0.000 A 
ATOM      4  C   UNL     1      -0.012  10.656  21.496  0.00  0.00    +0.000 A 
ATOM      5  N   UNL     1       0.783  10.299  22.552  0.00  0.00    +0.000 N 
ATOM      6  N   UNL     1       1.406   9.111  22.405  0.00  0.00    +0.000 NA
ATOM      7  C   UNL     1       1.031   8.713  21.183  0.00  0.00    +0.000 A 
ATOM      8  C   UNL     1       0.128   9.629  20.573  0.00  0.00    +0.000 A 
ATOM      9  C   UNL     1      -0.612   9.700  19.376  0.00  0.00    +0.000 A 
ATOM     10  H   UNL     1       0.926  10.813  23.413  0.00  0.00    +0.000 HD
ENDROOT
BRANCH   7  11
ATOM     11  C   UNL     1       1.513   7.426  20.617  0.00  0.00    +0.000 A 
ATOM     12  C   UNL     1       2.649   7.208  19.876  0.00  0.00    +0.000 A 
ATOM     13  C   UNL     1       2.698   5.840  19.492  0.00  0.00    +0.000 A 
ATOM     14  C   UNL     1       3.605   5.061  18.733  0.00  0.00    +0.000 A 
ATOM     15  C   UNL     1       3.183   3.744  18.529  0.00  0.00    +0.000 A 
ATOM     16  N   UNL     1       2.039   3.185  19.003  0.00  0.00    +0.000 NA
ATOM     17  C   UNL     1       1.208   3.934  19.760  0.00  0.00    +0.000 A 
ATOM     18  C   UNL     1       1.536   5.257  20.008  0.00  0.00    +0.000 A 
ATOM     19  N   UNL     1       0.873   6.222  20.741  0.00  0.00    +0.000 N 
ATOM     20  H   UNL     1       0.009   6.096  21.252  0.00  0.00    +0.000 HD
BRANCH  14  21
ATOM     21  C   UNL     1       4.865   5.613  18.198  0.00  0.00    +0.000 A 
ATOM     22  C   UNL     1       6.096   5.439  18.849  0.00  0.00    +0.000 A 
ATOM     23  C   UNL     1       7.274   5.964  18.310  0.00  0.00    +0.000 A 
ATOM     24  C   UNL     1       7.203   6.649  17.111  0.00  0.00    +0.000 A 
ATOM     25  N   UNL     1       6.050   6.863  16.451  0.00  0.00    +0.000 NA
ATOM     26  C   UNL     1       4.924   6.361  17.017  0.00  0.00    +0.000 A 
ENDBRANCH  14  21
ENDBRANCH   7  11
BRANCH   1  30
ATOM     27  C   UNL     1      -3.036   9.953  14.485  0.00  0.00    +0.000 C 
ATOM     28  N   UNL     1      -2.947  10.377  15.862  0.00  0.00    +0.000 N 
ATOM     29  C   UNL     1      -1.928  10.132  16.734  0.00  0.00    +0.000 A 
ATOM     30  C   UNL     1      -2.267  10.765  17.911  0.00  0.00    +0.000 A 
ATOM     31  C   UNL     1      -3.531  11.343  17.634  0.00  0.00    +0.000 A 
ATOM     32  N   UNL     1      -3.940  11.117  16.384  0.00  0.00    +0.000 NA
ENDBRANCH   1  30
TORSDOF 3
ENDMDL
MODEL 2
REMARK VINA RESULT:      -8.5      1.596      3.296
REMARK  Name = 
REMARK  4 active torsions:
REMARK  status: ('A' for Active; 'I' for Inactive)
REMARK    1  A    between atoms: C_1  and  N_2
REMARK    2  A    between atoms: C_4  and  C_5
REMARK    3  A    between atoms: C_11  and  C_12
REMARK    4  A    between atoms: C_15  and  C_16
REMARK                            x       y       z     vdW  Elec       q    Type
REMARK                         _______ _______ _______ _____ _____    ______ ____
ROOT
ATOM      1  C   UNL     1      -2.038  11.125  18.328  0.00  0.00    +0.000 A 
ATOM      2  C   UNL     1      -2.343  12.033  19.347  0.00  0.00    +0.000 A 
ATOM      3  C   UNL     1      -1.586  12.096  20.528  0.00  0.00    +0.000 A 
ATOM      4  C   UNL     1      -0.510  11.209  20.654  0.00  0.00    +0.000 A 
ATOM      5  N   UNL     1       0.384  10.987  21.668  0.00  0.00    +0.000 N 
ATOM      6  N   UNL     1       1.269   9.999  21.425  0.00  0.00    +0.000 NA
ATOM      7  C   UNL     1       0.959   9.601  20.185  0.00  0.00    +0.000 A 
ATOM      8  C   UNL     1      -0.159  10.309  19.658  0.00  0.00    +0.000 A 
ATOM      9  C   UNL     1      -0.936  10.275  18.484  0.00  0.00    +0.000 A 
ATOM     10  H   UNL     1       0.430  11.464  22.560  0.00  0.00    +0.000 HD
ENDROOT
BRANCH   7  11
ATOM     11  C   UNL     1       1.716   8.509  19.519  0.00  0.00    +0.000 A 
ATOM     12  C   UNL     1       1.858   7.209  19.939  0.00  0.00    +0.000 A 
ATOM     13  C   UNL     1       2.707   6.518  19.032  0.00  0.00    +0.000 A 
ATOM     14  C   UNL     1       3.205   5.194  18.961  0.00  0.00    +0.000 A 
ATOM     15  C   UNL     1       4.111   4.988  17.917  0.00  0.00    +0.000 A 
ATOM     16  N   UNL     1       4.506   5.911  17.003  0.00  0.00    +0.000 NA
ATOM     17  C   UNL     1       3.988   7.157  17.063  0.00  0.00    +0.000 A 
ATOM     18  C   UNL     1       3.088   7.461  18.072  0.00  0.00    +0.000 A 
ATOM     19  N   UNL     1       2.419   8.637  18.352  0.00  0.00    +0.000 N 
ATOM     20  H   UNL     1       2.474   9.497  17.822  0.00  0.00    +0.000 HD
BRANCH  14  21
ATOM     21  C   UNL     1       2.807   4.148  19.923  0.00  0.00    +0.000 A 
ATOM     22  C   UNL     1       1.474   3.964  20.322  0.00  0.00    +0.000 A 
ATOM     23  C   UNL     1       1.128   2.956  21.227  0.00  0.00    +0.000 A 
ATOM     24  C   UNL     1       2.127   2.132  21.711  0.00  0.00    +0.000 A 
ATOM     25  N   UNL     1       3.423   2.272  21.381  0.00  0.00    +0.000 NA
ATOM     26  C   UNL     1       3.726   3.277  20.519  0.00  0.00    +0.000 A 
ENDBRANCH  14  21
ENDBRANCH   7  11
BRANCH   1  30
ATOM     27  C   UNL     1      -3.600   9.998  13.749  0.00  0.00    +0.000 C 
ATOM     28  N   UNL     1      -3.526  10.479  15.108  0.00  0.00    +0.000 N 
ATOM     29  C   UNL     1      -2.476  10.355  15.968  0.00  0.00    +0.000 A 
ATOM     30  C   UNL     1      -2.849  10.999  17.129  0.00  0.00    +0.000 A 
ATOM     31  C   UNL     1      -4.163  11.455  16.856  0.00  0.00    +0.000 A 
ATOM     32  N   UNL     1      -4.571  11.149  15.623  0.00  0.00    +0.000 NA
ENDBRANCH   1  30
TORSDOF 3
ENDMDL
MODEL 3
REMARK VINA RESULT:      -8.4      1.041      1.135
REMARK  Name = 
REMARK  4 active torsions:
REMARK  status: ('A' for Active; 'I' for Inactive)
REMARK    1  A    between atoms: C_1  and  N_2
REMARK    2  A    between atoms: C_4  and  C_5
REMARK    3  A    between atoms: C_11  and  C_12
REMARK    4  A    between atoms: C_15  and  C_16
REMARK                            x       y       z     vdW  Elec       q    Type
REMARK                         _______ _______ _______ _____ _____    ______ ____
ROOT
ATOM      1  C   UNL     1      -1.095  10.656  19.135  0.00  0.00    +0.000 A 
ATOM      2  C   UNL     1      -1.003  11.693  20.068  0.00  0.00    +0.000 A 
ATOM      3  C   UNL     1      -0.195  11.585  21.211  0.00  0.00    +0.000 A 
ATOM      4  C   UNL     1       0.517  10.393  21.390  0.00  0.00    +0.000 A 
ATOM      5  N   UNL     1       1.345   9.958  22.391  0.00  0.00    +0.000 N 
ATOM      6  N   UNL     1       1.819   8.707  22.218  0.00  0.00    +0.000 NA
ATOM      7  C   UNL     1       1.311   8.342  21.035  0.00  0.00    +0.000 A 
ATOM      8  C   UNL     1       0.472   9.349  20.478  0.00  0.00    +0.000 A 
ATOM      9  C   UNL     1      -0.344   9.491  19.338  0.00  0.00    +0.000 A 
ATOM     10  H   UNL     1       1.609  10.461  23.230  0.00  0.00    +0.000 HD
ENDROOT
BRANCH   7  11
ATOM     11  C   UNL     1       1.602   7.005  20.456  0.00  0.00    +0.000 A 
ATOM     12  C   UNL     1       2.433   6.708  19.404  0.00  0.00    +0.000 A 
ATOM     13  C   UNL     1       2.379   5.311  19.147  0.00  0.00    +0.000 A 
ATOM     14  C   UNL     1       2.999   4.457  18.202  0.00  0.00    +0.000 A 
ATOM     15  C   UNL     1       2.557   3.132  18.267  0.00  0.00    +0.000 A 
ATOM     16  N   UNL     1       1.645   2.631  19.140  0.00  0.00    +0.000 NA
ATOM     17  C   UNL     1       1.098   3.454  20.060  0.00  0.00    +0.000 A 
ATOM     18  C   UNL     1       1.465   4.790  20.068  0.00  0.00    +0.000 A 
ATOM     19  N   UNL     1       1.063   5.824  20.891  0.00  0.00    +0.000 N 
ATOM     20  H   UNL     1       0.419   5.754  21.668  0.00  0.00    +0.000 HD
BRANCH  14  21
ATOM     21  C   UNL     1       3.999   4.945  17.234  0.00  0.00    +0.000 A 
ATOM     22  C   UNL     1       4.692   4.081  16.373  0.00  0.00    +0.000 A 
ATOM     23  C   UNL     1       5.626   4.575  15.458  0.00  0.00    +0.000 A 
ATOM     24  C   UNL     1       5.843   5.940  15.409  0.00  0.00    +0.000 A 
ATOM     25  N   UNL     1       5.223   6.815  16.221  0.00  0.00    +0.000 NA
ATOM     26  C   UNL     1       4.342   6.296  17.113  0.00  0.00    +0.000 A 
ENDBRANCH  14  21
ENDBRANCH   7  11
BRANCH   1  30
ATOM     27  C   UNL     1      -3.103   9.948  14.647  0.00  0.00    +0.000 C 
ATOM     28  N   UNL     1      -2.855  10.385  16.000  0.00  0.00    +0.000 N 
ATOM     29  C   UNL     1      -1.813  10.027  16.802  0.00  0.00    +0.000 A 
ATOM     30  C   UNL     1      -1.976  10.722  17.981  0.00  0.00    +0.000 A 
ATOM     31  C   UNL     1      -3.174  11.454  17.781  0.00  0.00    +0.000 A 
ATOM     32  N   UNL     1      -3.703  11.258  16.572  0.00  0.00    +0.000 NA
ENDBRANCH   1  30
TORSDOF 3
ENDMDL
MODEL 4
REMARK VINA RESULT:      -8.1      1.563      3.328
REMARK  Name = 
REMARK  4 active torsions:
REMARK  status: ('A' for Active; 'I' for Inactive)
REMARK    1  A    between atoms: C_1  and  N_2
REMARK    2  A    between atoms: C_4  and  C_5
REMARK    3  A    between atoms: C_11  and  C_12
REMARK    4  A    between atoms: C_15  and  C_16
REMARK                            x       y       z     vdW  Elec       q    Type
REMARK                         _______ _______ _______ _____ _____    ______ ____
ROOT
ATOM      1  C   UNL     1      -1.815  10.802  18.331  0.00  0.00    +0.000 A 
ATOM      2  C   UNL     1      -2.124  11.516  19.492  0.00  0.00    +0.000 A 
ATOM      3  C   UNL     1      -1.326  11.427  20.644  0.00  0.00    +0.000 A 
ATOM      4  C   UNL     1      -0.206  10.590  20.593  0.00  0.00    +0.000 A 
ATOM      5  N   UNL     1       0.735  10.255  21.529  0.00  0.00    +0.000 N 
ATOM      6  N   UNL     1       1.657   9.367  21.102  0.00  0.00    +0.000 NA
ATOM      7  C   UNL     1       1.318   9.158  19.824  0.00  0.00    +0.000 A 
ATOM      8  C   UNL     1       0.149   9.882  19.453  0.00  0.00    +0.000 A 
ATOM      9  C   UNL     1      -0.670   9.997  18.312  0.00  0.00    +0.000 A 
ATOM     10  H   UNL     1       0.792  10.583  22.486  0.00  0.00    +0.000 HD
ENDROOT
BRANCH   7  11
ATOM     11  C   UNL     1       2.100   8.230  18.967  0.00  0.00    +0.000 A 
ATOM     12  C   UNL     1       2.084   6.857  18.983  0.00  0.00    +0.000 A 
ATOM     13  C   UNL     1       3.023   6.369  18.034  0.00  0.00    +0.000 A 
ATOM     14  C   UNL     1       3.436   5.075  17.631  0.00  0.00    +0.000 A 
ATOM     15  C   UNL     1       4.487   5.082  16.709  0.00  0.00    +0.000 A 
ATOM     16  N   UNL     1       5.088   6.181  16.184  0.00  0.00    +0.000 NA
ATOM     17  C   UNL     1       4.651   7.404  16.551  0.00  0.00    +0.000 A 
ATOM     18  C   UNL     1       3.619   7.501  17.471  0.00  0.00    +0.000 A 
ATOM     19  N   UNL     1       2.993   8.612  18.002  0.00  0.00    +0.000 N 
ATOM     20  H   UNL     1       3.193   9.577  17.773  0.00  0.00    +0.000 HD
BRANCH  14  21
ATOM     21  C   UNL     1       2.816   3.846  18.163  0.00  0.00    +0.000 A 
ATOM     22  C   UNL     1       1.426   3.703  18.292  0.00  0.00    +0.000 A 
ATOM     23  C   UNL     1       0.868   2.522  18.789  0.00  0.00    +0.000 A 
ATOM     24  C   UNL     1       1.717   1.488  19.138  0.00  0.00    +0.000 A 
ATOM     25  N   UNL     1       3.057   1.573  19.055  0.00  0.00    +0.000 NA
ATOM     26  C   UNL     1       3.564   2.744  18.592  0.00  0.00    +0.000 A 
ENDBRANCH  14  21
ENDBRANCH   7  11
BRANCH   1  30
ATOM     27  C   UNL     1      -3.646  10.023  13.779  0.00  0.00    +0.000 C 
ATOM     28  N   UNL     1      -3.464  10.461  15.142  0.00  0.00    +0.000 N 
ATOM     29  C   UNL     1      -2.426  10.156  15.972  0.00  0.00    +0.000 A 
ATOM     30  C   UNL     1      -2.664  10.829  17.151  0.00  0.00    +0.000 A 
ATOM     31  C   UNL     1      -3.895  11.493  16.920  0.00  0.00    +0.000 A 
ATOM     32  N   UNL     1      -4.377  11.278  15.694  0.00  0.00    +0.000 NA
ENDBRANCH   1  30
TORSDOF 3
ENDMDL
MODEL 5
REMARK VINA RESULT:      -8.0      0.921      1.189
REMARK  Name = 
REMARK  4 active torsions:
REMARK  status: ('A' for Active; 'I' for Inactive)
REMARK    1  A    between atoms: C_1  and  N_2
REMARK    2  A    between atoms: C_4  and  C_5
REMARK    3  A    between atoms: C_11  and  C_12
REMARK    4  A    between atoms: C_15  and  C_16
REMARK                            x       y       z     vdW  Elec       q    Type
REMARK                         _______ _______ _______ _____ _____    ______ ____
ROOT
ATOM      1  C   UNL     1      -1.021  10.485  19.376  0.00  0.00    +0.000 A 
ATOM      2  C   UNL     1      -0.932  11.458  20.377  0.00  0.00    +0.000 A 
ATOM      3  C   UNL     1      -0.090  11.295  21.488  0.00  0.00    +0.000 A 
ATOM      4  C   UNL     1       0.659  10.116  21.566  0.00  0.00    +0.000 A 
ATOM      5  N   UNL     1       1.525   9.637  22.512  0.00  0.00    +0.000 N 
ATOM      6  N   UNL     1       2.030   8.415  22.241  0.00  0.00    +0.000 NA
ATOM      7  C   UNL     1       1.500   8.118  21.048  0.00  0.00    +0.000 A 
ATOM      8  C   UNL     1       0.618   9.136  20.584  0.00  0.00    +0.000 A 
ATOM      9  C   UNL     1      -0.233   9.332  19.478  0.00  0.00    +0.000 A 
ATOM     10  H   UNL     1       1.799  10.088  23.377  0.00  0.00    +0.000 HD
ENDROOT
BRANCH   7  11
ATOM     11  C   UNL     1       1.812   6.833  20.371  0.00  0.00    +0.000 A 
ATOM     12  C   UNL     1       2.861   6.562  19.527  0.00  0.00    +0.000 A 
ATOM     13  C   UNL     1       2.751   5.223  19.063  0.00  0.00    +0.000 A 
ATOM     14  C   UNL     1       3.519   4.416  18.187  0.00  0.00    +0.000 A 
ATOM     15  C   UNL     1       2.959   3.158  17.945  0.00  0.00    +0.000 A 
ATOM     16  N   UNL     1       1.808   2.675  18.480  0.00  0.00    +0.000 NA
ATOM     17  C   UNL     1       1.114   3.444  19.345  0.00  0.00    +0.000 A 
ATOM     18  C   UNL     1       1.583   4.715  19.640  0.00  0.00    +0.000 A 
ATOM     19  N   UNL     1       1.074   5.686  20.480  0.00  0.00    +0.000 N 
ATOM     20  H   UNL     1       0.244   5.605  21.053  0.00  0.00    +0.000 HD
BRANCH  14  21
ATOM     21  C   UNL     1       4.779   4.887  17.581  0.00  0.00    +0.000 A 
ATOM     22  C   UNL     1       6.034   4.585  18.131  0.00  0.00    +0.000 A 
ATOM     23  C   UNL     1       7.211   5.036  17.526  0.00  0.00    +0.000 A 
ATOM     24  C   UNL     1       7.112   5.776  16.362  0.00  0.00    +0.000 A 
ATOM     25  N   UNL     1       5.938   6.113  15.799  0.00  0.00    +0.000 NA
ATOM     26  C   UNL     1       4.816   5.679  16.427  0.00  0.00    +0.000 A 
ENDBRANCH  14  21
ENDBRANCH   7  11
BRANCH   1  30
ATOM     27  C   UNL     1      -4.853  11.768  16.487  0.00  0.00    +0.000 C 
ATOM     28  N   UNL     1      -3.626  11.195  16.987  0.00  0.00    +0.000 N 
ATOM     29  C   UNL     1      -3.075  11.379  18.219  0.00  0.00    +0.000 A 
ATOM     30  C   UNL     1      -1.935  10.604  18.252  0.00  0.00    +0.000 A 
ATOM     31  C   UNL     1      -1.889  10.013  16.964  0.00  0.00    +0.000 A 
ATOM     32  N   UNL     1      -2.924  10.363  16.198  0.00  0.00    +0.000 NA
ENDBRANCH   1  30
TORSDOF 3
ENDMDL
MODEL 6
REMARK VINA RESULT:      -7.9      3.200      4.814
REMARK  Name = 
REMARK  4 active torsions:
REMARK  status: ('A' for Active; 'I' for Inactive)
REMARK    1  A    between atoms: C_1  and  N_2
REMARK    2  A    between atoms: C_4  and  C_5
REMARK    3  A    between atoms: C_11  and  C_12
REMARK    4  A    between atoms: C_15  and  C_16
REMARK                            x       y       z     vdW  Elec       q    Type
REMARK                         _______ _______ _______ _____ _____    ______ ____
ROOT
ATOM      1  C   UNL     1       0.096  13.519  21.087  0.00  0.00    +0.000 A 
ATOM      2  C   UNL     1      -0.694  13.801  22.205  0.00  0.00    +0.000 A 
ATOM      3  C   UNL     1      -1.161  12.783  23.052  0.00  0.00    +0.000 A 
ATOM      4  C   UNL     1      -0.812  11.466  22.733  0.00  0.00    +0.000 A 
ATOM      5  N   UNL     1      -1.127  10.266  23.312  0.00  0.00    +0.000 N 
ATOM      6  N   UNL     1      -0.621   9.189  22.676  0.00  0.00    +0.000 NA
ATOM      7  C   UNL     1       0.085   9.724  21.673  0.00  0.00    +0.000 A 
ATOM      8  C   UNL     1      -0.012  11.144  21.646  0.00  0.00    +0.000 A 
ATOM      9  C   UNL     1       0.445  12.190  20.819  0.00  0.00    +0.000 A 
ATOM     10  H   UNL     1      -1.701  10.113  24.133  0.00  0.00    +0.000 HD
ENDROOT
BRANCH   7  11
ATOM     11  C   UNL     1       0.826   8.863  20.714  0.00  0.00    +0.000 A 
ATOM     12  C   UNL     1       1.082   7.518  20.818  0.00  0.00    +0.000 A 
ATOM     13  C   UNL     1       1.866   7.106  19.706  0.00  0.00    +0.000 A 
ATOM     14  C   UNL     1       2.425   5.870  19.297  0.00  0.00    +0.000 A 
ATOM     15  C   UNL     1       3.225   5.965  18.154  0.00  0.00    +0.000 A 
ATOM     16  N   UNL     1       3.469   7.092  17.437  0.00  0.00    +0.000 NA
ATOM     17  C   UNL     1       2.893   8.251  17.820  0.00  0.00    +0.000 A 
ATOM     18  C   UNL     1       2.090   8.260  18.950  0.00  0.00    +0.000 A 
ATOM     19  N   UNL     1       1.392   9.294  19.545  0.00  0.00    +0.000 N 
ATOM     20  H   UNL     1       1.344  10.249  19.216  0.00  0.00    +0.000 HD
BRANCH  14  21
ATOM     21  C   UNL     1       2.189   4.614  20.034  0.00  0.00    +0.000 A 
ATOM     22  C   UNL     1       1.587   3.496  19.437  0.00  0.00    +0.000 A 
ATOM     23  C   UNL     1       1.388   2.316  20.160  0.00  0.00    +0.000 A 
ATOM     24  C   UNL     1       1.812   2.268  21.475  0.00  0.00    +0.000 A 
ATOM     25  N   UNL     1       2.378   3.313  22.106  0.00  0.00    +0.000 NA
ATOM     26  C   UNL     1       2.532   4.450  21.381  0.00  0.00    +0.000 A 
ENDBRANCH  14  21
ENDBRANCH   7  11
BRANCH   1  30
ATOM     27  C   UNL     1       2.884  16.784  18.588  0.00  0.00    +0.000 C 
ATOM     28  N   UNL     1       1.785  15.976  19.059  0.00  0.00    +0.000 N 
ATOM     29  C   UNL     1       1.824  15.021  20.029  0.00  0.00    +0.000 A 
ATOM     30  C   UNL     1       0.534  14.552  20.162  0.00  0.00    +0.000 A 
ATOM     31  C   UNL     1      -0.196  15.289  19.195  0.00  0.00    +0.000 A 
ATOM     32  N   UNL     1       0.562  16.164  18.532  0.00  0.00    +0.000 NA
ENDBRANCH   1  30
TORSDOF 3
ENDMDL
MODEL 7
REMARK VINA RESULT:      -7.9      2.840      3.964
REMARK  Name = 
REMARK  4 active torsions:
REMARK  status: ('A' for Active; 'I' for Inactive)
REMARK    1  A    between atoms: C_1  and  N_2
REMARK    2  A    between atoms: C_4  and  C_5
REMARK    3  A    between atoms: C_11  and  C_12
REMARK    4  A    between atoms: C_15  and  C_16
REMARK                            x       y       z     vdW  Elec       q    Type
REMARK                         _______ _______ _______ _____ _____    ______ ____
ROOT
ATOM      1  C   UNL     1      -0.643  12.295  20.529  0.00  0.00    +0.000 A 
ATOM      2  C   UNL     1      -0.461  13.519  19.879  0.00  0.00    +0.000 A 
ATOM      3  C   UNL     1       0.468  13.667  18.836  0.00  0.00    +0.000 A 
ATOM      4  C   UNL     1       1.215  12.541  18.471  0.00  0.00    +0.000 A 
ATOM      5  N   UNL     1       2.207  12.357  17.544  0.00  0.00    +0.000 N 
ATOM      6  N   UNL     1       2.720  11.110  17.515  0.00  0.00    +0.000 NA
ATOM      7  C   UNL     1       1.995  10.454  18.430  0.00  0.00    +0.000 A 
ATOM      8  C   UNL     1       1.050  11.303  19.075  0.00  0.00    +0.000 A 
ATOM      9  C   UNL     1       0.106  11.187  20.114  0.00  0.00    +0.000 A 
ATOM     10  H   UNL     1       2.594  13.050  16.914  0.00  0.00    +0.000 HD
ENDROOT
BRANCH   7  11
ATOM     11  C   UNL     1       2.238   9.016  18.712  0.00  0.00    +0.000 A 
ATOM     12  C   UNL     1       2.957   8.122  17.957  0.00  0.00    +0.000 A 
ATOM     13  C   UNL     1       2.890   6.839  18.566  0.00  0.00    +0.000 A 
ATOM     14  C   UNL     1       3.416   5.565  18.241  0.00  0.00    +0.000 A 
ATOM     15  C   UNL     1       2.998   4.546  19.103  0.00  0.00    +0.000 A 
ATOM     16  N   UNL     1       2.188   4.692  20.183  0.00  0.00    +0.000 NA
ATOM     17  C   UNL     1       1.731   5.922  20.499  0.00  0.00    +0.000 A 
ATOM     18  C   UNL     1       2.083   6.996  19.696  0.00  0.00    +0.000 A 
ATOM     19  N   UNL     1       1.759   8.335  19.798  0.00  0.00    +0.000 N 
ATOM     20  H   UNL     1       1.201   8.761  20.527  0.00  0.00    +0.000 HD
BRANCH  14  21
ATOM     21  C   UNL     1       4.305   5.349  17.083  0.00  0.00    +0.000 A 
ATOM     22  C   UNL     1       4.676   4.067  16.651  0.00  0.00    +0.000 A 
ATOM     23  C   UNL     1       5.511   3.895  15.543  0.00  0.00    +0.000 A 
ATOM     24  C   UNL     1       5.953   5.019  14.870  0.00  0.00    +0.000 A 
ATOM     25  N   UNL     1       5.647   6.273  15.247  0.00  0.00    +0.000 NA
ATOM     26  C   UNL     1       4.855   6.402  16.342  0.00  0.00    +0.000 A 
ENDBRANCH  14  21
ENDBRANCH   7  11
BRANCH   1  30
ATOM     27  C   UNL     1      -4.453  12.843  23.669  0.00  0.00    +0.000 C 
ATOM     28  N   UNL     1      -3.248  12.384  23.020  0.00  0.00    +0.000 N 
ATOM     29  C   UNL     1      -2.717  12.844  21.852  0.00  0.00    +0.000 A 
ATOM     30  C   UNL     1      -1.550  12.138  21.654  0.00  0.00    +0.000 A 
ATOM     31  C   UNL     1      -1.494  11.258  22.764  0.00  0.00    +0.000 A 
ATOM     32  N   UNL     1      -2.521  11.415  23.601  0.00  0.00    +0.000 NA
ENDBRANCH   1  30
TORSDOF 3
ENDMDL
MODEL 8
REMARK VINA RESULT:      -7.8      2.681      8.592
REMARK  Name = 
REMARK  4 active torsions:
REMARK  status: ('A' for Active; 'I' for Inactive)
REMARK    1  A    between atoms: C_1  and  N_2
REMARK    2  A    between atoms: C_4  and  C_5
REMARK    3  A    between atoms: C_11  and  C_12
REMARK    4  A    between atoms: C_15  and  C_16
REMARK                            x       y       z     vdW  Elec       q    Type
REMARK                         _______ _______ _______ _____ _____    ______ ____
ROOT
ATOM      1  C   UNL     1       4.523   4.183  17.677  0.00  0.00    +0.000 A 
ATOM      2  C   UNL     1       4.284   2.956  18.302  0.00  0.00    +0.000 A 
ATOM      3  C   UNL     1       3.365   2.834  19.357  0.00  0.00    +0.000 A 
ATOM      4  C   UNL     1       2.695   3.992  19.768  0.00  0.00    +0.000 A 
ATOM      5  N   UNL     1       1.787   4.223  20.767  0.00  0.00    +0.000 N 
ATOM      6  N   UNL     1       1.393   5.509  20.876  0.00  0.00    +0.000 NA
ATOM      7  C   UNL     1       2.040   6.119  19.877  0.00  0.00    +0.000 A 
ATOM      8  C   UNL     1       2.886   5.224  19.160  0.00  0.00    +0.000 A 
ATOM      9  C   UNL     1       3.811   5.312  18.101  0.00  0.00    +0.000 A 
ATOM     10  H   UNL     1       1.411   3.548  21.422  0.00  0.00    +0.000 HD
ENDROOT
BRANCH   7  11
ATOM     11  C   UNL     1       1.875   7.575  19.634  0.00  0.00    +0.000 A 
ATOM     12  C   UNL     1       1.062   8.452  20.310  0.00  0.00    +0.000 A 
ATOM     13  C   UNL     1       1.172   9.740  19.717  0.00  0.00    +0.000 A 
ATOM     14  C   UNL     1       0.577  10.999  19.976  0.00  0.00    +0.000 A 
ATOM     15  C   UNL     1       0.921  11.986  19.048  0.00  0.00    +0.000 A 
ATOM     16  N   UNL     1       1.758  11.835  17.990  0.00  0.00    +0.000 NA
ATOM     17  C   UNL     1       2.348  10.638  17.785  0.00  0.00    +0.000 A 
ATOM     18  C   UNL     1       2.060   9.592  18.647  0.00  0.00    +0.000 A 
ATOM     19  N   UNL     1       2.522   8.290  18.663  0.00  0.00    +0.000 N 
ATOM     20  H   UNL     1       3.193   7.887  18.022  0.00  0.00    +0.000 HD
BRANCH  14  21
ATOM     21  C   UNL     1      -0.336  11.222  21.114  0.00  0.00    +0.000 A 
ATOM     22  C   UNL     1      -1.415  12.116  21.046  0.00  0.00    +0.000 A 
ATOM     23  C   UNL     1      -2.269  12.297  22.137  0.00  0.00    +0.000 A 
ATOM     24  C   UNL     1      -2.037  11.561  23.285  0.00  0.00    +0.000 A 
ATOM     25  N   UNL     1      -1.009  10.703  23.416  0.00  0.00    +0.000 NA
ATOM     26  C   UNL     1      -0.186  10.573  22.345  0.00  0.00    +0.000 A 
ENDBRANCH  14  21
ENDBRANCH   7  11
BRANCH   1  30
ATOM     27  C   UNL     1       6.791   4.290  13.258  0.00  0.00    +0.000 C 
ATOM     28  N   UNL     1       6.497   4.399  14.667  0.00  0.00    +0.000 N 
ATOM     29  C   UNL     1       5.308   4.142  15.281  0.00  0.00    +0.000 A 
ATOM     30  C   UNL     1       5.518   4.343  16.629  0.00  0.00    +0.000 A 
ATOM     31  C   UNL     1       6.875   4.744  16.705  0.00  0.00    +0.000 A 
ATOM     32  N   UNL     1       7.475   4.767  15.513  0.00  0.00    +0.000 NA
ENDBRANCH   1  30
TORSDOF 3
ENDMDL
MODEL 9
REMARK VINA RESULT:      -7.8      4.115     10.141
REMARK  Name = 
REMARK  4 active torsions:
REMARK  status: ('A' for Active; 'I' for Inactive)
REMARK    1  A    between atoms: C_1  and  N_2
REMARK    2  A    between atoms: C_4  and  C_5
REMARK    3  A    between atoms: C_11  and  C_12
REMARK    4  A    between atoms: C_15  and  C_16
REMARK                            x       y       z     vdW  Elec       q    Type
REMARK                         _______ _______ _______ _____ _____    ______ ____
ROOT
ATOM      1  C   UNL     1      -1.753  10.410  18.045  0.00  0.00    +0.000 A 
ATOM      2  C   UNL     1      -1.865  10.297  16.656  0.00  0.00    +0.000 A 
ATOM      3  C   UNL     1      -3.033  10.681  15.978  0.00  0.00    +0.000 A 
ATOM      4  C   UNL     1      -4.093  11.177  16.746  0.00  0.00    +0.000 A 
ATOM      5  N   UNL     1      -5.354  11.593  16.413  0.00  0.00    +0.000 N 
ATOM      6  N   UNL     1      -6.113  11.974  17.462  0.00  0.00    +0.000 NA
ATOM      7  C   UNL     1      -5.287  11.840  18.507  0.00  0.00    +0.000 A 
ATOM      8  C   UNL     1      -4.015  11.326  18.124  0.00  0.00    +0.000 A 
ATOM      9  C   UNL     1      -2.827  10.938  18.773  0.00  0.00    +0.000 A 
ATOM     10  H   UNL     1      -5.765  11.622  15.487  0.00  0.00    +0.000 HD
ENDROOT
BRANCH   7  11
ATOM     11  C   UNL     1      -5.737  12.169  19.884  0.00  0.00    +0.000 A 
ATOM     12  C   UNL     1      -5.071  12.909  20.830  0.00  0.00    +0.000 A 
ATOM     13  C   UNL     1      -5.838  12.933  22.027  0.00  0.00    +0.000 A 
ATOM     14  C   UNL     1      -5.653  13.516  23.305  0.00  0.00    +0.000 A 
ATOM     15  C   UNL     1      -6.652  13.183  24.225  0.00  0.00    +0.000 A 
ATOM     16  N   UNL     1      -7.738  12.403  23.984  0.00  0.00    +0.000 NA
ATOM     17  C   UNL     1      -7.916  11.892  22.747  0.00  0.00    +0.000 A 
ATOM     18  C   UNL     1      -6.972  12.157  21.768  0.00  0.00    +0.000 A 
ATOM     19  N   UNL     1      -6.919  11.766  20.444  0.00  0.00    +0.000 N 
ATOM     20  H   UNL     1      -7.610  11.211  19.957  0.00  0.00    +0.000 HD
BRANCH  14  21
ATOM     21  C   UNL     1      -4.496  14.375  23.622  0.00  0.00    +0.000 A 
ATOM     22  C   UNL     1      -4.581  15.775  23.626  0.00  0.00    +0.000 A 
ATOM     23  C   UNL     1      -3.469  16.561  23.942  0.00  0.00    +0.000 A 
ATOM     24  C   UNL     1      -2.284  15.927  24.266  0.00  0.00    +0.000 A 
ATOM     25  N   UNL     1      -2.137  14.591  24.261  0.00  0.00    +0.000 NA
ATOM     26  C   UNL     1      -3.230  13.860  23.925  0.00  0.00    +0.000 A 
ENDBRANCH  14  21
ENDBRANCH   7  11
BRANCH   1  30
ATOM     27  C   UNL     1       1.316   8.917  21.655  0.00  0.00    +0.000 C 
ATOM     28  N   UNL     1       0.757   9.285  20.376  0.00  0.00    +0.000 N 
ATOM     29  C   UNL     1      -0.525   9.667  20.118  0.00  0.00    +0.000 A 
ATOM     30  C   UNL     1      -0.578   9.957  18.771  0.00  0.00    +0.000 A 
ATOM     31  C   UNL     1       0.737   9.687  18.314  0.00  0.00    +0.000 A 
ATOM     32  N   UNL     1       1.553   9.289  19.292  0.00  0.00    +0.000 NA
ENDBRANCH   1  30
TORSDOF 3
ENDMDL
