MODEL 1
REMARK VINA RESULT:      -8.1      0.000      0.000
REMARK  Name = 
REMARK  4 active torsions:
REMARK  status: ('A' for Active; 'I' for Inactive)
REMARK    1  A    between atoms: C_1  and  C_2
REMARK    2  A    between atoms: C_4  and  C_5
REMARK    3  A    between atoms: C_6  and  C_7
REMARK    4  A    between atoms: N_19  and  C_20
REMARK                            x       y       z     vdW  Elec       q    Type
REMARK                         _______ _______ _______ _____ _____    ______ ____
ROOT
ATOM      1  C   UNL     1       4.730   4.551  18.789  0.00  0.00    +0.000 C 
ATOM      2  C   UNL     1       3.732   5.194  19.814  0.00  0.00    +0.000 C 
ATOM      3  C   UNL     1       2.842   4.030  20.379  0.00  0.00    +0.000 C 
ATOM      4  C   UNL     1       2.359   3.037  19.308  0.00  0.00    +0.000 C 
ATOM      5  C   UNL     1       1.731   3.655  18.054  0.00  0.00    +0.000 C 
ATOM      6  C   UNL     1       2.893   3.795  17.071  0.00  0.00    +0.000 C 
ATOM      7  C   UNL     1       4.134   3.426  17.879  0.00  0.00    +0.000 C 
ATOM      8  N   UNL     1       3.616   2.445  18.854  0.00  0.00    +0.000 NA
ATOM      9  C   UNL     1       3.505   1.063  18.454  0.00  0.00    +0.000 C 
ENDROOT
BRANCH   2  10
ATOM     10  C   UNL     1       2.805   6.361  19.464  0.00  0.00    +0.000 A 
ATOM     11  C   UNL     1       1.874   6.924  20.336  0.00  0.00    +0.000 A 
ATOM     12  C   UNL     1       1.354   8.201  20.081  0.00  0.00    +0.000 A 
ATOM     13  C   UNL     1       1.731   8.896  18.940  0.00  0.00    +0.000 A 
ATOM     14  I   UNL     1       1.207  10.893  18.703  0.00  0.00    +0.000 I 
ATOM     15  C   UNL     1       2.514   8.277  17.976  0.00  0.00    +0.000 A 
ATOM     16  C   UNL     1       3.003   6.997  18.223  0.00  0.00    +0.000 A 
ENDBRANCH   2  10
BRANCH   1  20
ATOM     17  C   UNL     1       7.966   8.304  17.537  0.00  0.00    +0.000 C 
ATOM     18  C   UNL     1       7.060   7.133  17.569  0.00  0.00    +0.000 A 
ATOM     19  C   UNL     1       6.814   6.212  18.621  0.00  0.00    +0.000 A 
ATOM     20  C   UNL     1       5.746   5.466  18.175  0.00  0.00    +0.000 A 
ATOM     21  O   UNL     1       5.462   5.840  16.894  0.00  0.00    +0.000 OA
ATOM     22  N   UNL     1       6.278   6.882  16.515  0.00  0.00    +0.000 NA
ENDBRANCH   1  20
TORSDOF 2
ENDMDL
MODEL 2
REMARK VINA RESULT:      -7.7      1.596      2.034
REMARK  Name = 
REMARK  4 active torsions:
REMARK  status: ('A' for Active; 'I' for Inactive)
REMARK    1  A    between atoms: C_1  and  C_2
REMARK    2  A    between atoms: C_4  and  C_5
REMARK    3  A    between atoms: C_6  and  C_7
REMARK    4  A    between atoms: N_19  and  C_20
REMARK                            x       y       z     vdW  Elec       q    Type
REMARK                         _______ _______ _______ _____ _____    ______ ____
ROOT
ATOM      1  C   UNL     1       4.294   4.133  18.250  0.00  0.00    +0.000 C 
ATOM      2  C   UNL     1       3.957   5.139  19.406  0.00  0.00    +0.000 C 
ATOM      3  C   UNL     1       3.013   4.386  20.409  0.00  0.00    +0.000 C 
ATOM      4  C   UNL     1       1.912   3.554  19.727  0.00  0.00    +0.000 C 
ATOM      5  C   UNL     1       1.105   4.273  18.640  0.00  0.00    +0.000 C 
ATOM      6  C   UNL     1       1.837   3.947  17.338  0.00  0.00    +0.000 C 
ATOM      7  C   UNL     1       3.110   3.227  17.776  0.00  0.00    +0.000 C 
ATOM      8  N   UNL     1       2.693   2.543  19.017  0.00  0.00    +0.000 NA
ATOM      9  C   UNL     1       2.039   1.260  18.916  0.00  0.00    +0.000 C 
ENDROOT
BRANCH   2  10
ATOM     10  C   UNL     1       3.364   6.529  19.162  0.00  0.00    +0.000 A 
ATOM     11  C   UNL     1       3.403   7.205  17.942  0.00  0.00    +0.000 A 
ATOM     12  C   UNL     1       2.523   8.271  17.702  0.00  0.00    +0.000 A 
ATOM     13  C   UNL     1       1.638   8.686  18.687  0.00  0.00    +0.000 A 
ATOM     14  I   UNL     1       0.138  10.054  18.246  0.00  0.00    +0.000 I 
ATOM     15  C   UNL     1       1.713   8.143  19.963  0.00  0.00    +0.000 A 
ATOM     16  C   UNL     1       2.609   7.104  20.203  0.00  0.00    +0.000 A 
ENDBRANCH   2  10
BRANCH   1  20
ATOM     17  C   UNL     1       7.184   4.932  14.112  0.00  0.00    +0.000 C 
ATOM     18  C   UNL     1       6.589   4.886  15.467  0.00  0.00    +0.000 A 
ATOM     19  C   UNL     1       5.223   4.845  15.850  0.00  0.00    +0.000 A 
ATOM     20  C   UNL     1       5.258   4.607  17.206  0.00  0.00    +0.000 A 
ATOM     21  O   UNL     1       6.560   4.630  17.615  0.00  0.00    +0.000 OA
ATOM     22  N   UNL     1       7.392   4.801  16.531  0.00  0.00    +0.000 NA
ENDBRANCH   1  20
TORSDOF 2
ENDMDL
MODEL 3
REMARK VINA RESULT:      -7.6      1.796      4.506
REMARK  Name = 
REMARK  4 active torsions:
REMARK  status: ('A' for Active; 'I' for Inactive)
REMARK    1  A    between atoms: C_1  and  C_2
REMARK    2  A    between atoms: C_4  and  C_5
REMARK    3  A    between atoms: C_6  and  C_7
REMARK    4  A    between atoms: N_19  and  C_20
REMARK                            x       y       z     vdW  Elec       q    Type
REMARK                         _______ _______ _______ _____ _____    ______ ____
ROOT
ATOM      1  C   UNL     1       4.299   4.238  18.031  0.00  0.00    +0.000 C 
ATOM      2  C   UNL     1       3.563   5.489  17.436  0.00  0.00    +0.000 C 
ATOM      3  C   UNL     1       4.482   6.065  16.300  0.00  0.00    +0.000 C 
ATOM      4  C   UNL     1       5.975   6.117  16.671  0.00  0.00    +0.000 C 
ATOM      5  C   UNL     1       6.307   6.749  18.027  0.00  0.00    +0.000 C 
ATOM      6  C   UNL     1       6.343   5.572  19.001  0.00  0.00    +0.000 C 
ATOM      7  C   UNL     1       5.849   4.378  18.189  0.00  0.00    +0.000 C 
ATOM      8  N   UNL     1       6.299   4.700  16.819  0.00  0.00    +0.000 NA
ATOM      9  C   UNL     1       7.649   4.363  16.436  0.00  0.00    +0.000 C 
ENDROOT
BRANCH   2  10
ATOM     10  C   UNL     1       3.084   6.665  18.290  0.00  0.00    +0.000 A 
ATOM     11  C   UNL     1       2.796   7.938  17.797  0.00  0.00    +0.000 A 
ATOM     12  C   UNL     1       2.014   8.823  18.552  0.00  0.00    +0.000 A 
ATOM     13  C   UNL     1       1.556   8.457  19.810  0.00  0.00    +0.000 A 
ATOM     14  I   UNL     1       0.159   9.630  20.805  0.00  0.00    +0.000 I 
ATOM     15  C   UNL     1       1.983   7.268  20.386  0.00  0.00    +0.000 A 
ATOM     16  C   UNL     1       2.784   6.406  19.641  0.00  0.00    +0.000 A 
ENDBRANCH   2  10
BRANCH   1  20
ATOM     17  C   UNL     1       1.273   2.526  21.776  0.00  0.00    +0.000 C 
ATOM     18  C   UNL     1       2.343   2.753  20.778  0.00  0.00    +0.000 A 
ATOM     19  C   UNL     1       2.256   3.303  19.472  0.00  0.00    +0.000 A 
ATOM     20  C   UNL     1       3.567   3.465  19.085  0.00  0.00    +0.000 A 
ATOM     21  O   UNL     1       4.373   2.930  20.048  0.00  0.00    +0.000 OA
ATOM     22  N   UNL     1       3.611   2.489  21.108  0.00  0.00    +0.000 NA
ENDBRANCH   1  20
TORSDOF 2
ENDMDL
MODEL 4
REMARK VINA RESULT:      -7.6      1.095      1.106
REMARK  Name = 
REMARK  4 active torsions:
REMARK  status: ('A' for Active; 'I' for Inactive)
REMARK    1  A    between atoms: C_1  and  C_2
REMARK    2  A    between atoms: C_4  and  C_5
REMARK    3  A    between atoms: C_6  and  C_7
REMARK    4  A    between atoms: N_19  and  C_20
REMARK                            x       y       z     vdW  Elec       q    Type
REMARK                         _______ _______ _______ _____ _____    ______ ____
ROOT
ATOM      1  C   UNL     1       4.319   4.664  19.366  0.00  0.00    +0.000 C 
ATOM      2  C   UNL     1       3.178   5.242  20.275  0.00  0.00    +0.000 C 
ATOM      3  C   UNL     1       2.191   4.058  20.580  0.00  0.00    +0.000 C 
ATOM      4  C   UNL     1       1.873   3.179  19.357  0.00  0.00    +0.000 C 
ATOM      5  C   UNL     1       1.465   3.926  18.082  0.00  0.00    +0.000 C 
ATOM      6  C   UNL     1       2.772   4.119  17.314  0.00  0.00    +0.000 C 
ATOM      7  C   UNL     1       3.861   3.643  18.272  0.00  0.00    +0.000 C 
ATOM      8  N   UNL     1       3.178   2.594  19.057  0.00  0.00    +0.000 NA
ATOM      9  C   UNL     1       3.113   1.258  18.517  0.00  0.00    +0.000 C 
ENDROOT
BRANCH   2  10
ATOM     10  C   UNL     1       2.337   6.462  19.891  0.00  0.00    +0.000 A 
ATOM     11  C   UNL     1       1.492   7.148  20.763  0.00  0.00    +0.000 A 
ATOM     12  C   UNL     1       1.069   8.449  20.453  0.00  0.00    +0.000 A 
ATOM     13  C   UNL     1       1.455   9.046  19.261  0.00  0.00    +0.000 A 
ATOM     14  I   UNL     1       1.088  11.065  18.928  0.00  0.00    +0.000 I 
ATOM     15  C   UNL     1       2.145   8.312  18.306  0.00  0.00    +0.000 A 
ATOM     16  C   UNL     1       2.536   7.010  18.609  0.00  0.00    +0.000 A 
ENDBRANCH   2  10
BRANCH   1  20
ATOM     17  C   UNL     1       7.948   7.501  17.153  0.00  0.00    +0.000 C 
ATOM     18  C   UNL     1       7.078   6.740  18.078  0.00  0.00    +0.000 A 
ATOM     19  C   UNL     1       5.673   6.541  18.035  0.00  0.00    +0.000 A 
ATOM     20  C   UNL     1       5.434   5.600  19.011  0.00  0.00    +0.000 A 
ATOM     21  O   UNL     1       6.604   5.353  19.670  0.00  0.00    +0.000 OA
ATOM     22  N   UNL     1       7.631   6.061  19.087  0.00  0.00    +0.000 NA
ENDBRANCH   1  20
TORSDOF 2
ENDMDL
MODEL 5
REMARK VINA RESULT:      -7.5      1.578      1.760
REMARK  Name = 
REMARK  4 active torsions:
REMARK  status: ('A' for Active; 'I' for Inactive)
REMARK    1  A    between atoms: C_1  and  C_2
REMARK    2  A    between atoms: C_4  and  C_5
REMARK    3  A    between atoms: C_6  and  C_7
REMARK    4  A    between atoms: N_19  and  C_20
REMARK                            x       y       z     vdW  Elec       q    Type
REMARK                         _______ _______ _______ _____ _____    ______ ____
ROOT
ATOM      1  C   UNL     1       4.880   4.055  17.956  0.00  0.00    +0.000 C 
ATOM      2  C   UNL     1       4.367   5.031  19.073  0.00  0.00    +0.000 C 
ATOM      3  C   UNL     1       3.774   4.141  20.223  0.00  0.00    +0.000 C 
ATOM      4  C   UNL     1       2.908   2.971  19.723  0.00  0.00    +0.000 C 
ATOM      5  C   UNL     1       1.835   3.325  18.687  0.00  0.00    +0.000 C 
ATOM      6  C   UNL     1       2.514   3.097  17.338  0.00  0.00    +0.000 C 
ATOM      7  C   UNL     1       3.974   2.810  17.678  0.00  0.00    +0.000 C 
ATOM      8  N   UNL     1       3.884   2.158  19.001  0.00  0.00    +0.000 NA
ATOM      9  C   UNL     1       3.625   0.740  19.058  0.00  0.00    +0.000 C 
ENDROOT
BRANCH   2  10
ATOM     10  C   UNL     1       3.377   6.166  18.804  0.00  0.00    +0.000 A 
ATOM     11  C   UNL     1       2.415   6.611  19.711  0.00  0.00    +0.000 A 
ATOM     12  C   UNL     1       1.824   7.873  19.546  0.00  0.00    +0.000 A 
ATOM     13  C   UNL     1       2.161   8.669  18.461  0.00  0.00    +0.000 A 
ATOM     14  I   UNL     1       1.526  10.645  18.367  0.00  0.00    +0.000 I 
ATOM     15  C   UNL     1       2.978   8.166  17.457  0.00  0.00    +0.000 A 
ATOM     16  C   UNL     1       3.538   6.901  17.613  0.00  0.00    +0.000 A 
ENDBRANCH   2  10
BRANCH   1  20
ATOM     17  C   UNL     1       7.319   5.170  13.606  0.00  0.00    +0.000 C 
ATOM     18  C   UNL     1       6.724   5.156  14.962  0.00  0.00    +0.000 A 
ATOM     19  C   UNL     1       5.522   4.550  15.412  0.00  0.00    +0.000 A 
ATOM     20  C   UNL     1       5.570   4.680  16.782  0.00  0.00    +0.000 A 
ATOM     21  O   UNL     1       6.667   5.423  17.109  0.00  0.00    +0.000 OA
ATOM     22  N   UNL     1       7.390   5.719  15.974  0.00  0.00    +0.000 NA
ENDBRANCH   1  20
TORSDOF 2
ENDMDL
MODEL 6
REMARK VINA RESULT:      -7.3      0.850      1.327
REMARK  Name = 
REMARK  4 active torsions:
REMARK  status: ('A' for Active; 'I' for Inactive)
REMARK    1  A    between atoms: C_1  and  C_2
REMARK    2  A    between atoms: C_4  and  C_5
REMARK    3  A    between atoms: C_6  and  C_7
REMARK    4  A    between atoms: N_19  and  C_20
REMARK                            x       y       z     vdW  Elec       q    Type
REMARK                         _______ _______ _______ _____ _____    ______ ____
ROOT
ATOM      1  C   UNL     1       4.249   4.820  18.932  0.00  0.00    +0.000 C 
ATOM      2  C   UNL     1       3.406   5.683  19.936  0.00  0.00    +0.000 C 
ATOM      3  C   UNL     1       2.293   4.744  20.525  0.00  0.00    +0.000 C 
ATOM      4  C   UNL     1       1.613   3.847  19.475  0.00  0.00    +0.000 C 
ATOM      5  C   UNL     1       1.129   4.551  18.203  0.00  0.00    +0.000 C 
ATOM      6  C   UNL     1       2.295   4.421  17.223  0.00  0.00    +0.000 C 
ATOM      7  C   UNL     1       3.431   3.822  18.047  0.00  0.00    +0.000 C 
ATOM      8  N   UNL     1       2.720   2.995  19.043  0.00  0.00    +0.000 NA
ATOM      9  C   UNL     1       2.323   1.657  18.676  0.00  0.00    +0.000 C 
ENDROOT
BRANCH   2  10
ATOM     10  C   UNL     1       2.743   7.008  19.552  0.00  0.00    +0.000 A 
ATOM     11  C   UNL     1       2.777   7.571  18.277  0.00  0.00    +0.000 A 
ATOM     12  C   UNL     1       1.846   8.559  17.921  0.00  0.00    +0.000 A 
ATOM     13  C   UNL     1       0.914   9.010  18.844  0.00  0.00    +0.000 A 
ATOM     14  I   UNL     1      -0.648  10.243  18.246  0.00  0.00    +0.000 I 
ATOM     15  C   UNL     1       0.985   8.590  20.165  0.00  0.00    +0.000 A 
ATOM     16  C   UNL     1       1.930   7.631  20.520  0.00  0.00    +0.000 A 
ENDBRANCH   2  10
BRANCH   1  20
ATOM     17  C   UNL     1       8.093   7.870  17.506  0.00  0.00    +0.000 C 
ATOM     18  C   UNL     1       7.023   6.852  17.608  0.00  0.00    +0.000 A 
ATOM     19  C   UNL     1       6.563   6.138  18.745  0.00  0.00    +0.000 A 
ATOM     20  C   UNL     1       5.433   5.487  18.303  0.00  0.00    +0.000 A 
ATOM     21  O   UNL     1       5.306   5.705  16.961  0.00  0.00    +0.000 OA
ATOM     22  N   UNL     1       6.295   6.558  16.526  0.00  0.00    +0.000 NA
ENDBRANCH   1  20
TORSDOF 2
ENDMDL
MODEL 7
REMARK VINA RESULT:      -7.2      1.390      1.566
REMARK  Name = 
REMARK  4 active torsions:
REMARK  status: ('A' for Active; 'I' for Inactive)
REMARK    1  A    between atoms: C_1  and  C_2
REMARK    2  A    between atoms: C_4  and  C_5
REMARK    3  A    between atoms: C_6  and  C_7
REMARK    4  A    between atoms: N_19  and  C_20
REMARK                            x       y       z     vdW  Elec       q    Type
REMARK                         _______ _______ _______ _____ _____    ______ ____
ROOT
ATOM      1  C   UNL     1       4.076   4.349  18.592  0.00  0.00    +0.000 C 
ATOM      2  C   UNL     1       3.564   5.362  19.675  0.00  0.00    +0.000 C 
ATOM      3  C   UNL     1       2.801   4.525  20.762  0.00  0.00    +0.000 C 
ATOM      4  C   UNL     1       1.876   3.441  20.181  0.00  0.00    +0.000 C 
ATOM      5  C   UNL     1       0.928   3.896  19.066  0.00  0.00    +0.000 C 
ATOM      6  C   UNL     1       1.691   3.613  17.773  0.00  0.00    +0.000 C 
ATOM      7  C   UNL     1       3.087   3.193  18.227  0.00  0.00    +0.000 C 
ATOM      8  N   UNL     1       2.831   2.546  19.530  0.00  0.00    +0.000 NA
ATOM      9  C   UNL     1       2.441   1.157  19.549  0.00  0.00    +0.000 C 
ENDROOT
BRANCH   2  10
ATOM     10  C   UNL     1       2.706   6.584  19.341  0.00  0.00    +0.000 A 
ATOM     11  C   UNL     1       1.879   7.246  20.249  0.00  0.00    +0.000 A 
ATOM     12  C   UNL     1       1.440   8.550  19.979  0.00  0.00    +0.000 A 
ATOM     13  C   UNL     1       1.789   9.176  18.791  0.00  0.00    +0.000 A 
ATOM     14  I   UNL     1       1.401  11.198  18.511  0.00  0.00    +0.000 I 
ATOM     15  C   UNL     1       2.458   8.466  17.802  0.00  0.00    +0.000 A 
ATOM     16  C   UNL     1       2.866   7.161  18.065  0.00  0.00    +0.000 A 
ENDBRANCH   2  10
BRANCH   1  20
ATOM     17  C   UNL     1       7.003   5.248  14.500  0.00  0.00    +0.000 C 
ATOM     18  C   UNL     1       6.271   5.294  15.786  0.00  0.00    +0.000 A 
ATOM     19  C   UNL     1       5.001   4.753  16.120  0.00  0.00    +0.000 A 
ATOM     20  C   UNL     1       4.913   4.913  17.485  0.00  0.00    +0.000 A 
ATOM     21  O   UNL     1       6.004   5.614  17.910  0.00  0.00    +0.000 OA
ATOM     22  N   UNL     1       6.854   5.849  16.852  0.00  0.00    +0.000 NA
ENDBRANCH   1  20
TORSDOF 2
ENDMDL
MODEL 8
REMARK VINA RESULT:      -6.8      1.401      1.761
REMARK  Name = 
REMARK  4 active torsions:
REMARK  status: ('A' for Active; 'I' for Inactive)
REMARK    1  A    between atoms: C_1  and  C_2
REMARK    2  A    between atoms: C_4  and  C_5
REMARK    3  A    between atoms: C_6  and  C_7
REMARK    4  A    between atoms: N_19  and  C_20
REMARK                            x       y       z     vdW  Elec       q    Type
REMARK                         _______ _______ _______ _____ _____    ______ ____
ROOT
ATOM      1  C   UNL     1       3.958   4.731  19.483  0.00  0.00    +0.000 C 
ATOM      2  C   UNL     1       2.950   5.596  20.318  0.00  0.00    +0.000 C 
ATOM      3  C   UNL     1       1.709   4.684  20.625  0.00  0.00    +0.000 C 
ATOM      4  C   UNL     1       1.238   3.845  19.424  0.00  0.00    +0.000 C 
ATOM      5  C   UNL     1       1.055   4.604  18.106  0.00  0.00    +0.000 C 
ATOM      6  C   UNL     1       2.396   4.458  17.388  0.00  0.00    +0.000 C 
ATOM      7  C   UNL     1       3.315   3.792  18.410  0.00  0.00    +0.000 C 
ATOM      8  N   UNL     1       2.383   2.964  19.203  0.00  0.00    +0.000 NA
ATOM      9  C   UNL     1       2.031   1.654  18.712  0.00  0.00    +0.000 C 
ENDROOT
BRANCH   2  10
ATOM     10  C   UNL     1       2.425   6.956  19.853  0.00  0.00    +0.000 A 
ATOM     11  C   UNL     1       2.491   7.426  18.541  0.00  0.00    +0.000 A 
ATOM     12  C   UNL     1       1.665   8.482  18.131  0.00  0.00    +0.000 A 
ATOM     13  C   UNL     1       0.807   9.093  19.034  0.00  0.00    +0.000 A 
ATOM     14  I   UNL     1      -0.626  10.445  18.374  0.00  0.00    +0.000 I 
ATOM     15  C   UNL     1       0.861   8.758  20.380  0.00  0.00    +0.000 A 
ATOM     16  C   UNL     1       1.705   7.728  20.786  0.00  0.00    +0.000 A 
ENDBRANCH   2  10
BRANCH   1  20
ATOM     17  C   UNL     1       8.011   6.975  17.326  0.00  0.00    +0.000 C 
ATOM     18  C   UNL     1       7.065   6.233  18.190  0.00  0.00    +0.000 A 
ATOM     19  C   UNL     1       5.685   6.472  18.427  0.00  0.00    +0.000 A 
ATOM     20  C   UNL     1       5.269   5.370  19.140  0.00  0.00    +0.000 A 
ATOM     21  O   UNL     1       6.358   4.594  19.413  0.00  0.00    +0.000 OA
ATOM     22  N   UNL     1       7.479   5.130  18.818  0.00  0.00    +0.000 NA
ENDBRANCH   1  20
TORSDOF 2
ENDMDL
MODEL 9
REMARK VINA RESULT:      -6.8      5.282      8.664
REMARK  Name = 
REMARK  4 active torsions:
REMARK  status: ('A' for Active; 'I' for Inactive)
REMARK    1  A    between atoms: C_1  and  C_2
REMARK    2  A    between atoms: C_4  and  C_5
REMARK    3  A    between atoms: C_6  and  C_7
REMARK    4  A    between atoms: N_19  and  C_20
REMARK                            x       y       z     vdW  Elec       q    Type
REMARK                         _______ _______ _______ _____ _____    ______ ____
ROOT
ATOM      1  C   UNL     1      -1.364  11.521  19.253  0.00  0.00    +0.000 C 
ATOM      2  C   UNL     1      -0.699  10.540  20.281  0.00  0.00    +0.000 C 
ATOM      3  C   UNL     1      -0.348  11.384  21.558  0.00  0.00    +0.000 C 
ATOM      4  C   UNL     1       0.271  12.758  21.248  0.00  0.00    +0.000 C 
ATOM      5  C   UNL     1       1.431  12.761  20.247  0.00  0.00    +0.000 C 
ATOM      6  C   UNL     1       0.769  13.011  18.892  0.00  0.00    +0.000 C 
ATOM      7  C   UNL     1      -0.730  12.949  19.173  0.00  0.00    +0.000 C 
ATOM      8  N   UNL     1      -0.827  13.438  20.564  0.00  0.00    +0.000 NA
ATOM      9  C   UNL     1      -0.874  14.861  20.796  0.00  0.00    +0.000 C 
ENDROOT
BRANCH   2  10
ATOM     10  C   UNL     1       0.517   9.673  19.947  0.00  0.00    +0.000 A 
ATOM     11  C   UNL     1       1.114   8.771  20.828  0.00  0.00    +0.000 A 
ATOM     12  C   UNL     1       1.953   7.760  20.337  0.00  0.00    +0.000 A 
ATOM     13  C   UNL     1       2.228   7.675  18.979  0.00  0.00    +0.000 A 
ATOM     14  I   UNL     1       3.219   6.019  18.208  0.00  0.00    +0.000 I 
ATOM     15  C   UNL     1       1.788   8.670  18.117  0.00  0.00    +0.000 A 
ATOM     16  C   UNL     1       0.979   9.687  18.616  0.00  0.00    +0.000 A 
ENDBRANCH   2  10
BRANCH   1  20
ATOM     17  C   UNL     1      -3.547  10.421  14.765  0.00  0.00    +0.000 C 
ATOM     18  C   UNL     1      -2.898  10.399  16.095  0.00  0.00    +0.000 A 
ATOM     19  C   UNL     1      -1.970  11.313  16.660  0.00  0.00    +0.000 A 
ATOM     20  C   UNL     1      -1.865  10.918  17.975  0.00  0.00    +0.000 A 
ATOM     21  O   UNL     1      -2.586   9.772  18.143  0.00  0.00    +0.000 OA
ATOM     22  N   UNL     1      -3.235   9.448  16.971  0.00  0.00    +0.000 NA
ENDBRANCH   1  20
TORSDOF 2
ENDMDL
