MODEL 1
REMARK VINA RESULT:      -7.1      0.000      0.000
REMARK  Name = 
REMARK  7 active torsions:
REMARK  status: ('A' for Active; 'I' for Inactive)
REMARK    1  A    between atoms: C_1  and  C_2
REMARK    2  A    between atoms: C_2  and  O_3
REMARK    3  A    between atoms: O_3  and  C_4
REMARK    4  A    between atoms: C_4  and  C_6
REMARK    5  A    between atoms: C_6  and  C_7
REMARK    6  A    between atoms: C_7  and  C_8
REMARK    7  A    between atoms: C_19  and  C_21
REMARK                            x       y       z     vdW  Elec       q    Type
REMARK                         _______ _______ _______ _____ _____    ______ ____
ROOT
ATOM      1  C   UNL     1       5.543   4.520  17.439  0.00  0.00    +0.000 C 
ATOM      2  C   UNL     1       4.700   5.685  16.841  0.00  0.00    +0.000 C 
ATOM      3  C   UNL     1       3.302   5.803  17.450  0.00  0.00    +0.000 C 
ATOM      4  C   UNL     1       2.592   4.464  17.350  0.00  0.00    +0.000 C 
ATOM      5  N   UNL     1       3.353   3.469  18.089  0.00  0.00    +0.000 N 
ATOM      6  C   UNL     1       2.966   2.859  19.283  0.00  0.00    +0.000 C 
ATOM      7  O   UNL     1       3.604   1.950  19.802  0.00  0.00    +0.000 OA
ATOM      8  C   UNL     1       4.696   3.218  17.556  0.00  0.00    +0.000 C 
ENDROOT
BRANCH   6   9
ATOM      9  C   UNL     1       1.746   3.383  19.978  0.00  0.00    +0.000 C 
ATOM     10  C   UNL     1       1.498   3.105  21.443  0.00  0.00    +0.000 C 
ATOM     11  C   UNL     1       1.910   4.480  21.008  0.00  0.00    +0.000 C 
ENDBRANCH   6   9
BRANCH   1  12
ATOM     12  C   UNL     1       6.002   4.904  18.856  0.00  0.00    +0.000 C 
ATOM     13  O   UNL     1       5.268   5.301  19.749  0.00  0.00    +0.000 OA
BRANCH  12  14
ATOM     14  O   UNL     1       7.353   4.769  19.006  0.00  0.00    +0.000 OA
BRANCH  14  16
ATOM     15  C   UNL     1       8.034   7.024  18.467  0.00  0.00    +0.000 C 
ATOM     16  C   UNL     1       8.020   5.934  19.524  0.00  0.00    +0.000 C 
ENDBRANCH  14  16
ENDBRANCH  12  14
ENDBRANCH   1  12
BRANCH   1  17
ATOM     17  C   UNL     1       6.835   4.271  16.596  0.00  0.00    +0.000 C 
BRANCH  17  18
ATOM     18  C   UNL     1       6.670   4.322  15.085  0.00  0.00    +0.000 A 
ATOM     19  C   UNL     1       5.753   3.482  14.434  0.00  0.00    +0.000 A 
ATOM     20  C   UNL     1       5.667   3.458  13.039  0.00  0.00    +0.000 A 
ATOM     21  C   UNL     1       6.483   4.289  12.276  0.00  0.00    +0.000 A 
ATOM     22  C   UNL     1       7.366   5.159  12.914  0.00  0.00    +0.000 A 
ATOM     23 CL   UNL     1       8.371   6.192  11.973  0.00  0.00    +0.000 Cl
ATOM     24  C   UNL     1       7.456   5.185  14.308  0.00  0.00    +0.000 A 
ENDBRANCH  17  18
ENDBRANCH   1  17
TORSDOF 6
ENDMDL
MODEL 2
REMARK VINA RESULT:      -6.7      3.140      6.315
REMARK  Name = 
REMARK  7 active torsions:
REMARK  status: ('A' for Active; 'I' for Inactive)
REMARK    1  A    between atoms: C_1  and  C_2
REMARK    2  A    between atoms: C_2  and  O_3
REMARK    3  A    between atoms: O_3  and  C_4
REMARK    4  A    between atoms: C_4  and  C_6
REMARK    5  A    between atoms: C_6  and  C_7
REMARK    6  A    between atoms: C_7  and  C_8
REMARK    7  A    between atoms: C_19  and  C_21
REMARK                            x       y       z     vdW  Elec       q    Type
REMARK                         _______ _______ _______ _____ _____    ______ ____
ROOT
ATOM      1  C   UNL     1       5.430   4.404  16.958  0.00  0.00    +0.000 C 
ATOM      2  C   UNL     1       4.517   5.296  16.065  0.00  0.00    +0.000 C 
ATOM      3  C   UNL     1       5.044   6.720  15.881  0.00  0.00    +0.000 C 
ATOM      4  C   UNL     1       5.309   7.341  17.242  0.00  0.00    +0.000 C 
ATOM      5  N   UNL     1       6.309   6.547  17.937  0.00  0.00    +0.000 N 
ATOM      6  C   UNL     1       7.619   6.938  18.219  0.00  0.00    +0.000 C 
ATOM      7  O   UNL     1       8.381   6.264  18.902  0.00  0.00    +0.000 OA
ATOM      8  C   UNL     1       5.890   5.173  18.232  0.00  0.00    +0.000 C 
ENDROOT
BRANCH   6   9
ATOM      9  C   UNL     1       8.119   8.212  17.610  0.00  0.00    +0.000 C 
ATOM     10  C   UNL     1       7.426   9.531  17.869  0.00  0.00    +0.000 C 
ATOM     11  C   UNL     1       8.752   9.250  18.512  0.00  0.00    +0.000 C 
ENDBRANCH   6   9
BRANCH   1  12
ATOM     12  C   UNL     1       6.692   4.022  16.165  0.00  0.00    +0.000 C 
ATOM     13  O   UNL     1       7.840   4.158  16.563  0.00  0.00    +0.000 OA
BRANCH  12  14
ATOM     14  O   UNL     1       6.384   3.521  14.932  0.00  0.00    +0.000 OA
BRANCH  14  16
ATOM     15  C   UNL     1       6.404   3.684  12.521  0.00  0.00    +0.000 C 
ATOM     16  C   UNL     1       6.870   4.304  13.827  0.00  0.00    +0.000 C 
ENDBRANCH  14  16
ENDBRANCH  12  14
ENDBRANCH   1  12
BRANCH   1  17
ATOM     17  C   UNL     1       4.712   3.070  17.340  0.00  0.00    +0.000 C 
BRANCH  17  18
ATOM     18  C   UNL     1       3.428   3.205  18.143  0.00  0.00    +0.000 A 
ATOM     19  C   UNL     1       2.236   3.620  17.527  0.00  0.00    +0.000 A 
ATOM     20  C   UNL     1       1.079   3.838  18.278  0.00  0.00    +0.000 A 
ATOM     21  C   UNL     1       1.090   3.626  19.654  0.00  0.00    +0.000 A 
ATOM     22  C   UNL     1       2.256   3.172  20.269  0.00  0.00    +0.000 A 
ATOM     23 CL   UNL     1       2.271   2.903  21.969  0.00  0.00    +0.000 Cl
ATOM     24  C   UNL     1       3.416   2.954  19.522  0.00  0.00    +0.000 A 
ENDBRANCH  17  18
ENDBRANCH   1  17
TORSDOF 6
ENDMDL
MODEL 3
REMARK VINA RESULT:      -6.6      1.035      1.425
REMARK  Name = 
REMARK  7 active torsions:
REMARK  status: ('A' for Active; 'I' for Inactive)
REMARK    1  A    between atoms: C_1  and  C_2
REMARK    2  A    between atoms: C_2  and  O_3
REMARK    3  A    between atoms: O_3  and  C_4
REMARK    4  A    between atoms: C_4  and  C_6
REMARK    5  A    between atoms: C_6  and  C_7
REMARK    6  A    between atoms: C_7  and  C_8
REMARK    7  A    between atoms: C_19  and  C_21
REMARK                            x       y       z     vdW  Elec       q    Type
REMARK                         _______ _______ _______ _____ _____    ______ ____
ROOT
ATOM      1  C   UNL     1       5.701   4.509  17.378  0.00  0.00    +0.000 C 
ATOM      2  C   UNL     1       4.927   5.679  16.703  0.00  0.00    +0.000 C 
ATOM      3  C   UNL     1       3.516   5.881  17.256  0.00  0.00    +0.000 C 
ATOM      4  C   UNL     1       2.754   4.568  17.189  0.00  0.00    +0.000 C 
ATOM      5  N   UNL     1       3.448   3.577  17.996  0.00  0.00    +0.000 N 
ATOM      6  C   UNL     1       2.996   3.037  19.201  0.00  0.00    +0.000 C 
ATOM      7  O   UNL     1       3.578   2.126  19.780  0.00  0.00    +0.000 OA
ATOM      8  C   UNL     1       4.796   3.249  17.521  0.00  0.00    +0.000 C 
ENDROOT
BRANCH   6   9
ATOM      9  C   UNL     1       1.777   3.639  19.830  0.00  0.00    +0.000 C 
ATOM     10  C   UNL     1       1.427   3.371  21.276  0.00  0.00    +0.000 C 
ATOM     11  C   UNL     1       1.956   4.717  20.877  0.00  0.00    +0.000 C 
ENDBRANCH   6   9
BRANCH   1  12
ATOM     12  C   UNL     1       6.128   4.937  18.793  0.00  0.00    +0.000 C 
ATOM     13  O   UNL     1       5.368   5.320  19.671  0.00  0.00    +0.000 OA
BRANCH  12  14
ATOM     14  O   UNL     1       7.481   4.859  18.960  0.00  0.00    +0.000 OA
BRANCH  14  16
ATOM     15  C   UNL     1       8.007   7.135  18.343  0.00  0.00    +0.000 C 
ATOM     16  C   UNL     1       8.101   6.072  19.423  0.00  0.00    +0.000 C 
ENDBRANCH  14  16
ENDBRANCH  12  14
ENDBRANCH   1  12
BRANCH   1  17
ATOM     17  C   UNL     1       7.008   4.171  16.592  0.00  0.00    +0.000 C 
BRANCH  17  18
ATOM     18  C   UNL     1       6.940   4.321  15.081  0.00  0.00    +0.000 A 
ATOM     19  C   UNL     1       7.830   5.169  14.402  0.00  0.00    +0.000 A 
ATOM     20  C   UNL     1       7.709   5.384  13.027  0.00  0.00    +0.000 A 
ATOM     21  C   UNL     1       6.708   4.737  12.306  0.00  0.00    +0.000 A 
ATOM     22  C   UNL     1       5.846   3.860  12.963  0.00  0.00    +0.000 A 
ATOM     23 CL   UNL     1       4.613   3.055  12.073  0.00  0.00    +0.000 Cl
ATOM     24  C   UNL     1       5.963   3.643  14.337  0.00  0.00    +0.000 A 
ENDBRANCH  17  18
ENDBRANCH   1  17
TORSDOF 6
ENDMDL
MODEL 4
REMARK VINA RESULT:      -6.5      1.419      2.063
REMARK  Name = 
REMARK  7 active torsions:
REMARK  status: ('A' for Active; 'I' for Inactive)
REMARK    1  A    between atoms: C_1  and  C_2
REMARK    2  A    between atoms: C_2  and  O_3
REMARK    3  A    between atoms: O_3  and  C_4
REMARK    4  A    between atoms: C_4  and  C_6
REMARK    5  A    between atoms: C_6  and  C_7
REMARK    6  A    between atoms: C_7  and  C_8
REMARK    7  A    between atoms: C_19  and  C_21
REMARK                            x       y       z     vdW  Elec       q    Type
REMARK                         _______ _______ _______ _____ _____    ______ ____
ROOT
ATOM      1  C   UNL     1       4.983   4.265  17.598  0.00  0.00    +0.000 C 
ATOM      2  C   UNL     1       3.893   4.224  16.487  0.00  0.00    +0.000 C 
ATOM      3  C   UNL     1       2.535   3.722  16.979  0.00  0.00    +0.000 C 
ATOM      4  C   UNL     1       2.712   2.379  17.668  0.00  0.00    +0.000 C 
ATOM      5  N   UNL     1       3.603   2.545  18.805  0.00  0.00    +0.000 N 
ATOM      6  C   UNL     1       3.241   2.462  20.151  0.00  0.00    +0.000 C 
ATOM      7  O   UNL     1       4.059   2.506  21.062  0.00  0.00    +0.000 OA
ATOM      8  C   UNL     1       4.963   2.962  18.450  0.00  0.00    +0.000 C 
ENDROOT
BRANCH   6   9
ATOM      9  C   UNL     1       1.783   2.370  20.483  0.00  0.00    +0.000 C 
ATOM     10  C   UNL     1       1.255   2.816  21.828  0.00  0.00    +0.000 C 
ATOM     11  C   UNL     1       0.983   3.649  20.611  0.00  0.00    +0.000 C 
ENDBRANCH   6   9
BRANCH   1  12
ATOM     12  C   UNL     1       4.694   5.443  18.544  0.00  0.00    +0.000 C 
ATOM     13  O   UNL     1       4.990   5.482  19.730  0.00  0.00    +0.000 OA
BRANCH  12  14
ATOM     14  O   UNL     1       4.038   6.457  17.906  0.00  0.00    +0.000 OA
BRANCH  14  16
ATOM     15  C   UNL     1       2.444   8.273  17.966  0.00  0.00    +0.000 C 
ATOM     16  C   UNL     1       2.901   6.979  18.617  0.00  0.00    +0.000 C 
ENDBRANCH  14  16
ENDBRANCH  12  14
ENDBRANCH   1  12
BRANCH   1  17
ATOM     17  C   UNL     1       6.400   4.510  16.987  0.00  0.00    +0.000 C 
BRANCH  17  18
ATOM     18  C   UNL     1       6.498   4.443  15.472  0.00  0.00    +0.000 A 
ATOM     19  C   UNL     1       5.702   3.546  14.740  0.00  0.00    +0.000 A 
ATOM     20  C   UNL     1       5.857   3.412  13.358  0.00  0.00    +0.000 A 
ATOM     21  C   UNL     1       6.797   4.189  12.683  0.00  0.00    +0.000 A 
ATOM     22  C   UNL     1       7.561   5.113  13.394  0.00  0.00    +0.000 A 
ATOM     23 CL   UNL     1       8.718   6.078  12.561  0.00  0.00    +0.000 Cl
ATOM     24  C   UNL     1       7.410   5.248  14.775  0.00  0.00    +0.000 A 
ENDBRANCH  17  18
ENDBRANCH   1  17
TORSDOF 6
ENDMDL
MODEL 5
REMARK VINA RESULT:      -6.4      2.456      3.835
REMARK  Name = 
REMARK  7 active torsions:
REMARK  status: ('A' for Active; 'I' for Inactive)
REMARK    1  A    between atoms: C_1  and  C_2
REMARK    2  A    between atoms: C_2  and  O_3
REMARK    3  A    between atoms: O_3  and  C_4
REMARK    4  A    between atoms: C_4  and  C_6
REMARK    5  A    between atoms: C_6  and  C_7
REMARK    6  A    between atoms: C_7  and  C_8
REMARK    7  A    between atoms: C_19  and  C_21
REMARK                            x       y       z     vdW  Elec       q    Type
REMARK                         _______ _______ _______ _____ _____    ______ ____
ROOT
ATOM      1  C   UNL     1       4.577   4.309  17.459  0.00  0.00    +0.000 C 
ATOM      2  C   UNL     1       3.438   4.076  16.422  0.00  0.00    +0.000 C 
ATOM      3  C   UNL     1       2.183   3.442  17.024  0.00  0.00    +0.000 C 
ATOM      4  C   UNL     1       2.563   2.169  17.762  0.00  0.00    +0.000 C 
ATOM      5  N   UNL     1       3.491   2.503  18.831  0.00  0.00    +0.000 N 
ATOM      6  C   UNL     1       3.219   2.451  20.199  0.00  0.00    +0.000 C 
ATOM      7  O   UNL     1       4.077   2.642  21.054  0.00  0.00    +0.000 OA
ATOM      8  C   UNL     1       4.766   3.061  18.371  0.00  0.00    +0.000 C 
ENDROOT
BRANCH   6   9
ATOM      9  C   UNL     1       1.806   2.202  20.628  0.00  0.00    +0.000 C 
ATOM     10  C   UNL     1       1.295   2.685  21.967  0.00  0.00    +0.000 C 
ATOM     11  C   UNL     1       0.853   3.375  20.711  0.00  0.00    +0.000 C 
ENDBRANCH   6   9
BRANCH   1  12
ATOM     12  C   UNL     1       4.199   5.493  18.365  0.00  0.00    +0.000 C 
ATOM     13  O   UNL     1       4.364   5.533  19.576  0.00  0.00    +0.000 OA
BRANCH  12  14
ATOM     14  O   UNL     1       3.628   6.512  17.657  0.00  0.00    +0.000 OA
BRANCH  14  16
ATOM     15  C   UNL     1       2.301   8.529  17.763  0.00  0.00    +0.000 C 
ATOM     16  C   UNL     1       2.484   7.116  18.288  0.00  0.00    +0.000 C 
ENDBRANCH  14  16
ENDBRANCH  12  14
ENDBRANCH   1  12
BRANCH   1  17
ATOM     17  C   UNL     1       5.915   4.689  16.748  0.00  0.00    +0.000 C 
BRANCH  17  18
ATOM     18  C   UNL     1       6.864   5.577  17.537  0.00  0.00    +0.000 A 
ATOM     19  C   UNL     1       7.570   5.072  18.641  0.00  0.00    +0.000 A 
ATOM     20  C   UNL     1       8.367   5.908  19.427  0.00  0.00    +0.000 A 
ATOM     21  C   UNL     1       8.488   7.259  19.108  0.00  0.00    +0.000 A 
ATOM     22  C   UNL     1       7.826   7.761  17.988  0.00  0.00    +0.000 A 
ATOM     23 CL   UNL     1       7.978   9.428  17.588  0.00  0.00    +0.000 Cl
ATOM     24  C   UNL     1       7.026   6.929  17.202  0.00  0.00    +0.000 A 
ENDBRANCH  17  18
ENDBRANCH   1  17
TORSDOF 6
ENDMDL
MODEL 6
REMARK VINA RESULT:      -6.4      4.002      6.286
REMARK  Name = 
REMARK  7 active torsions:
REMARK  status: ('A' for Active; 'I' for Inactive)
REMARK    1  A    between atoms: C_1  and  C_2
REMARK    2  A    between atoms: C_2  and  O_3
REMARK    3  A    between atoms: O_3  and  C_4
REMARK    4  A    between atoms: C_4  and  C_6
REMARK    5  A    between atoms: C_6  and  C_7
REMARK    6  A    between atoms: C_7  and  C_8
REMARK    7  A    between atoms: C_19  and  C_21
REMARK                            x       y       z     vdW  Elec       q    Type
REMARK                         _______ _______ _______ _____ _____    ______ ____
ROOT
ATOM      1  C   UNL     1       2.717   6.778  18.591  0.00  0.00    +0.000 C 
ATOM      2  C   UNL     1       2.355   6.776  20.106  0.00  0.00    +0.000 C 
ATOM      3  C   UNL     1       2.228   5.374  20.704  0.00  0.00    +0.000 C 
ATOM      4  C   UNL     1       1.252   4.557  19.873  0.00  0.00    +0.000 C 
ATOM      5  N   UNL     1       1.759   4.455  18.514  0.00  0.00    +0.000 N 
ATOM      6  C   UNL     1       2.249   3.298  17.905  0.00  0.00    +0.000 C 
ATOM      7  O   UNL     1       2.563   3.252  16.721  0.00  0.00    +0.000 OA
ATOM      8  C   UNL     1       1.862   5.737  17.810  0.00  0.00    +0.000 C 
ENDROOT
BRANCH   6   9
ATOM      9  C   UNL     1       2.444   2.082  18.758  0.00  0.00    +0.000 C 
ATOM     10  C   UNL     1       3.599   1.136  18.523  0.00  0.00    +0.000 C 
ATOM     11  C   UNL     1       3.616   2.045  19.716  0.00  0.00    +0.000 C 
ENDBRANCH   6   9
BRANCH   1  12
ATOM     12  C   UNL     1       4.195   6.384  18.426  0.00  0.00    +0.000 C 
ATOM     13  O   UNL     1       4.779   5.547  19.098  0.00  0.00    +0.000 OA
BRANCH  12  14
ATOM     14  O   UNL     1       4.804   7.102  17.436  0.00  0.00    +0.000 OA
BRANCH  14  16
ATOM     15  C   UNL     1       7.205   7.369  17.403  0.00  0.00    +0.000 C 
ATOM     16  C   UNL     1       6.027   6.528  16.942  0.00  0.00    +0.000 C 
ENDBRANCH  14  16
ENDBRANCH  12  14
ENDBRANCH   1  12
BRANCH   1  17
ATOM     17  C   UNL     1       2.557   8.206  17.976  0.00  0.00    +0.000 C 
BRANCH  17  18
ATOM     18  C   UNL     1       1.364   9.014  18.461  0.00  0.00    +0.000 A 
ATOM     19  C   UNL     1       1.261   9.406  19.806  0.00  0.00    +0.000 A 
ATOM     20  C   UNL     1       0.122  10.065  20.275  0.00  0.00    +0.000 A 
ATOM     21  C   UNL     1      -0.922  10.362  19.403  0.00  0.00    +0.000 A 
ATOM     22  C   UNL     1      -0.811  10.016  18.056  0.00  0.00    +0.000 A 
ATOM     23 CL   UNL     1      -2.097  10.386  16.975  0.00  0.00    +0.000 Cl
ATOM     24  C   UNL     1       0.325   9.355  17.583  0.00  0.00    +0.000 A 
ENDBRANCH  17  18
ENDBRANCH   1  17
TORSDOF 6
ENDMDL
MODEL 7
REMARK VINA RESULT:      -6.4      4.248      6.557
REMARK  Name = 
REMARK  7 active torsions:
REMARK  status: ('A' for Active; 'I' for Inactive)
REMARK    1  A    between atoms: C_1  and  C_2
REMARK    2  A    between atoms: C_2  and  O_3
REMARK    3  A    between atoms: O_3  and  C_4
REMARK    4  A    between atoms: C_4  and  C_6
REMARK    5  A    between atoms: C_6  and  C_7
REMARK    6  A    between atoms: C_7  and  C_8
REMARK    7  A    between atoms: C_19  and  C_21
REMARK                            x       y       z     vdW  Elec       q    Type
REMARK                         _______ _______ _______ _____ _____    ______ ____
ROOT
ATOM      1  C   UNL     1       2.638   6.784  18.671  0.00  0.00    +0.000 C 
ATOM      2  C   UNL     1       2.317   6.729  20.194  0.00  0.00    +0.000 C 
ATOM      3  C   UNL     1       2.237   5.307  20.752  0.00  0.00    +0.000 C 
ATOM      4  C   UNL     1       1.257   4.493  19.924  0.00  0.00    +0.000 C 
ATOM      5  N   UNL     1       1.729   4.442  18.550  0.00  0.00    +0.000 N 
ATOM      6  C   UNL     1       2.226   3.315  17.893  0.00  0.00    +0.000 C 
ATOM      7  O   UNL     1       2.509   3.312  16.700  0.00  0.00    +0.000 OA
ATOM      8  C   UNL     1       1.785   5.747  17.882  0.00  0.00    +0.000 C 
ENDROOT
BRANCH   6   9
ATOM      9  C   UNL     1       2.471   2.079  18.703  0.00  0.00    +0.000 C 
ATOM     10  C   UNL     1       3.631   1.159  18.399  0.00  0.00    +0.000 C 
ATOM     11  C   UNL     1       3.678   2.035  19.616  0.00  0.00    +0.000 C 
ENDBRANCH   6   9
BRANCH   1  12
ATOM     12  C   UNL     1       4.119   6.427  18.454  0.00  0.00    +0.000 C 
ATOM     13  O   UNL     1       4.766   5.659  19.150  0.00  0.00    +0.000 OA
BRANCH  12  14
ATOM     14  O   UNL     1       4.649   7.094  17.386  0.00  0.00    +0.000 OA
BRANCH  14  16
ATOM     15  C   UNL     1       5.372   5.676  15.569  0.00  0.00    +0.000 C 
ATOM     16  C   UNL     1       5.799   6.464  16.794  0.00  0.00    +0.000 C 
ENDBRANCH  14  16
ENDBRANCH  12  14
ENDBRANCH   1  12
BRANCH   1  17
ATOM     17  C   UNL     1       2.430   8.225  18.104  0.00  0.00    +0.000 C 
BRANCH  17  18
ATOM     18  C   UNL     1       1.238   8.995  18.650  0.00  0.00    +0.000 A 
ATOM     19  C   UNL     1       0.251   9.499  17.788  0.00  0.00    +0.000 A 
ATOM     20  C   UNL     1      -0.793  10.288  18.276  0.00  0.00    +0.000 A 
ATOM     21  C   UNL     1      -0.878  10.569  19.638  0.00  0.00    +0.000 A 
ATOM     22  C   UNL     1       0.072  10.037  20.509  0.00  0.00    +0.000 A 
ATOM     23 CL   UNL     1      -0.034  10.376  22.192  0.00  0.00    +0.000 Cl
ATOM     24  C   UNL     1       1.118   9.248  20.024  0.00  0.00    +0.000 A 
ENDBRANCH  17  18
ENDBRANCH   1  17
TORSDOF 6
ENDMDL
MODEL 8
REMARK VINA RESULT:      -6.3      1.428      1.695
REMARK  Name = 
REMARK  7 active torsions:
REMARK  status: ('A' for Active; 'I' for Inactive)
REMARK    1  A    between atoms: C_1  and  C_2
REMARK    2  A    between atoms: C_2  and  O_3
REMARK    3  A    between atoms: O_3  and  C_4
REMARK    4  A    between atoms: C_4  and  C_6
REMARK    5  A    between atoms: C_6  and  C_7
REMARK    6  A    between atoms: C_7  and  C_8
REMARK    7  A    between atoms: C_19  and  C_21
REMARK                            x       y       z     vdW  Elec       q    Type
REMARK                         _______ _______ _______ _____ _____    ______ ____
ROOT
ATOM      1  C   UNL     1       5.996   5.103  16.707  0.00  0.00    +0.000 C 
ATOM      2  C   UNL     1       5.132   6.379  16.478  0.00  0.00    +0.000 C 
ATOM      3  C   UNL     1       3.977   6.523  17.471  0.00  0.00    +0.000 C 
ATOM      4  C   UNL     1       3.145   5.251  17.467  0.00  0.00    +0.000 C 
ATOM      5  N   UNL     1       3.986   4.135  17.869  0.00  0.00    +0.000 N 
ATOM      6  C   UNL     1       3.893   3.427  19.068  0.00  0.00    +0.000 C 
ATOM      7  O   UNL     1       4.562   2.427  19.302  0.00  0.00    +0.000 OA
ATOM      8  C   UNL     1       5.097   3.855  16.952  0.00  0.00    +0.000 C 
ENDROOT
BRANCH   6   9
ATOM      9  C   UNL     1       2.971   3.951  20.125  0.00  0.00    +0.000 C 
ATOM     10  C   UNL     1       1.508   3.569  20.151  0.00  0.00    +0.000 C 
ATOM     11  C   UNL     1       2.444   2.993  21.172  0.00  0.00    +0.000 C 
ENDBRANCH   6   9
BRANCH   1  12
ATOM     12  C   UNL     1       6.866   5.302  17.960  0.00  0.00    +0.000 C 
ATOM     13  O   UNL     1       7.500   4.421  18.522  0.00  0.00    +0.000 OA
BRANCH  12  14
ATOM     14  O   UNL     1       6.836   6.595  18.399  0.00  0.00    +0.000 OA
BRANCH  14  16
ATOM     15  C   UNL     1       7.993   8.618  17.762  0.00  0.00    +0.000 C 
ATOM     16  C   UNL     1       8.115   7.254  18.417  0.00  0.00    +0.000 C 
ENDBRANCH  14  16
ENDBRANCH  12  14
ENDBRANCH   1  12
BRANCH   1  17
ATOM     17  C   UNL     1       6.971   4.862  15.510  0.00  0.00    +0.000 C 
BRANCH  17  18
ATOM     18  C   UNL     1       6.346   4.319  14.235  0.00  0.00    +0.000 A 
ATOM     19  C   UNL     1       4.965   4.437  14.005  0.00  0.00    +0.000 A 
ATOM     20  C   UNL     1       4.373   3.856  12.882  0.00  0.00    +0.000 A 
ATOM     21  C   UNL     1       5.155   3.165  11.959  0.00  0.00    +0.000 A 
ATOM     22  C   UNL     1       6.533   3.079  12.156  0.00  0.00    +0.000 A 
ATOM     23 CL   UNL     1       7.503   2.232  11.015  0.00  0.00    +0.000 Cl
ATOM     24  C   UNL     1       7.129   3.658  13.279  0.00  0.00    +0.000 A 
ENDBRANCH  17  18
ENDBRANCH   1  17
TORSDOF 6
ENDMDL
MODEL 9
REMARK VINA RESULT:      -6.2      1.641      2.068
REMARK  Name = 
REMARK  7 active torsions:
REMARK  status: ('A' for Active; 'I' for Inactive)
REMARK    1  A    between atoms: C_1  and  C_2
REMARK    2  A    between atoms: C_2  and  O_3
REMARK    3  A    between atoms: O_3  and  C_4
REMARK    4  A    between atoms: C_4  and  C_6
REMARK    5  A    between atoms: C_6  and  C_7
REMARK    6  A    between atoms: C_7  and  C_8
REMARK    7  A    between atoms: C_19  and  C_21
REMARK                            x       y       z     vdW  Elec       q    Type
REMARK                         _______ _______ _______ _____ _____    ______ ____
ROOT
ATOM      1  C   UNL     1       5.179   4.714  16.937  0.00  0.00    +0.000 C 
ATOM      2  C   UNL     1       5.459   6.079  16.242  0.00  0.00    +0.000 C 
ATOM      3  C   UNL     1       4.858   7.277  16.981  0.00  0.00    +0.000 C 
ATOM      4  C   UNL     1       3.375   7.037  17.211  0.00  0.00    +0.000 C 
ATOM      5  N   UNL     1       3.211   5.842  18.023  0.00  0.00    +0.000 N 
ATOM      6  C   UNL     1       2.766   5.802  19.345  0.00  0.00    +0.000 C 
ATOM      7  O   UNL     1       2.547   4.754  19.941  0.00  0.00    +0.000 OA
ATOM      8  C   UNL     1       3.692   4.610  17.388  0.00  0.00    +0.000 C 
ENDROOT
BRANCH   6   9
ATOM      9  C   UNL     1       2.605   7.102  20.073  0.00  0.00    +0.000 C 
ATOM     10  C   UNL     1       1.590   8.130  19.626  0.00  0.00    +0.000 C 
ATOM     11  C   UNL     1       1.341   7.335  20.873  0.00  0.00    +0.000 C 
ENDBRANCH   6   9
BRANCH   1  12
ATOM     12  C   UNL     1       6.055   4.600  18.197  0.00  0.00    +0.000 C 
ATOM     13  O   UNL     1       5.683   4.160  19.275  0.00  0.00    +0.000 OA
BRANCH  12  14
ATOM     14  O   UNL     1       7.318   5.074  17.981  0.00  0.00    +0.000 OA
BRANCH  14  16
ATOM     15  C   UNL     1       8.135   7.298  18.454  0.00  0.00    +0.000 C 
ATOM     16  C   UNL     1       7.828   5.924  19.023  0.00  0.00    +0.000 C 
ENDBRANCH  14  16
ENDBRANCH  12  14
ENDBRANCH   1  12
BRANCH   1  17
ATOM     17  C   UNL     1       5.564   3.519  16.006  0.00  0.00    +0.000 C 
BRANCH  17  18
ATOM     18  C   UNL     1       6.032   3.884  14.607  0.00  0.00    +0.000 A 
ATOM     19  C   UNL     1       5.396   3.350  13.474  0.00  0.00    +0.000 A 
ATOM     20  C   UNL     1       5.883   3.606  12.190  0.00  0.00    +0.000 A 
ATOM     21  C   UNL     1       7.001   4.418  12.017  0.00  0.00    +0.000 A 
ATOM     22  C   UNL     1       7.614   4.989  13.132  0.00  0.00    +0.000 A 
ATOM     23 CL   UNL     1       8.992   5.997  12.921  0.00  0.00    +0.000 Cl
ATOM     24  C   UNL     1       7.132   4.734  14.417  0.00  0.00    +0.000 A 
ENDBRANCH  17  18
ENDBRANCH   1  17
TORSDOF 6
ENDMDL
