MODEL 1
REMARK VINA RESULT:      -7.6      0.000      0.000
REMARK  Name = 
REMARK  3 active torsions:
REMARK  status: ('A' for Active; 'I' for Inactive)
REMARK    1  A    between atoms: C_1  and  O_2
REMARK    2  A    between atoms: O_2  and  C_3
REMARK    3  A    between atoms: C_6  and  C_7
REMARK                            x       y       z     vdW  Elec       q    Type
REMARK                         _______ _______ _______ _____ _____    ______ ____
ROOT
ATOM      1  C   UNL     1       2.540   6.570  17.583  0.00  0.00    +0.000 C 
ATOM      2  S   UNL     1       2.684   8.320  18.237  0.00  0.00    +0.000 S 
ATOM      3  C   UNL     1       1.617   8.447  19.679  0.00  0.00    +0.000 A 
ATOM      4  C   UNL     1       1.020   9.720  19.782  0.00  0.00    +0.000 A 
ATOM      5  C   UNL     1       0.103  10.019  20.784  0.00  0.00    +0.000 A 
ATOM      6  C   UNL     1      -0.246   9.040  21.702  0.00  0.00    +0.000 A 
ATOM      7  C   UNL     1       0.402   7.800  21.677  0.00  0.00    +0.000 A 
ATOM      8  C   UNL     1       1.381   7.497  20.704  0.00  0.00    +0.000 A 
ATOM      9  N   UNL     1       2.136   6.290  20.874  0.00  0.00    +0.000 N 
ATOM     10  C   UNL     1       2.527   5.531  19.798  0.00  0.00    +0.000 C 
ATOM     11  C   UNL     1       1.942   5.650  18.597  0.00  0.00    +0.000 C 
ATOM     12  C   UNL     1       1.483   4.293  18.231  0.00  0.00    +0.000 C 
ATOM     13  O   UNL     1       0.671   4.009  17.376  0.00  0.00    +0.000 OA
ATOM     14  C   UNL     1       2.244   3.359  19.060  0.00  0.00    +0.000 A 
ATOM     15  C   UNL     1       2.554   2.063  18.693  0.00  0.00    +0.000 A 
ATOM     16  C   UNL     1       3.832   1.618  19.012  0.00  0.00    +0.000 A 
ATOM     17  C   UNL     1       4.730   2.471  19.680  0.00  0.00    +0.000 A 
ATOM     18  C   UNL     1       4.323   3.735  20.146  0.00  0.00    +0.000 A 
ATOM     19  C   UNL     1       3.025   4.157  19.881  0.00  0.00    +0.000 A 
ATOM     20  H   UNL     1       1.775   5.712  21.631  0.00  0.00    +0.000 HD
ENDROOT
BRANCH   1  24
ATOM     21  C   UNL     1       6.469   5.299  16.085  0.00  0.00    +0.000 A 
ATOM     22  C   UNL     1       5.360   4.473  15.929  0.00  0.00    +0.000 A 
ATOM     23  C   UNL     1       4.106   4.870  16.399  0.00  0.00    +0.000 A 
ATOM     24  C   UNL     1       3.924   6.080  17.103  0.00  0.00    +0.000 A 
ATOM     25  C   UNL     1       5.073   6.907  17.247  0.00  0.00    +0.000 A 
ATOM     26  C   UNL     1       6.323   6.522  16.747  0.00  0.00    +0.000 A 
BRANCH  21  28
ATOM     27  C   UNL     1       7.768   4.788  14.171  0.00  0.00    +0.000 C 
ATOM     28  O   UNL     1       7.632   4.785  15.586  0.00  0.00    +0.000 OA
ENDBRANCH  21  28
ENDBRANCH   1  24
TORSDOF 2
ENDMDL
MODEL 2
REMARK VINA RESULT:      -6.9      0.801      1.308
REMARK  Name = 
REMARK  3 active torsions:
REMARK  status: ('A' for Active; 'I' for Inactive)
REMARK    1  A    between atoms: C_1  and  O_2
REMARK    2  A    between atoms: O_2  and  C_3
REMARK    3  A    between atoms: C_6  and  C_7
REMARK                            x       y       z     vdW  Elec       q    Type
REMARK                         _______ _______ _______ _____ _____    ______ ____
ROOT
ATOM      1  C   UNL     1       2.703   6.622  17.612  0.00  0.00    +0.000 C 
ATOM      2  S   UNL     1       2.859   8.380  18.241  0.00  0.00    +0.000 S 
ATOM      3  C   UNL     1       1.614   8.610  19.517  0.00  0.00    +0.000 A 
ATOM      4  C   UNL     1       1.084   9.917  19.507  0.00  0.00    +0.000 A 
ATOM      5  C   UNL     1       0.058  10.297  20.365  0.00  0.00    +0.000 A 
ATOM      6  C   UNL     1      -0.472   9.367  21.247  0.00  0.00    +0.000 A 
ATOM      7  C   UNL     1       0.099   8.093  21.340  0.00  0.00    +0.000 A 
ATOM      8  C   UNL     1       1.183   7.706  20.520  0.00  0.00    +0.000 A 
ATOM      9  N   UNL     1       1.834   6.466  20.821  0.00  0.00    +0.000 N 
ATOM     10  C   UNL     1       2.324   5.653  19.827  0.00  0.00    +0.000 C 
ATOM     11  C   UNL     1       1.918   5.767  18.554  0.00  0.00    +0.000 C 
ATOM     12  C   UNL     1       1.434   4.428  18.158  0.00  0.00    +0.000 C 
ATOM     13  O   UNL     1       0.732   4.163  17.205  0.00  0.00    +0.000 OA
ATOM     14  C   UNL     1       2.018   3.479  19.107  0.00  0.00    +0.000 A 
ATOM     15  C   UNL     1       2.298   2.157  18.815  0.00  0.00    +0.000 A 
ATOM     16  C   UNL     1       3.492   1.652  19.319  0.00  0.00    +0.000 A 
ATOM     17  C   UNL     1       4.338   2.474  20.086  0.00  0.00    +0.000 A 
ATOM     18  C   UNL     1       3.945   3.772  20.462  0.00  0.00    +0.000 A 
ATOM     19  C   UNL     1       2.724   4.257  20.010  0.00  0.00    +0.000 A 
ATOM     20  H   UNL     1       1.339   5.932  21.533  0.00  0.00    +0.000 HD
ENDROOT
BRANCH   1  24
ATOM     21  C   UNL     1       6.664   4.838  16.957  0.00  0.00    +0.000 A 
ATOM     22  C   UNL     1       6.543   6.034  17.658  0.00  0.00    +0.000 A 
ATOM     23  C   UNL     1       5.287   6.608  17.874  0.00  0.00    +0.000 A 
ATOM     24  C   UNL     1       4.109   6.041  17.341  0.00  0.00    +0.000 A 
ATOM     25  C   UNL     1       4.260   4.818  16.631  0.00  0.00    +0.000 A 
ATOM     26  C   UNL     1       5.517   4.227  16.443  0.00  0.00    +0.000 A 
BRANCH  21  28
ATOM     27  C   UNL     1       8.703   4.248  18.009  0.00  0.00    +0.000 C 
ATOM     28  O   UNL     1       7.948   4.395  16.814  0.00  0.00    +0.000 OA
ENDBRANCH  21  28
ENDBRANCH   1  24
TORSDOF 2
ENDMDL
MODEL 3
REMARK VINA RESULT:      -6.6      2.313      6.324
REMARK  Name = 
REMARK  3 active torsions:
REMARK  status: ('A' for Active; 'I' for Inactive)
REMARK    1  A    between atoms: C_1  and  O_2
REMARK    2  A    between atoms: O_2  and  C_3
REMARK    3  A    between atoms: C_6  and  C_7
REMARK                            x       y       z     vdW  Elec       q    Type
REMARK                         _______ _______ _______ _____ _____    ______ ____
ROOT
ATOM      1  C   UNL     1       4.827   5.722  18.304  0.00  0.00    +0.000 C 
ATOM      2  S   UNL     1       5.302   6.685  16.769  0.00  0.00    +0.000 S 
ATOM      3  C   UNL     1       5.785   5.495  15.511  0.00  0.00    +0.000 A 
ATOM      4  C   UNL     1       6.832   5.979  14.701  0.00  0.00    +0.000 A 
ATOM      5  C   UNL     1       7.410   5.197  13.707  0.00  0.00    +0.000 A 
ATOM      6  C   UNL     1       6.956   3.901  13.510  0.00  0.00    +0.000 A 
ATOM      7  C   UNL     1       5.857   3.431  14.238  0.00  0.00    +0.000 A 
ATOM      8  C   UNL     1       5.217   4.231  15.210  0.00  0.00    +0.000 A 
ATOM      9  N   UNL     1       3.983   3.752  15.758  0.00  0.00    +0.000 N 
ATOM     10  C   UNL     1       3.653   3.961  17.075  0.00  0.00    +0.000 C 
ATOM     11  C   UNL     1       4.575   4.281  17.994  0.00  0.00    +0.000 C 
ATOM     12  C   UNL     1       4.449   3.273  19.068  0.00  0.00    +0.000 C 
ATOM     13  O   UNL     1       5.265   3.028  19.932  0.00  0.00    +0.000 OA
ATOM     14  C   UNL     1       3.124   2.671  18.919  0.00  0.00    +0.000 A 
ATOM     15  C   UNL     1       2.388   2.135  19.959  0.00  0.00    +0.000 A 
ATOM     16  C   UNL     1       1.023   2.396  19.950  0.00  0.00    +0.000 A 
ATOM     17  C   UNL     1       0.458   3.165  18.917  0.00  0.00    +0.000 A 
ATOM     18  C   UNL     1       1.228   3.578  17.813  0.00  0.00    +0.000 A 
ATOM     19  C   UNL     1       2.581   3.264  17.790  0.00  0.00    +0.000 A 
ATOM     20  H   UNL     1       3.774   2.799  15.465  0.00  0.00    +0.000 HD
ENDROOT
BRANCH   1  24
ATOM     21  C   UNL     1       1.467   7.754  20.273  0.00  0.00    +0.000 A 
ATOM     22  C   UNL     1       1.997   6.590  20.819  0.00  0.00    +0.000 A 
ATOM     23  C   UNL     1       3.067   5.938  20.202  0.00  0.00    +0.000 A 
ATOM     24  C   UNL     1       3.607   6.389  18.978  0.00  0.00    +0.000 A 
ATOM     25  C   UNL     1       3.049   7.582  18.442  0.00  0.00    +0.000 A 
ATOM     26  C   UNL     1       1.996   8.252  19.079  0.00  0.00    +0.000 A 
BRANCH  21  28
ATOM     27  C   UNL     1       0.754   9.129  22.066  0.00  0.00    +0.000 C 
ATOM     28  O   UNL     1       0.420   8.282  20.974  0.00  0.00    +0.000 OA
ENDBRANCH  21  28
ENDBRANCH   1  24
TORSDOF 2
ENDMDL
MODEL 4
REMARK VINA RESULT:      -6.4      6.036      8.248
REMARK  Name = 
REMARK  3 active torsions:
REMARK  status: ('A' for Active; 'I' for Inactive)
REMARK    1  A    between atoms: C_1  and  O_2
REMARK    2  A    between atoms: O_2  and  C_3
REMARK    3  A    between atoms: C_6  and  C_7
REMARK                            x       y       z     vdW  Elec       q    Type
REMARK                         _______ _______ _______ _____ _____    ______ ____
ROOT
ATOM      1  C   UNL     1      -0.806  13.934  20.265  0.00  0.00    +0.000 C 
ATOM      2  S   UNL     1      -0.829  14.739  21.956  0.00  0.00    +0.000 S 
ATOM      3  C   UNL     1      -2.024  13.850  22.963  0.00  0.00    +0.000 A 
ATOM      4  C   UNL     1      -2.705  14.706  23.852  0.00  0.00    +0.000 A 
ATOM      5  C   UNL     1      -3.723  14.242  24.679  0.00  0.00    +0.000 A 
ATOM      6  C   UNL     1      -4.091  12.906  24.622  0.00  0.00    +0.000 A 
ATOM      7  C   UNL     1      -3.367  12.019  23.817  0.00  0.00    +0.000 A 
ATOM      8  C   UNL     1      -2.290  12.458  23.015  0.00  0.00    +0.000 A 
ATOM      9  N   UNL     1      -1.480  11.459  22.384  0.00  0.00    +0.000 N 
ATOM     10  C   UNL     1      -0.950  11.651  21.131  0.00  0.00    +0.000 C 
ATOM     11  C   UNL     1      -1.433  12.578  20.292  0.00  0.00    +0.000 C 
ATOM     12  C   UNL     1      -1.774  11.861  19.045  0.00  0.00    +0.000 C 
ATOM     13  O   UNL     1      -2.489  12.262  18.150  0.00  0.00    +0.000 OA
ATOM     14  C   UNL     1      -1.032  10.600  19.074  0.00  0.00    +0.000 A 
ATOM     15  C   UNL     1      -0.612   9.916  17.949  0.00  0.00    +0.000 A 
ATOM     16  C   UNL     1       0.658   9.353  18.006  0.00  0.00    +0.000 A 
ATOM     17  C   UNL     1       1.440   9.490  19.168  0.00  0.00    +0.000 A 
ATOM     18  C   UNL     1       0.915  10.085  20.331  0.00  0.00    +0.000 A 
ATOM     19  C   UNL     1      -0.377  10.594  20.295  0.00  0.00    +0.000 A 
ATOM     20  H   UNL     1      -1.870  10.523  22.488  0.00  0.00    +0.000 HD
ENDROOT
BRANCH   1  24
ATOM     21  C   UNL     1       3.316  13.991  18.748  0.00  0.00    +0.000 A 
ATOM     22  C   UNL     1       2.267  13.625  17.910  0.00  0.00    +0.000 A 
ATOM     23  C   UNL     1       0.953  13.608  18.382  0.00  0.00    +0.000 A 
ATOM     24  C   UNL     1       0.642  13.890  19.730  0.00  0.00    +0.000 A 
ATOM     25  C   UNL     1       1.732  14.263  20.565  0.00  0.00    +0.000 A 
ATOM     26  C   UNL     1       3.046  14.312  20.082  0.00  0.00    +0.000 A 
BRANCH  21  28
ATOM     27  C   UNL     1       5.209  15.207  18.008  0.00  0.00    +0.000 C 
ATOM     28  O   UNL     1       4.548  13.958  18.159  0.00  0.00    +0.000 OA
ENDBRANCH  21  28
ENDBRANCH   1  24
TORSDOF 2
ENDMDL
MODEL 5
REMARK VINA RESULT:      -6.3      9.172     11.505
REMARK  Name = 
REMARK  3 active torsions:
REMARK  status: ('A' for Active; 'I' for Inactive)
REMARK    1  A    between atoms: C_1  and  O_2
REMARK    2  A    between atoms: O_2  and  C_3
REMARK    3  A    between atoms: C_6  and  C_7
REMARK                            x       y       z     vdW  Elec       q    Type
REMARK                         _______ _______ _______ _____ _____    ______ ____
ROOT
ATOM      1  C   UNL     1       7.930  14.947  20.890  0.00  0.00    +0.000 C 
ATOM      2  S   UNL     1       7.975  14.430  19.090  0.00  0.00    +0.000 S 
ATOM      3  C   UNL     1       9.355  13.295  18.888  0.00  0.00    +0.000 A 
ATOM      4  C   UNL     1       9.982  13.445  17.634  0.00  0.00    +0.000 A 
ATOM      5  C   UNL     1      11.115  12.714  17.291  0.00  0.00    +0.000 A 
ATOM      6  C   UNL     1      11.654  11.824  18.207  0.00  0.00    +0.000 A 
ATOM      7  C   UNL     1      10.997  11.590  19.420  0.00  0.00    +0.000 A 
ATOM      8  C   UNL     1       9.811  12.276  19.763  0.00  0.00    +0.000 A 
ATOM      9  N   UNL     1       9.097  11.831  20.923  0.00  0.00    +0.000 N 
ATOM     10  C   UNL     1       8.449  12.717  21.750  0.00  0.00    +0.000 C 
ATOM     11  C   UNL     1       8.735  14.026  21.749  0.00  0.00    +0.000 C 
ATOM     12  C   UNL     1       9.071  14.372  23.146  0.00  0.00    +0.000 C 
ATOM     13  O   UNL     1       9.653  15.366  23.527  0.00  0.00    +0.000 OA
ATOM     14  C   UNL     1       8.511  13.310  23.983  0.00  0.00    +0.000 A 
ATOM     15  C   UNL     1       8.100  13.482  25.291  0.00  0.00    +0.000 A 
ATOM     16  C   UNL     1       6.927  12.835  25.661  0.00  0.00    +0.000 A 
ATOM     17  C   UNL     1       6.227  12.052  24.725  0.00  0.00    +0.000 A 
ATOM     18  C   UNL     1       6.756  11.805  23.444  0.00  0.00    +0.000 A 
ATOM     19  C   UNL     1       7.961  12.401  23.094  0.00  0.00    +0.000 A 
ATOM     20  H   UNL     1       9.616  11.133  21.452  0.00  0.00    +0.000 HD
ENDROOT
BRANCH   1  24
ATOM     21  C   UNL     1       3.797  15.105  22.368  0.00  0.00    +0.000 A 
ATOM     22  C   UNL     1       4.080  14.504  21.146  0.00  0.00    +0.000 A 
ATOM     23  C   UNL     1       5.391  14.446  20.669  0.00  0.00    +0.000 A 
ATOM     24  C   UNL     1       6.463  15.046  21.365  0.00  0.00    +0.000 A 
ATOM     25  C   UNL     1       6.147  15.651  22.612  0.00  0.00    +0.000 A 
ATOM     26  C   UNL     1       4.836  15.680  23.105  0.00  0.00    +0.000 A 
BRANCH  21  28
ATOM     27  C   UNL     1       1.544  15.193  21.638  0.00  0.00    +0.000 C 
ATOM     28  O   UNL     1       2.474  15.097  22.709  0.00  0.00    +0.000 OA
ENDBRANCH  21  28
ENDBRANCH   1  24
TORSDOF 2
ENDMDL
MODEL 6
REMARK VINA RESULT:      -6.2      8.437     10.285
REMARK  Name = 
REMARK  3 active torsions:
REMARK  status: ('A' for Active; 'I' for Inactive)
REMARK    1  A    between atoms: C_1  and  O_2
REMARK    2  A    between atoms: O_2  and  C_3
REMARK    3  A    between atoms: C_6  and  C_7
REMARK                            x       y       z     vdW  Elec       q    Type
REMARK                         _______ _______ _______ _____ _____    ______ ____
ROOT
ATOM      1  C   UNL     1      -1.805  11.788  20.112  0.00  0.00    +0.000 C 
ATOM      2  S   UNL     1      -2.724  11.581  18.493  0.00  0.00    +0.000 S 
ATOM      3  C   UNL     1      -4.466  11.883  18.818  0.00  0.00    +0.000 A 
ATOM      4  C   UNL     1      -5.300  11.061  18.033  0.00  0.00    +0.000 A 
ATOM      5  C   UNL     1      -6.684  11.079  18.170  0.00  0.00    +0.000 A 
ATOM      6  C   UNL     1      -7.264  11.916  19.111  0.00  0.00    +0.000 A 
ATOM      7  C   UNL     1      -6.466  12.809  19.835  0.00  0.00    +0.000 A 
ATOM      8  C   UNL     1      -5.064  12.849  19.667  0.00  0.00    +0.000 A 
ATOM      9  N   UNL     1      -4.350  13.924  20.292  0.00  0.00    +0.000 N 
ATOM     10  C   UNL     1      -3.097  13.740  20.825  0.00  0.00    +0.000 C 
ATOM     11  C   UNL     1      -2.627  12.521  21.123  0.00  0.00    +0.000 C 
ATOM     12  C   UNL     1      -2.231  12.572  22.546  0.00  0.00    +0.000 C 
ATOM     13  O   UNL     1      -2.028  11.626  23.278  0.00  0.00    +0.000 OA
ATOM     14  C   UNL     1      -2.075  13.988  22.882  0.00  0.00    +0.000 A 
ATOM     15  C   UNL     1      -1.220  14.469  23.856  0.00  0.00    +0.000 A 
ATOM     16  C   UNL     1      -0.525  15.633  23.550  0.00  0.00    +0.000 A 
ATOM     17  C   UNL     1      -0.713  16.260  22.305  0.00  0.00    +0.000 A 
ATOM     18  C   UNL     1      -1.689  15.802  21.400  0.00  0.00    +0.000 A 
ATOM     19  C   UNL     1      -2.429  14.675  21.732  0.00  0.00    +0.000 A 
ATOM     20  H   UNL     1      -4.944  14.475  20.909  0.00  0.00    +0.000 HD
ENDROOT
BRANCH   1  24
ATOM     21  C   UNL     1       2.010  13.884  19.517  0.00  0.00    +0.000 A 
ATOM     22  C   UNL     1       0.974  14.044  18.602  0.00  0.00    +0.000 A 
ATOM     23  C   UNL     1      -0.244  13.384  18.784  0.00  0.00    +0.000 A 
ATOM     24  C   UNL     1      -0.451  12.487  19.854  0.00  0.00    +0.000 A 
ATOM     25  C   UNL     1       0.622  12.343  20.776  0.00  0.00    +0.000 A 
ATOM     26  C   UNL     1       1.832  13.031  20.610  0.00  0.00    +0.000 A 
BRANCH  21  28
ATOM     27  C   UNL     1       3.247  15.074  17.884  0.00  0.00    +0.000 C 
ATOM     28  O   UNL     1       3.145  14.581  19.213  0.00  0.00    +0.000 OA
ENDBRANCH  21  28
ENDBRANCH   1  24
TORSDOF 2
ENDMDL
MODEL 7
REMARK VINA RESULT:      -6.2      7.766     12.346
REMARK  Name = 
REMARK  3 active torsions:
REMARK  status: ('A' for Active; 'I' for Inactive)
REMARK    1  A    between atoms: C_1  and  O_2
REMARK    2  A    between atoms: O_2  and  C_3
REMARK    3  A    between atoms: C_6  and  C_7
REMARK                            x       y       z     vdW  Elec       q    Type
REMARK                         _______ _______ _______ _____ _____    ______ ____
ROOT
ATOM      1  C   UNL     1      -1.454  12.902  22.740  0.00  0.00    +0.000 C 
ATOM      2  S   UNL     1      -0.212  12.643  21.362  0.00  0.00    +0.000 S 
ATOM      3  C   UNL     1      -1.085  11.894  19.980  0.00  0.00    +0.000 A 
ATOM      4  C   UNL     1      -0.276  10.977  19.280  0.00  0.00    +0.000 A 
ATOM      5  C   UNL     1      -0.770  10.230  18.215  0.00  0.00    +0.000 A 
ATOM      6  C   UNL     1      -2.096  10.378  17.837  0.00  0.00    +0.000 A 
ATOM      7  C   UNL     1      -2.892  11.349  18.455  0.00  0.00    +0.000 A 
ATOM      8  C   UNL     1      -2.392  12.161  19.498  0.00  0.00    +0.000 A 
ATOM      9  N   UNL     1      -3.203  13.259  19.932  0.00  0.00    +0.000 N 
ATOM     10  C   UNL     1      -3.251  13.638  21.251  0.00  0.00    +0.000 C 
ATOM     11  C   UNL     1      -2.860  12.820  22.238  0.00  0.00    +0.000 C 
ATOM     12  C   UNL     1      -4.005  12.724  23.167  0.00  0.00    +0.000 C 
ATOM     13  O   UNL     1      -4.176  11.881  24.023  0.00  0.00    +0.000 OA
ATOM     14  C   UNL     1      -4.861  13.878  22.892  0.00  0.00    +0.000 A 
ATOM     15  C   UNL     1      -5.682  14.482  23.825  0.00  0.00    +0.000 A 
ATOM     16  C   UNL     1      -5.732  15.871  23.799  0.00  0.00    +0.000 A 
ATOM     17  C   UNL     1      -4.977  16.586  22.852  0.00  0.00    +0.000 A 
ATOM     18  C   UNL     1      -4.259  15.920  21.841  0.00  0.00    +0.000 A 
ATOM     19  C   UNL     1      -4.258  14.531  21.829  0.00  0.00    +0.000 A 
ATOM     20  H   UNL     1      -4.130  13.245  19.511  0.00  0.00    +0.000 HD
ENDROOT
BRANCH   1  24
ATOM     21  C   UNL     1      -0.820  16.774  24.716  0.00  0.00    +0.000 A 
ATOM     22  C   UNL     1      -0.207  16.502  23.497  0.00  0.00    +0.000 A 
ATOM     23  C   UNL     1      -0.405  15.275  22.859  0.00  0.00    +0.000 A 
ATOM     24  C   UNL     1      -1.172  14.246  23.448  0.00  0.00    +0.000 A 
ATOM     25  C   UNL     1      -1.789  14.550  24.693  0.00  0.00    +0.000 A 
ATOM     26  C   UNL     1      -1.616  15.793  25.315  0.00  0.00    +0.000 A 
BRANCH  21  28
ATOM     27  C   UNL     1      -0.613  18.137  26.643  0.00  0.00    +0.000 C 
ATOM     28  O   UNL     1      -0.535  18.007  25.229  0.00  0.00    +0.000 OA
ENDBRANCH  21  28
ENDBRANCH   1  24
TORSDOF 2
ENDMDL
MODEL 8
REMARK VINA RESULT:      -6.2      7.408     12.424
REMARK  Name = 
REMARK  3 active torsions:
REMARK  status: ('A' for Active; 'I' for Inactive)
REMARK    1  A    between atoms: C_1  and  O_2
REMARK    2  A    between atoms: O_2  and  C_3
REMARK    3  A    between atoms: C_6  and  C_7
REMARK                            x       y       z     vdW  Elec       q    Type
REMARK                         _______ _______ _______ _____ _____    ______ ____
ROOT
ATOM      1  C   UNL     1      -2.465  12.457  22.776  0.00  0.00    +0.000 C 
ATOM      2  S   UNL     1      -0.807  11.912  22.097  0.00  0.00    +0.000 S 
ATOM      3  C   UNL     1      -1.053  11.452  20.376  0.00  0.00    +0.000 A 
ATOM      4  C   UNL     1      -0.232  10.370  19.997  0.00  0.00    +0.000 A 
ATOM      5  C   UNL     1      -0.307   9.804  18.728  0.00  0.00    +0.000 A 
ATOM      6  C   UNL     1      -1.219  10.305  17.812  0.00  0.00    +0.000 A 
ATOM      7  C   UNL     1      -1.977  11.437  18.133  0.00  0.00    +0.000 A 
ATOM      8  C   UNL     1      -1.872  12.064  19.394  0.00  0.00    +0.000 A 
ATOM      9  N   UNL     1      -2.527  13.328  19.565  0.00  0.00    +0.000 N 
ATOM     10  C   UNL     1      -3.115  13.675  20.757  0.00  0.00    +0.000 C 
ATOM     11  C   UNL     1      -3.437  12.760  21.682  0.00  0.00    +0.000 C 
ATOM     12  C   UNL     1      -4.876  12.949  21.960  0.00  0.00    +0.000 C 
ATOM     13  O   UNL     1      -5.618  12.162  22.510  0.00  0.00    +0.000 OA
ATOM     14  C   UNL     1      -5.216  14.294  21.495  0.00  0.00    +0.000 A 
ATOM     15  C   UNL     1      -6.227  15.071  22.028  0.00  0.00    +0.000 A 
ATOM     16  C   UNL     1      -5.950  16.425  22.184  0.00  0.00    +0.000 A 
ATOM     17  C   UNL     1      -4.697  16.937  21.803  0.00  0.00    +0.000 A 
ATOM     18  C   UNL     1      -3.750  16.128  21.146  0.00  0.00    +0.000 A 
ATOM     19  C   UNL     1      -4.050  14.789  20.933  0.00  0.00    +0.000 A 
ATOM     20  H   UNL     1      -3.116  13.568  18.770  0.00  0.00    +0.000 HD
ENDROOT
BRANCH   1  24
ATOM     21  C   UNL     1      -2.020  15.977  25.367  0.00  0.00    +0.000 A 
ATOM     22  C   UNL     1      -0.986  15.600  24.515  0.00  0.00    +0.000 A 
ATOM     23  C   UNL     1      -1.119  14.484  23.686  0.00  0.00    +0.000 A 
ATOM     24  C   UNL     1      -2.267  13.663  23.722  0.00  0.00    +0.000 A 
ATOM     25  C   UNL     1      -3.309  14.071  24.599  0.00  0.00    +0.000 A 
ATOM     26  C   UNL     1      -3.187  15.209  25.407  0.00  0.00    +0.000 A 
BRANCH  21  28
ATOM     27  C   UNL     1      -0.381  17.378  26.349  0.00  0.00    +0.000 C 
ATOM     28  O   UNL     1      -1.753  17.081  26.126  0.00  0.00    +0.000 OA
ENDBRANCH  21  28
ENDBRANCH   1  24
TORSDOF 2
ENDMDL
MODEL 9
REMARK VINA RESULT:      -6.1      8.088     12.017
REMARK  Name = 
REMARK  3 active torsions:
REMARK  status: ('A' for Active; 'I' for Inactive)
REMARK    1  A    between atoms: C_1  and  O_2
REMARK    2  A    between atoms: O_2  and  C_3
REMARK    3  A    between atoms: C_6  and  C_7
REMARK                            x       y       z     vdW  Elec       q    Type
REMARK                         _______ _______ _______ _____ _____    ______ ____
ROOT
ATOM      1  C   UNL     1      -1.520  12.824  21.899  0.00  0.00    +0.000 C 
ATOM      2  S   UNL     1      -0.611  12.492  20.296  0.00  0.00    +0.000 S 
ATOM      3  C   UNL     1      -1.760  11.672  19.182  0.00  0.00    +0.000 A 
ATOM      4  C   UNL     1      -1.115  10.719  18.368  0.00  0.00    +0.000 A 
ATOM      5  C   UNL     1      -1.824   9.917  17.479  0.00  0.00    +0.000 A 
ATOM      6  C   UNL     1      -3.202  10.045  17.397  0.00  0.00    +0.000 A 
ATOM      7  C   UNL     1      -3.852  11.048  18.125  0.00  0.00    +0.000 A 
ATOM      8  C   UNL     1      -3.143  11.913  18.988  0.00  0.00    +0.000 A 
ATOM      9  N   UNL     1      -3.851  13.034  19.533  0.00  0.00    +0.000 N 
ATOM     10  C   UNL     1      -3.610  13.482  20.810  0.00  0.00    +0.000 C 
ATOM     11  C   UNL     1      -3.001  12.716  21.726  0.00  0.00    +0.000 C 
ATOM     12  C   UNL     1      -3.912  12.670  22.889  0.00  0.00    +0.000 C 
ATOM     13  O   UNL     1      -3.880  11.874  23.805  0.00  0.00    +0.000 OA
ATOM     14  C   UNL     1      -4.820  13.808  22.751  0.00  0.00    +0.000 A 
ATOM     15  C   UNL     1      -5.421  14.461  23.811  0.00  0.00    +0.000 A 
ATOM     16  C   UNL     1      -5.491  15.847  23.724  0.00  0.00    +0.000 A 
ATOM     17  C   UNL     1      -4.972  16.511  22.598  0.00  0.00    +0.000 A 
ATOM     18  C   UNL     1      -4.488  15.792  21.489  0.00  0.00    +0.000 A 
ATOM     19  C   UNL     1      -4.474  14.404  21.549  0.00  0.00    +0.000 A 
ATOM     20  H   UNL     1      -4.848  12.998  19.329  0.00  0.00    +0.000 HD
ENDROOT
BRANCH   1  24
ATOM     21  C   UNL     1      -0.509  16.783  23.513  0.00  0.00    +0.000 A 
ATOM     22  C   UNL     1      -0.370  16.525  22.153  0.00  0.00    +0.000 A 
ATOM     23  C   UNL     1      -0.692  15.271  21.630  0.00  0.00    +0.000 A 
ATOM     24  C   UNL     1      -1.103  14.203  22.457  0.00  0.00    +0.000 A 
ATOM     25  C   UNL     1      -1.240  14.493  23.843  0.00  0.00    +0.000 A 
ATOM     26  C   UNL     1      -0.947  15.761  24.361  0.00  0.00    +0.000 A 
BRANCH  21  28
ATOM     27  C   UNL     1       1.096  18.180  24.555  0.00  0.00    +0.000 C 
ATOM     28  O   UNL     1      -0.153  18.047  23.889  0.00  0.00    +0.000 OA
ENDBRANCH  21  28
ENDBRANCH   1  24
TORSDOF 2
ENDMDL
