MODEL 1
REMARK VINA RESULT:      -8.0      0.000      0.000
REMARK  Name = 
REMARK  8 active torsions:
REMARK  status: ('A' for Active; 'I' for Inactive)
REMARK    1  A    between atoms: C_6  and  C_7
REMARK    2  A    between atoms: C_10  and  O_11
REMARK    3  A    between atoms: O_11  and  C_12
REMARK    4  A    between atoms: C_12  and  C_14
REMARK    5  A    between atoms: C_20  and  C_21
REMARK    6  A    between atoms: C_20  and  N_22
REMARK    7  A    between atoms: C_25  and  C_26
REMARK    8  A    between atoms: C_27  and  C_28
REMARK                            x       y       z     vdW  Elec       q    Type
REMARK                         _______ _______ _______ _____ _____    ______ ____
ROOT
ATOM      1  C   UNL     1       1.706   5.340  20.266  0.00  0.00    +0.000 C 
ATOM      2  C   UNL     1       2.171   5.073  19.029  0.00  0.00    +0.000 C 
ATOM      3  C   UNL     1       2.499   3.653  18.625  0.00  0.00    +0.000 C 
ATOM      4  C   UNL     1       3.922   3.472  18.054  0.00  0.00    +0.000 C 
ATOM      5  C   UNL     1       4.300   4.527  16.985  0.00  0.00    +0.000 C 
ATOM      6  C   UNL     1       4.017   5.977  17.516  0.00  0.00    +0.000 C 
ATOM      7  C   UNL     1       4.865   6.303  18.793  0.00  0.00    +0.000 C 
ATOM      8  C   UNL     1       4.307   7.013  16.396  0.00  0.00    +0.000 C 
ATOM      9  C   UNL     1       5.202   6.667  15.200  0.00  0.00    +0.000 C 
ATOM     10  C   UNL     1       5.756   5.251  15.006  0.00  0.00    +0.000 C 
ATOM     11  C   UNL     1       5.735   4.363  16.302  0.00  0.00    +0.000 C 
ATOM     12  C   UNL     1       6.000   2.905  15.856  0.00  0.00    +0.000 C 
ATOM     13  C   UNL     1       2.481   6.124  17.956  0.00  0.00    +0.000 C 
ENDROOT
BRANCH  11  14
ATOM     14  N   UNL     1       6.868   4.800  17.139  0.00  0.00    +0.000 N 
ATOM     15  C   UNL     1       7.253   4.367  18.371  0.00  0.00    +0.000 C 
ATOM     16  O   UNL     1       8.223   4.838  18.949  0.00  0.00    +0.000 OA
ATOM     17  H   UNL     1       7.467   5.532  16.770  0.00  0.00    +0.000 HD
ENDBRANCH  11  14
BRANCH  13  18
ATOM     18  C   UNL     1       2.194   7.546  18.434  0.00  0.00    +0.000 C 
ATOM     19  C   UNL     1       1.849   8.639  17.726  0.00  0.00    +0.000 C 
BRANCH  19  20
ATOM     20  C   UNL     1       1.722   9.932  18.363  0.00  0.00    +0.000 C 
ATOM     21  C   UNL     1       2.182  11.115  17.940  0.00  0.00    +0.000 C 
ATOM     22  C   UNL     1       1.829  12.190  18.887  0.00  0.00    +0.000 C 
ATOM     23  O   UNL     1       1.058  11.541  19.894  0.00  0.00    +0.000 OA
ATOM     24  C   UNL     1       0.975  10.217  19.607  0.00  0.00    +0.000 C 
ATOM     25  O   UNL     1       0.377   9.381  20.263  0.00  0.00    +0.000 OA
ENDBRANCH  19  20
ENDBRANCH  13  18
BRANCH  10  26
ATOM     26  O   UNL     1       7.137   5.373  14.503  0.00  0.00    +0.000 OA
BRANCH  26  27
ATOM     27  C   UNL     1       7.328   5.316  13.155  0.00  0.00    +0.000 C 
ATOM     28  O   UNL     1       7.983   6.122  12.511  0.00  0.00    +0.000 OA
BRANCH  27  29
ATOM     29  C   UNL     1       6.700   4.102  12.530  0.00  0.00    +0.000 A 
ATOM     30  C   UNL     1       5.297   4.039  12.449  0.00  0.00    +0.000 A 
ATOM     31  C   UNL     1       4.656   2.971  11.809  0.00  0.00    +0.000 A 
ATOM     32  C   UNL     1       5.412   1.948  11.238  0.00  0.00    +0.000 A 
ATOM     33  C   UNL     1       6.804   1.986  11.331  0.00  0.00    +0.000 A 
ATOM     34  C   UNL     1       7.447   3.054  11.977  0.00  0.00    +0.000 A 
ENDBRANCH  27  29
ENDBRANCH  26  27
ENDBRANCH  10  26
TORSDOF 6
ENDMDL
MODEL 2
REMARK VINA RESULT:      -7.8      0.846      1.426
REMARK  Name = 
REMARK  8 active torsions:
REMARK  status: ('A' for Active; 'I' for Inactive)
REMARK    1  A    between atoms: C_6  and  C_7
REMARK    2  A    between atoms: C_10  and  O_11
REMARK    3  A    between atoms: O_11  and  C_12
REMARK    4  A    between atoms: C_12  and  C_14
REMARK    5  A    between atoms: C_20  and  C_21
REMARK    6  A    between atoms: C_20  and  N_22
REMARK    7  A    between atoms: C_25  and  C_26
REMARK    8  A    between atoms: C_27  and  C_28
REMARK                            x       y       z     vdW  Elec       q    Type
REMARK                         _______ _______ _______ _____ _____    ______ ____
ROOT
ATOM      1  C   UNL     1       0.976   4.714  20.105  0.00  0.00    +0.000 C 
ATOM      2  C   UNL     1       1.576   4.590  18.905  0.00  0.00    +0.000 C 
ATOM      3  C   UNL     1       1.867   3.221  18.333  0.00  0.00    +0.000 C 
ATOM      4  C   UNL     1       3.337   3.013  17.910  0.00  0.00    +0.000 C 
ATOM      5  C   UNL     1       3.908   4.176  17.062  0.00  0.00    +0.000 C 
ATOM      6  C   UNL     1       3.648   5.554  17.768  0.00  0.00    +0.000 C 
ATOM      7  C   UNL     1       4.346   5.630  19.168  0.00  0.00    +0.000 C 
ATOM      8  C   UNL     1       4.138   6.712  16.857  0.00  0.00    +0.000 C 
ATOM      9  C   UNL     1       5.153   6.471  15.734  0.00  0.00    +0.000 C 
ATOM     10  C   UNL     1       5.643   5.058  15.395  0.00  0.00    +0.000 C 
ATOM     11  C   UNL     1       5.406   4.000  16.532  0.00  0.00    +0.000 C 
ATOM     12  C   UNL     1       5.637   2.604  15.908  0.00  0.00    +0.000 C 
ATOM     13  C   UNL     1       2.080   5.755  18.045  0.00  0.00    +0.000 C 
ENDROOT
BRANCH  11  14
ATOM     14  N   UNL     1       6.449   4.225  17.551  0.00  0.00    +0.000 N 
ATOM     15  C   UNL     1       7.789   4.402  17.394  0.00  0.00    +0.000 C 
ATOM     16  O   UNL     1       8.536   4.572  18.349  0.00  0.00    +0.000 OA
ATOM     17  H   UNL     1       6.155   4.254  18.523  0.00  0.00    +0.000 HD
ENDBRANCH  11  14
BRANCH  13  18
ATOM     18  C   UNL     1       1.821   7.113  18.693  0.00  0.00    +0.000 C 
ATOM     19  C   UNL     1       1.558   8.305  18.121  0.00  0.00    +0.000 C 
BRANCH  19  20
ATOM     20  C   UNL     1       1.444   9.507  18.919  0.00  0.00    +0.000 C 
ATOM     21  C   UNL     1       0.953   9.638  20.156  0.00  0.00    +0.000 C 
ATOM     22  C   UNL     1       1.027  11.040  20.609  0.00  0.00    +0.000 C 
ATOM     23  O   UNL     1       1.666  11.729  19.539  0.00  0.00    +0.000 OA
ATOM     24  C   UNL     1       1.927  10.852  18.538  0.00  0.00    +0.000 C 
ATOM     25  O   UNL     1       2.478  11.116  17.482  0.00  0.00    +0.000 OA
ENDBRANCH  19  20
ENDBRANCH  13  18
BRANCH  10  26
ATOM     26  O   UNL     1       7.081   5.143  15.079  0.00  0.00    +0.000 OA
BRANCH  26  27
ATOM     27  C   UNL     1       7.439   5.184  13.765  0.00  0.00    +0.000 C 
ATOM     28  O   UNL     1       8.336   5.880  13.311  0.00  0.00    +0.000 OA
BRANCH  27  29
ATOM     29  C   UNL     1       6.657   4.220  12.918  0.00  0.00    +0.000 A 
ATOM     30  C   UNL     1       7.358   3.223  12.216  0.00  0.00    +0.000 A 
ATOM     31  C   UNL     1       6.679   2.249  11.473  0.00  0.00    +0.000 A 
ATOM     32  C   UNL     1       5.286   2.259  11.421  0.00  0.00    +0.000 A 
ATOM     33  C   UNL     1       4.579   3.257  12.094  0.00  0.00    +0.000 A 
ATOM     34  C   UNL     1       5.259   4.236  12.835  0.00  0.00    +0.000 A 
ENDBRANCH  27  29
ENDBRANCH  26  27
ENDBRANCH  10  26
TORSDOF 6
ENDMDL
MODEL 3
REMARK VINA RESULT:      -7.4      7.859     10.970
REMARK  Name = 
REMARK  8 active torsions:
REMARK  status: ('A' for Active; 'I' for Inactive)
REMARK    1  A    between atoms: C_6  and  C_7
REMARK    2  A    between atoms: C_10  and  O_11
REMARK    3  A    between atoms: O_11  and  C_12
REMARK    4  A    between atoms: C_12  and  C_14
REMARK    5  A    between atoms: C_20  and  C_21
REMARK    6  A    between atoms: C_20  and  N_22
REMARK    7  A    between atoms: C_25  and  C_26
REMARK    8  A    between atoms: C_27  and  C_28
REMARK                            x       y       z     vdW  Elec       q    Type
REMARK                         _______ _______ _______ _____ _____    ______ ____
ROOT
ATOM      1  C   UNL     1       4.918  17.217  19.095  0.00  0.00    +0.000 C 
ATOM      2  C   UNL     1       3.806  16.577  18.682  0.00  0.00    +0.000 C 
ATOM      3  C   UNL     1       2.474  17.291  18.663  0.00  0.00    +0.000 C 
ATOM      4  C   UNL     1       1.348  16.549  19.415  0.00  0.00    +0.000 C 
ATOM      5  C   UNL     1       1.253  15.044  19.059  0.00  0.00    +0.000 C 
ATOM      6  C   UNL     1       2.658  14.355  19.194  0.00  0.00    +0.000 C 
ATOM      7  C   UNL     1       3.208  14.440  20.658  0.00  0.00    +0.000 C 
ATOM      8  C   UNL     1       2.562  12.874  18.738  0.00  0.00    +0.000 C 
ATOM      9  C   UNL     1       1.217  12.140  18.684  0.00  0.00    +0.000 C 
ATOM     10  C   UNL     1      -0.100  12.871  18.973  0.00  0.00    +0.000 C 
ATOM     11  C   UNL     1       0.069  14.225  19.751  0.00  0.00    +0.000 C 
ATOM     12  C   UNL     1      -1.283  14.972  19.657  0.00  0.00    +0.000 C 
ATOM     13  C   UNL     1       3.738  15.100  18.271  0.00  0.00    +0.000 C 
ENDROOT
BRANCH  11  14
ATOM     14  N   UNL     1       0.303  13.880  21.166  0.00  0.00    +0.000 N 
ATOM     15  C   UNL     1      -0.432  14.193  22.268  0.00  0.00    +0.000 C 
ATOM     16  O   UNL     1      -0.100  13.836  23.391  0.00  0.00    +0.000 OA
ATOM     17  H   UNL     1       1.130  13.331  21.383  0.00  0.00    +0.000 HD
ENDBRANCH  11  14
BRANCH  13  18
ATOM     18  C   UNL     1       5.095  14.406  18.368  0.00  0.00    +0.000 C 
ATOM     19  C   UNL     1       6.249  14.676  17.726  0.00  0.00    +0.000 C 
BRANCH  19  20
ATOM     20  C   UNL     1       7.407  13.823  17.883  0.00  0.00    +0.000 C 
ATOM     21  C   UNL     1       7.716  12.710  17.209  0.00  0.00    +0.000 C 
ATOM     22  C   UNL     1       8.996  12.145  17.676  0.00  0.00    +0.000 C 
ATOM     23  O   UNL     1       9.455  13.066  18.662  0.00  0.00    +0.000 OA
ATOM     24  C   UNL     1       8.545  14.063  18.798  0.00  0.00    +0.000 C 
ATOM     25  O   UNL     1       8.639  15.017  19.551  0.00  0.00    +0.000 OA
ENDBRANCH  19  20
ENDBRANCH  13  18
BRANCH  10  26
ATOM     26  O   UNL     1      -0.965  11.954  19.740  0.00  0.00    +0.000 OA
BRANCH  26  27
ATOM     27  C   UNL     1      -1.148  10.696  19.249  0.00  0.00    +0.000 C 
ATOM     28  O   UNL     1      -0.643   9.687  19.718  0.00  0.00    +0.000 OA
BRANCH  27  29
ATOM     29  C   UNL     1      -2.105  10.658  18.092  0.00  0.00    +0.000 A 
ATOM     30  C   UNL     1      -3.281  11.427  18.168  0.00  0.00    +0.000 A 
ATOM     31  C   UNL     1      -4.173  11.493  17.090  0.00  0.00    +0.000 A 
ATOM     32  C   UNL     1      -3.902  10.788  15.919  0.00  0.00    +0.000 A 
ATOM     33  C   UNL     1      -2.752  10.002  15.838  0.00  0.00    +0.000 A 
ATOM     34  C   UNL     1      -1.859   9.932  16.920  0.00  0.00    +0.000 A 
ENDBRANCH  27  29
ENDBRANCH  26  27
ENDBRANCH  10  26
TORSDOF 6
ENDMDL
MODEL 4
REMARK VINA RESULT:      -7.4      5.520      9.857
REMARK  Name = 
REMARK  8 active torsions:
REMARK  status: ('A' for Active; 'I' for Inactive)
REMARK    1  A    between atoms: C_6  and  C_7
REMARK    2  A    between atoms: C_10  and  O_11
REMARK    3  A    between atoms: O_11  and  C_12
REMARK    4  A    between atoms: C_12  and  C_14
REMARK    5  A    between atoms: C_20  and  C_21
REMARK    6  A    between atoms: C_20  and  N_22
REMARK    7  A    between atoms: C_25  and  C_26
REMARK    8  A    between atoms: C_27  and  C_28
REMARK                            x       y       z     vdW  Elec       q    Type
REMARK                         _______ _______ _______ _____ _____    ______ ____
ROOT
ATOM      1  C   UNL     1       1.308  17.663  19.800  0.00  0.00    +0.000 C 
ATOM      2  C   UNL     1       0.882  16.515  19.235  0.00  0.00    +0.000 C 
ATOM      3  C   UNL     1      -0.596  16.249  19.064  0.00  0.00    +0.000 C 
ATOM      4  C   UNL     1      -1.067  14.901  19.652  0.00  0.00    +0.000 C 
ATOM      5  C   UNL     1      -0.169  13.704  19.253  0.00  0.00    +0.000 C 
ATOM      6  C   UNL     1       1.340  14.024  19.548  0.00  0.00    +0.000 C 
ATOM      7  C   UNL     1       1.590  14.289  21.071  0.00  0.00    +0.000 C 
ATOM      8  C   UNL     1       2.232  12.854  19.051  0.00  0.00    +0.000 C 
ATOM      9  C   UNL     1       1.653  11.454  18.811  0.00  0.00    +0.000 C 
ATOM     10  C   UNL     1       0.151  11.181  18.949  0.00  0.00    +0.000 C 
ATOM     11  C   UNL     1      -0.633  12.265  19.772  0.00  0.00    +0.000 C 
ATOM     12  C   UNL     1      -2.140  12.020  19.525  0.00  0.00    +0.000 C 
ATOM     13  C   UNL     1       1.788  15.362  18.786  0.00  0.00    +0.000 C 
ENDROOT
BRANCH  11  14
ATOM     14  N   UNL     1      -0.354  12.006  21.197  0.00  0.00    +0.000 N 
ATOM     15  C   UNL     1      -1.214  11.934  22.249  0.00  0.00    +0.000 C 
ATOM     16  O   UNL     1      -0.826  11.716  23.390  0.00  0.00    +0.000 OA
ATOM     17  H   UNL     1       0.614  11.857  21.465  0.00  0.00    +0.000 HD
ENDBRANCH  11  14
BRANCH  13  18
ATOM     18  C   UNL     1       3.267  15.651  19.038  0.00  0.00    +0.000 C 
ATOM     19  C   UNL     1       4.265  15.866  18.157  0.00  0.00    +0.000 C 
BRANCH  19  20
ATOM     20  C   UNL     1       5.632  16.021  18.603  0.00  0.00    +0.000 C 
ATOM     21  C   UNL     1       6.675  15.215  18.377  0.00  0.00    +0.000 C 
ATOM     22  C   UNL     1       7.900  15.744  19.006  0.00  0.00    +0.000 C 
ATOM     23  O   UNL     1       7.499  16.983  19.584  0.00  0.00    +0.000 OA
ATOM     24  C   UNL     1       6.175  17.173  19.356  0.00  0.00    +0.000 C 
ATOM     25  O   UNL     1       5.521  18.140  19.709  0.00  0.00    +0.000 OA
ENDBRANCH  19  20
ENDBRANCH  13  18
BRANCH  10  26
ATOM     26  O   UNL     1      -0.011   9.857  19.579  0.00  0.00    +0.000 OA
BRANCH  26  27
ATOM     27  C   UNL     1       1.018   9.388  20.340  0.00  0.00    +0.000 C 
ATOM     28  O   UNL     1       1.354   9.855  21.418  0.00  0.00    +0.000 OA
BRANCH  27  29
ATOM     29  C   UNL     1       1.671   8.172  19.747  0.00  0.00    +0.000 A 
ATOM     30  C   UNL     1       1.723   6.995  20.518  0.00  0.00    +0.000 A 
ATOM     31  C   UNL     1       2.248   5.808  19.992  0.00  0.00    +0.000 A 
ATOM     32  C   UNL     1       2.732   5.781  18.685  0.00  0.00    +0.000 A 
ATOM     33  C   UNL     1       2.709   6.946  17.917  0.00  0.00    +0.000 A 
ATOM     34  C   UNL     1       2.186   8.138  18.445  0.00  0.00    +0.000 A 
ENDBRANCH  27  29
ENDBRANCH  26  27
ENDBRANCH  10  26
TORSDOF 6
ENDMDL
MODEL 5
REMARK VINA RESULT:      -7.4      3.576     10.397
REMARK  Name = 
REMARK  8 active torsions:
REMARK  status: ('A' for Active; 'I' for Inactive)
REMARK    1  A    between atoms: C_6  and  C_7
REMARK    2  A    between atoms: C_10  and  O_11
REMARK    3  A    between atoms: O_11  and  C_12
REMARK    4  A    between atoms: C_12  and  C_14
REMARK    5  A    between atoms: C_20  and  C_21
REMARK    6  A    between atoms: C_20  and  N_22
REMARK    7  A    between atoms: C_25  and  C_26
REMARK    8  A    between atoms: C_27  and  C_28
REMARK                            x       y       z     vdW  Elec       q    Type
REMARK                         _______ _______ _______ _____ _____    ______ ____
ROOT
ATOM      1  C   UNL     1       1.253   5.903  20.205  0.00  0.00    +0.000 C 
ATOM      2  C   UNL     1       1.475   7.220  20.391  0.00  0.00    +0.000 C 
ATOM      3  C   UNL     1       0.789   7.960  21.517  0.00  0.00    +0.000 C 
ATOM      4  C   UNL     1       0.029   9.227  21.068  0.00  0.00    +0.000 C 
ATOM      5  C   UNL     1       0.852  10.144  20.130  0.00  0.00    +0.000 C 
ATOM      6  C   UNL     1       1.452   9.318  18.938  0.00  0.00    +0.000 C 
ATOM      7  C   UNL     1       0.330   8.665  18.061  0.00  0.00    +0.000 C 
ATOM      8  C   UNL     1       2.354  10.234  18.066  0.00  0.00    +0.000 C 
ATOM      9  C   UNL     1       2.219  11.760  18.106  0.00  0.00    +0.000 C 
ATOM     10  C   UNL     1       1.264  12.448  19.089  0.00  0.00    +0.000 C 
ATOM     11  C   UNL     1       0.152  11.508  19.677  0.00  0.00    +0.000 C 
ATOM     12  C   UNL     1      -0.486  12.254  20.872  0.00  0.00    +0.000 C 
ATOM     13  C   UNL     1       2.345   8.105  19.489  0.00  0.00    +0.000 C 
ENDROOT
BRANCH  11  14
ATOM     14  N   UNL     1      -0.876  11.354  18.631  0.00  0.00    +0.000 N 
ATOM     15  C   UNL     1      -2.213  11.603  18.687  0.00  0.00    +0.000 C 
ATOM     16  O   UNL     1      -2.948  11.416  17.725  0.00  0.00    +0.000 OA
ATOM     17  H   UNL     1      -0.574  11.010  17.725  0.00  0.00    +0.000 HD
ENDBRANCH  11  14
BRANCH  13  18
ATOM     18  C   UNL     1       2.964   7.325  18.331  0.00  0.00    +0.000 C 
ATOM     19  C   UNL     1       3.947   6.403  18.341  0.00  0.00    +0.000 C 
BRANCH  19  20
ATOM     20  C   UNL     1       4.466   5.853  17.107  0.00  0.00    +0.000 C 
ATOM     21  C   UNL     1       5.094   6.490  16.113  0.00  0.00    +0.000 C 
ATOM     22  C   UNL     1       5.468   5.554  15.036  0.00  0.00    +0.000 C 
ATOM     23  O   UNL     1       5.051   4.277  15.511  0.00  0.00    +0.000 OA
ATOM     24  C   UNL     1       4.467   4.423  16.727  0.00  0.00    +0.000 C 
ATOM     25  O   UNL     1       4.010   3.524  17.412  0.00  0.00    +0.000 OA
ENDBRANCH  19  20
ENDBRANCH  13  18
BRANCH  10  26
ATOM     26  O   UNL     1       0.641  13.587  18.389  0.00  0.00    +0.000 OA
BRANCH  26  27
ATOM     27  C   UNL     1       1.076  14.840  18.705  0.00  0.00    +0.000 C 
ATOM     28  O   UNL     1       2.250  15.163  18.807  0.00  0.00    +0.000 OA
BRANCH  27  29
ATOM     29  C   UNL     1      -0.049  15.825  18.853  0.00  0.00    +0.000 A 
ATOM     30  C   UNL     1      -0.961  15.649  19.910  0.00  0.00    +0.000 A 
ATOM     31  C   UNL     1      -1.983  16.577  20.146  0.00  0.00    +0.000 A 
ATOM     32  C   UNL     1      -2.109  17.696  19.325  0.00  0.00    +0.000 A 
ATOM     33  C   UNL     1      -1.225  17.872  18.259  0.00  0.00    +0.000 A 
ATOM     34  C   UNL     1      -0.203  16.939  18.019  0.00  0.00    +0.000 A 
ENDBRANCH  27  29
ENDBRANCH  26  27
ENDBRANCH  10  26
TORSDOF 6
ENDMDL
MODEL 6
REMARK VINA RESULT:      -7.3      4.825      8.953
REMARK  Name = 
REMARK  8 active torsions:
REMARK  status: ('A' for Active; 'I' for Inactive)
REMARK    1  A    between atoms: C_6  and  C_7
REMARK    2  A    between atoms: C_10  and  O_11
REMARK    3  A    between atoms: O_11  and  C_12
REMARK    4  A    between atoms: C_12  and  C_14
REMARK    5  A    between atoms: C_20  and  C_21
REMARK    6  A    between atoms: C_20  and  N_22
REMARK    7  A    between atoms: C_25  and  C_26
REMARK    8  A    between atoms: C_27  and  C_28
REMARK                            x       y       z     vdW  Elec       q    Type
REMARK                         _______ _______ _______ _____ _____    ______ ____
ROOT
ATOM      1  C   UNL     1       1.243  16.995  20.210  0.00  0.00    +0.000 C 
ATOM      2  C   UNL     1       0.904  15.890  19.516  0.00  0.00    +0.000 C 
ATOM      3  C   UNL     1      -0.526  15.401  19.507  0.00  0.00    +0.000 C 
ATOM      4  C   UNL     1      -0.690  13.918  19.906  0.00  0.00    +0.000 C 
ATOM      5  C   UNL     1       0.298  12.969  19.183  0.00  0.00    +0.000 C 
ATOM      6  C   UNL     1       1.770  13.497  19.319  0.00  0.00    +0.000 C 
ATOM      7  C   UNL     1       2.226  13.568  20.816  0.00  0.00    +0.000 C 
ATOM      8  C   UNL     1       2.731  12.588  18.504  0.00  0.00    +0.000 C 
ATOM      9  C   UNL     1       2.335  11.162  18.104  0.00  0.00    +0.000 C 
ATOM     10  C   UNL     1       0.933  10.615  18.397  0.00  0.00    +0.000 C 
ATOM     11  C   UNL     1       0.144  11.410  19.499  0.00  0.00    +0.000 C 
ATOM     12  C   UNL     1      -1.330  10.948  19.422  0.00  0.00    +0.000 C 
ATOM     13  C   UNL     1       1.885  14.993  18.750  0.00  0.00    +0.000 C 
ENDROOT
BRANCH  11  14
ATOM     14  N   UNL     1       0.689  10.990  20.803  0.00  0.00    +0.000 N 
ATOM     15  C   UNL     1       0.039  10.521  21.904  0.00  0.00    +0.000 C 
ATOM     16  O   UNL     1       0.636  10.217  22.928  0.00  0.00    +0.000 OA
ATOM     17  H   UNL     1       1.695  11.050  20.932  0.00  0.00    +0.000 HD
ENDBRANCH  11  14
BRANCH  13  18
ATOM     18  C   UNL     1       3.325  15.492  18.843  0.00  0.00    +0.000 C 
ATOM     19  C   UNL     1       4.285  15.532  17.898  0.00  0.00    +0.000 C 
BRANCH  19  20
ATOM     20  C   UNL     1       5.632  15.951  18.219  0.00  0.00    +0.000 C 
ATOM     21  C   UNL     1       6.027  17.068  18.840  0.00  0.00    +0.000 C 
ATOM     22  C   UNL     1       7.496  17.106  18.977  0.00  0.00    +0.000 C 
ATOM     23  O   UNL     1       7.939  15.869  18.428  0.00  0.00    +0.000 OA
ATOM     24  C   UNL     1       6.866  15.170  17.982  0.00  0.00    +0.000 C 
ATOM     25  O   UNL     1       6.897  14.065  17.466  0.00  0.00    +0.000 OA
ENDBRANCH  19  20
ENDBRANCH  13  18
BRANCH  10  26
ATOM     26  O   UNL     1       1.075   9.204  18.800  0.00  0.00    +0.000 OA
BRANCH  26  27
ATOM     27  C   UNL     1       1.944   8.428  18.094  0.00  0.00    +0.000 C 
ATOM     28  O   UNL     1       2.443   8.741  17.023  0.00  0.00    +0.000 OA
BRANCH  27  29
ATOM     29  C   UNL     1       2.294   7.151  18.805  0.00  0.00    +0.000 A 
ATOM     30  C   UNL     1       1.722   6.909  20.068  0.00  0.00    +0.000 A 
ATOM     31  C   UNL     1       1.948   5.703  20.745  0.00  0.00    +0.000 A 
ATOM     32  C   UNL     1       2.751   4.721  20.167  0.00  0.00    +0.000 A 
ATOM     33  C   UNL     1       3.344   4.958  18.926  0.00  0.00    +0.000 A 
ATOM     34  C   UNL     1       3.122   6.168  18.249  0.00  0.00    +0.000 A 
ENDBRANCH  27  29
ENDBRANCH  26  27
ENDBRANCH  10  26
TORSDOF 6
ENDMDL
MODEL 7
REMARK VINA RESULT:      -7.3      4.886      8.711
REMARK  Name = 
REMARK  8 active torsions:
REMARK  status: ('A' for Active; 'I' for Inactive)
REMARK    1  A    between atoms: C_6  and  C_7
REMARK    2  A    between atoms: C_10  and  O_11
REMARK    3  A    between atoms: O_11  and  C_12
REMARK    4  A    between atoms: C_12  and  C_14
REMARK    5  A    between atoms: C_20  and  C_21
REMARK    6  A    between atoms: C_20  and  N_22
REMARK    7  A    between atoms: C_25  and  C_26
REMARK    8  A    between atoms: C_27  and  C_28
REMARK                            x       y       z     vdW  Elec       q    Type
REMARK                         _______ _______ _______ _____ _____    ______ ____
ROOT
ATOM      1  C   UNL     1       1.139  16.538  19.756  0.00  0.00    +0.000 C 
ATOM      2  C   UNL     1       0.870  15.399  19.087  0.00  0.00    +0.000 C 
ATOM      3  C   UNL     1      -0.550  14.895  18.974  0.00  0.00    +0.000 C 
ATOM      4  C   UNL     1      -0.738  13.430  19.425  0.00  0.00    +0.000 C 
ATOM      5  C   UNL     1       0.316  12.460  18.837  0.00  0.00    +0.000 C 
ATOM      6  C   UNL     1       1.767  13.010  19.077  0.00  0.00    +0.000 C 
ATOM      7  C   UNL     1       2.088  13.153  20.604  0.00  0.00    +0.000 C 
ATOM      8  C   UNL     1       2.802  12.075  18.394  0.00  0.00    +0.000 C 
ATOM      9  C   UNL     1       2.452  10.628  18.026  0.00  0.00    +0.000 C 
ATOM     10  C   UNL     1       1.034  10.080  18.219  0.00  0.00    +0.000 C 
ATOM     11  C   UNL     1       0.145  10.916  19.209  0.00  0.00    +0.000 C 
ATOM     12  C   UNL     1      -1.314  10.434  19.024  0.00  0.00    +0.000 C 
ATOM     13  C   UNL     1       1.921  14.479  18.453  0.00  0.00    +0.000 C 
ENDROOT
BRANCH  11  14
ATOM     14  N   UNL     1       0.575  10.560  20.575  0.00  0.00    +0.000 N 
ATOM     15  C   UNL     1      -0.127  10.592  21.740  0.00  0.00    +0.000 C 
ATOM     16  O   UNL     1       0.376  10.271  22.809  0.00  0.00    +0.000 OA
ATOM     17  H   UNL     1       1.533  10.245  20.696  0.00  0.00    +0.000 HD
ENDBRANCH  11  14
BRANCH  13  18
ATOM     18  C   UNL     1       3.344  14.998  18.649  0.00  0.00    +0.000 C 
ATOM     19  C   UNL     1       4.236  15.433  17.736  0.00  0.00    +0.000 C 
BRANCH  19  20
ATOM     20  C   UNL     1       5.584  15.789  18.121  0.00  0.00    +0.000 C 
ATOM     21  C   UNL     1       6.727  15.166  17.813  0.00  0.00    +0.000 C 
ATOM     22  C   UNL     1       7.886  15.862  18.403  0.00  0.00    +0.000 C 
ATOM     23  O   UNL     1       7.327  17.002  19.049  0.00  0.00    +0.000 OA
ATOM     24  C   UNL     1       5.980  16.987  18.894  0.00  0.00    +0.000 C 
ATOM     25  O   UNL     1       5.202  17.825  19.317  0.00  0.00    +0.000 OA
ENDBRANCH  19  20
ENDBRANCH  13  18
BRANCH  10  26
ATOM     26  O   UNL     1       1.149   8.690  18.698  0.00  0.00    +0.000 OA
BRANCH  26  27
ATOM     27  C   UNL     1       2.046   7.877  18.072  0.00  0.00    +0.000 C 
ATOM     28  O   UNL     1       2.774   8.222  17.153  0.00  0.00    +0.000 OA
BRANCH  27  29
ATOM     29  C   UNL     1       2.106   6.503  18.678  0.00  0.00    +0.000 A 
ATOM     30  C   UNL     1       2.183   6.390  20.078  0.00  0.00    +0.000 A 
ATOM     31  C   UNL     1       2.164   5.138  20.706  0.00  0.00    +0.000 A 
ATOM     32  C   UNL     1       2.068   3.978  19.939  0.00  0.00    +0.000 A 
ATOM     33  C   UNL     1       2.015   4.074  18.548  0.00  0.00    +0.000 A 
ATOM     34  C   UNL     1       2.039   5.329  17.918  0.00  0.00    +0.000 A 
ENDBRANCH  27  29
ENDBRANCH  26  27
ENDBRANCH  10  26
TORSDOF 6
ENDMDL
MODEL 8
REMARK VINA RESULT:      -7.3      2.863      9.505
REMARK  Name = 
REMARK  8 active torsions:
REMARK  status: ('A' for Active; 'I' for Inactive)
REMARK    1  A    between atoms: C_6  and  C_7
REMARK    2  A    between atoms: C_10  and  O_11
REMARK    3  A    between atoms: O_11  and  C_12
REMARK    4  A    between atoms: C_12  and  C_14
REMARK    5  A    between atoms: C_20  and  C_21
REMARK    6  A    between atoms: C_20  and  N_22
REMARK    7  A    between atoms: C_25  and  C_26
REMARK    8  A    between atoms: C_27  and  C_28
REMARK                            x       y       z     vdW  Elec       q    Type
REMARK                         _______ _______ _______ _____ _____    ______ ____
ROOT
ATOM      1  C   UNL     1       1.707   5.380  19.905  0.00  0.00    +0.000 C 
ATOM      2  C   UNL     1       1.843   6.703  20.123  0.00  0.00    +0.000 C 
ATOM      3  C   UNL     1       1.061   7.382  21.224  0.00  0.00    +0.000 C 
ATOM      4  C   UNL     1       0.253   8.612  20.758  0.00  0.00    +0.000 C 
ATOM      5  C   UNL     1       1.068   9.592  19.878  0.00  0.00    +0.000 C 
ATOM      6  C   UNL     1       1.774   8.824  18.705  0.00  0.00    +0.000 C 
ATOM      7  C   UNL     1       0.736   8.125  17.761  0.00  0.00    +0.000 C 
ATOM      8  C   UNL     1       2.664   9.805  17.895  0.00  0.00    +0.000 C 
ATOM      9  C   UNL     1       2.440  11.321  17.953  0.00  0.00    +0.000 C 
ATOM     10  C   UNL     1       1.400  11.935  18.897  0.00  0.00    +0.000 C 
ATOM     11  C   UNL     1       0.315  10.922  19.412  0.00  0.00    +0.000 C 
ATOM     12  C   UNL     1      -0.424  11.609  20.585  0.00  0.00    +0.000 C 
ATOM     13  C   UNL     1       2.705   7.652  19.282  0.00  0.00    +0.000 C 
ENDROOT
BRANCH  11  14
ATOM     14  N   UNL     1      -0.649  10.731  18.312  0.00  0.00    +0.000 N 
ATOM     15  C   UNL     1      -2.010  10.703  18.347  0.00  0.00    +0.000 C 
ATOM     16  O   UNL     1      -2.680  10.524  17.339  0.00  0.00    +0.000 OA
ATOM     17  H   UNL     1      -0.273  10.594  17.379  0.00  0.00    +0.000 HD
ENDBRANCH  11  14
BRANCH  13  18
ATOM     18  C   UNL     1       3.425   6.931  18.144  0.00  0.00    +0.000 C 
ATOM     19  C   UNL     1       4.564   6.210  18.164  0.00  0.00    +0.000 C 
BRANCH  19  20
ATOM     20  C   UNL     1       5.140   5.690  16.943  0.00  0.00    +0.000 C 
ATOM     21  C   UNL     1       4.675   4.713  16.157  0.00  0.00    +0.000 C 
ATOM     22  C   UNL     1       5.565   4.496  15.000  0.00  0.00    +0.000 C 
ATOM     23  O   UNL     1       6.583   5.482  15.141  0.00  0.00    +0.000 OA
ATOM     24  C   UNL     1       6.353   6.201  16.269  0.00  0.00    +0.000 C 
ATOM     25  O   UNL     1       7.033   7.129  16.675  0.00  0.00    +0.000 OA
ENDBRANCH  19  20
ENDBRANCH  13  18
BRANCH  10  26
ATOM     26  O   UNL     1       0.749  13.050  18.185  0.00  0.00    +0.000 OA
BRANCH  26  27
ATOM     27  C   UNL     1       0.847  14.295  18.732  0.00  0.00    +0.000 C 
ATOM     28  O   UNL     1      -0.101  14.951  19.138  0.00  0.00    +0.000 OA
BRANCH  27  29
ATOM     29  C   UNL     1       2.268  14.766  18.854  0.00  0.00    +0.000 A 
ATOM     30  C   UNL     1       2.802  14.960  20.141  0.00  0.00    +0.000 A 
ATOM     31  C   UNL     1       4.143  15.323  20.320  0.00  0.00    +0.000 A 
ATOM     32  C   UNL     1       4.970  15.498  19.212  0.00  0.00    +0.000 A 
ATOM     33  C   UNL     1       4.448  15.332  17.929  0.00  0.00    +0.000 A 
ATOM     34  C   UNL     1       3.102  14.973  17.748  0.00  0.00    +0.000 A 
ENDBRANCH  27  29
ENDBRANCH  26  27
ENDBRANCH  10  26
TORSDOF 6
ENDMDL
MODEL 9
REMARK VINA RESULT:      -7.3      5.617     10.481
REMARK  Name = 
REMARK  8 active torsions:
REMARK  status: ('A' for Active; 'I' for Inactive)
REMARK    1  A    between atoms: C_6  and  C_7
REMARK    2  A    between atoms: C_10  and  O_11
REMARK    3  A    between atoms: O_11  and  C_12
REMARK    4  A    between atoms: C_12  and  C_14
REMARK    5  A    between atoms: C_20  and  C_21
REMARK    6  A    between atoms: C_20  and  N_22
REMARK    7  A    between atoms: C_25  and  C_26
REMARK    8  A    between atoms: C_27  and  C_28
REMARK                            x       y       z     vdW  Elec       q    Type
REMARK                         _______ _______ _______ _____ _____    ______ ____
ROOT
ATOM      1  C   UNL     1      -3.303  16.591  20.326  0.00  0.00    +0.000 C 
ATOM      2  C   UNL     1      -2.328  15.728  20.674  0.00  0.00    +0.000 C 
ATOM      3  C   UNL     1      -0.974  15.792  20.004  0.00  0.00    +0.000 C 
ATOM      4  C   UNL     1      -0.500  14.447  19.410  0.00  0.00    +0.000 C 
ATOM      5  C   UNL     1      -0.659  13.251  20.381  0.00  0.00    +0.000 C 
ATOM      6  C   UNL     1      -2.117  13.201  20.961  0.00  0.00    +0.000 C 
ATOM      7  C   UNL     1      -3.185  13.011  19.831  0.00  0.00    +0.000 C 
ATOM      8  C   UNL     1      -2.227  12.056  22.006  0.00  0.00    +0.000 C 
ATOM      9  C   UNL     1      -1.223  10.898  22.031  0.00  0.00    +0.000 C 
ATOM     10  C   UNL     1      -0.008  10.879  21.096  0.00  0.00    +0.000 C 
ATOM     11  C   UNL     1      -0.127  11.837  19.858  0.00  0.00    +0.000 C 
ATOM     12  C   UNL     1       1.283  11.946  19.231  0.00  0.00    +0.000 C 
ATOM     13  C   UNL     1      -2.480  14.585  21.685  0.00  0.00    +0.000 C 
ENDROOT
BRANCH  11  14
ATOM     14  N   UNL     1      -1.012  11.170  18.883  0.00  0.00    +0.000 N 
ATOM     15  C   UNL     1      -1.329  11.533  17.610  0.00  0.00    +0.000 C 
ATOM     16  O   UNL     1      -2.094  10.872  16.920  0.00  0.00    +0.000 OA
ATOM     17  H   UNL     1      -1.469  10.312  19.178  0.00  0.00    +0.000 HD
ENDBRANCH  11  14
BRANCH  13  18
ATOM     18  C   UNL     1      -3.882  14.522  22.287  0.00  0.00    +0.000 C 
ATOM     19  C   UNL     1      -4.266  14.261  23.553  0.00  0.00    +0.000 C 
BRANCH  19  20
ATOM     20  C   UNL     1      -5.666  14.146  23.900  0.00  0.00    +0.000 C 
ATOM     21  C   UNL     1      -6.611  15.092  23.861  0.00  0.00    +0.000 C 
ATOM     22  C   UNL     1      -7.916  14.555  24.291  0.00  0.00    +0.000 C 
ATOM     23  O   UNL     1      -7.671  13.173  24.536  0.00  0.00    +0.000 OA
ATOM     24  C   UNL     1      -6.361  12.906  24.308  0.00  0.00    +0.000 C 
ATOM     25  O   UNL     1      -5.825  11.815  24.416  0.00  0.00    +0.000 OA
ENDBRANCH  19  20
ENDBRANCH  13  18
BRANCH  10  26
ATOM     26  O   UNL     1       0.189   9.490  20.641  0.00  0.00    +0.000 OA
BRANCH  26  27
ATOM     27  C   UNL     1       1.219   8.784  21.185  0.00  0.00    +0.000 C 
ATOM     28  O   UNL     1       1.644   8.939  22.321  0.00  0.00    +0.000 OA
BRANCH  27  29
ATOM     29  C   UNL     1       1.752   7.726  20.260  0.00  0.00    +0.000 A 
ATOM     30  C   UNL     1       1.761   6.391  20.703  0.00  0.00    +0.000 A 
ATOM     31  C   UNL     1       2.172   5.351  19.859  0.00  0.00    +0.000 A 
ATOM     32  C   UNL     1       2.582   5.634  18.557  0.00  0.00    +0.000 A 
ATOM     33  C   UNL     1       2.600   6.957  18.112  0.00  0.00    +0.000 A 
ATOM     34  C   UNL     1       2.193   8.000  18.960  0.00  0.00    +0.000 A 
ENDBRANCH  27  29
ENDBRANCH  26  27
ENDBRANCH  10  26
TORSDOF 6
ENDMDL
