MODEL 1
REMARK VINA RESULT:      -6.7      0.000      0.000
REMARK  Name = 
REMARK  6 active torsions:
REMARK  status: ('A' for Active; 'I' for Inactive)
REMARK    1  A    between atoms: C_1  and  S_2
REMARK    2  A    between atoms: S_2  and  C_3
REMARK    3  A    between atoms: C_3  and  C_4
REMARK    4  A    between atoms: C_4  and  N_5
REMARK    5  A    between atoms: C_11  and  O_12
REMARK    6  A    between atoms: O_12  and  C_13
REMARK                            x       y       z     vdW  Elec       q    Type
REMARK                         _______ _______ _______ _____ _____    ______ ____
ROOT
ATOM      1  N   UNL     1       5.718   5.429  16.574  0.00  0.00    +0.000 N 
ATOM      2  C   UNL     1       6.705   6.014  17.348  0.00  0.00    +0.000 A 
ATOM      3  N   UNL     1       7.616   6.859  17.031  0.00  0.00    +0.000 NA
ATOM      4  S   UNL     1       6.628   5.477  19.037  0.00  0.00    +0.000 S 
ATOM      5  C   UNL     1       5.140   4.574  18.687  0.00  0.00    +0.000 A 
ATOM      6  C   UNL     1       4.367   3.876  19.606  0.00  0.00    +0.000 A 
ATOM      7  C   UNL     1       3.205   3.242  19.168  0.00  0.00    +0.000 A 
ATOM      8  C   UNL     1       2.825   3.365  17.825  0.00  0.00    +0.000 A 
ATOM      9  C   UNL     1       3.632   4.056  16.901  0.00  0.00    +0.000 A 
ATOM     10  C   UNL     1       4.808   4.666  17.324  0.00  0.00    +0.000 A 
ATOM     11  H   UNL     1       7.533   7.131  16.052  0.00  0.00    +0.000 HD
ENDROOT
BRANCH   1  12
ATOM     12  C   UNL     1       5.646   5.551  15.121  0.00  0.00    +0.000 C 
BRANCH  12  13
ATOM     13  C   UNL     1       6.654   4.615  14.432  0.00  0.00    +0.000 C 
BRANCH  13  15
ATOM     14  C   UNL     1       7.044   3.762  11.838  0.00  0.00    +0.000 C 
ATOM     15  S   UNL     1       5.821   3.600  13.165  0.00  0.00    +0.000 S 
ENDBRANCH  13  15
ENDBRANCH  12  13
ENDBRANCH   1  12
BRANCH   7  16
ATOM     16  O   UNL     1       2.510   2.604  20.147  0.00  0.00    +0.000 OA
BRANCH  16  17
ATOM     17  C   UNL     1       1.268   3.126  20.598  0.00  0.00    +0.000 C 
ATOM     18  F   UNL     1       1.218   4.472  20.647  0.00  0.00    +0.000 F 
ATOM     19  F   UNL     1       0.297   2.707  19.752  0.00  0.00    +0.000 F 
ATOM     20  F   UNL     1       0.997   2.633  21.824  0.00  0.00    +0.000 F 
ENDBRANCH  16  17
ENDBRANCH   7  16
TORSDOF 5
ENDMDL
MODEL 2
REMARK VINA RESULT:      -6.3      1.087      1.327
REMARK  Name = 
REMARK  6 active torsions:
REMARK  status: ('A' for Active; 'I' for Inactive)
REMARK    1  A    between atoms: C_1  and  S_2
REMARK    2  A    between atoms: S_2  and  C_3
REMARK    3  A    between atoms: C_3  and  C_4
REMARK    4  A    between atoms: C_4  and  N_5
REMARK    5  A    between atoms: C_11  and  O_12
REMARK    6  A    between atoms: O_12  and  C_13
REMARK                            x       y       z     vdW  Elec       q    Type
REMARK                         _______ _______ _______ _____ _____    ______ ____
ROOT
ATOM      1  N   UNL     1       5.487   5.358  16.545  0.00  0.00    +0.000 N 
ATOM      2  C   UNL     1       6.622   5.877  17.142  0.00  0.00    +0.000 A 
ATOM      3  N   UNL     1       7.654   6.432  16.622  0.00  0.00    +0.000 NA
ATOM      4  S   UNL     1       6.565   5.732  18.910  0.00  0.00    +0.000 S 
ATOM      5  C   UNL     1       4.909   5.100  18.810  0.00  0.00    +0.000 A 
ATOM      6  C   UNL     1       4.085   4.783  19.881  0.00  0.00    +0.000 A 
ATOM      7  C   UNL     1       2.794   4.322  19.626  0.00  0.00    +0.000 A 
ATOM      8  C   UNL     1       2.347   4.239  18.301  0.00  0.00    +0.000 A 
ATOM      9  C   UNL     1       3.204   4.541  17.225  0.00  0.00    +0.000 A 
ATOM     10  C   UNL     1       4.503   4.971  17.470  0.00  0.00    +0.000 A 
ATOM     11  H   UNL     1       7.554   6.505  15.610  0.00  0.00    +0.000 HD
ENDROOT
BRANCH   1  12
ATOM     12  C   UNL     1       5.334   5.187  15.103  0.00  0.00    +0.000 C 
BRANCH  12  13
ATOM     13  C   UNL     1       5.945   3.856  14.632  0.00  0.00    +0.000 C 
BRANCH  13  15
ATOM     14  C   UNL     1       5.537   3.040  12.029  0.00  0.00    +0.000 C 
ATOM     15  S   UNL     1       6.702   4.047  12.983  0.00  0.00    +0.000 S 
ENDBRANCH  13  15
ENDBRANCH  12  13
ENDBRANCH   1  12
BRANCH   7  16
ATOM     16  O   UNL     1       2.061   4.059  20.742  0.00  0.00    +0.000 OA
BRANCH  16  17
ATOM     17  C   UNL     1       1.896   2.721  21.189  0.00  0.00    +0.000 C 
ATOM     18  F   UNL     1       1.647   1.834  20.204  0.00  0.00    +0.000 F 
ATOM     19  F   UNL     1       3.034   2.335  21.814  0.00  0.00    +0.000 F 
ATOM     20  F   UNL     1       0.889   2.672  22.085  0.00  0.00    +0.000 F 
ENDBRANCH  16  17
ENDBRANCH   7  16
TORSDOF 5
ENDMDL
MODEL 3
REMARK VINA RESULT:      -6.3      4.673      6.394
REMARK  Name = 
REMARK  6 active torsions:
REMARK  status: ('A' for Active; 'I' for Inactive)
REMARK    1  A    between atoms: C_1  and  S_2
REMARK    2  A    between atoms: S_2  and  C_3
REMARK    3  A    between atoms: C_3  and  C_4
REMARK    4  A    between atoms: C_4  and  N_5
REMARK    5  A    between atoms: C_11  and  O_12
REMARK    6  A    between atoms: O_12  and  C_13
REMARK                            x       y       z     vdW  Elec       q    Type
REMARK                         _______ _______ _______ _____ _____    ______ ____
ROOT
ATOM      1  N   UNL     1       2.855   6.076  19.673  0.00  0.00    +0.000 N 
ATOM      2  C   UNL     1       2.254   7.313  19.521  0.00  0.00    +0.000 A 
ATOM      3  N   UNL     1       1.444   7.942  20.290  0.00  0.00    +0.000 NA
ATOM      4  S   UNL     1       2.738   8.102  18.007  0.00  0.00    +0.000 S 
ATOM      5  C   UNL     1       3.883   6.786  17.680  0.00  0.00    +0.000 A 
ATOM      6  C   UNL     1       4.765   6.711  16.611  0.00  0.00    +0.000 A 
ATOM      7  C   UNL     1       5.623   5.615  16.518  0.00  0.00    +0.000 A 
ATOM      8  C   UNL     1       5.604   4.646  17.529  0.00  0.00    +0.000 A 
ATOM      9  C   UNL     1       4.686   4.724  18.594  0.00  0.00    +0.000 A 
ATOM     10  C   UNL     1       3.806   5.798  18.678  0.00  0.00    +0.000 A 
ATOM     11  H   UNL     1       1.278   7.418  21.147  0.00  0.00    +0.000 HD
ENDROOT
BRANCH   1  12
ATOM     12  C   UNL     1       2.513   5.132  20.733  0.00  0.00    +0.000 C 
BRANCH  12  13
ATOM     13  C   UNL     1       1.249   4.331  20.379  0.00  0.00    +0.000 C 
BRANCH  13  15
ATOM     14  C   UNL     1       1.674   2.524  18.338  0.00  0.00    +0.000 C 
ATOM     15  S   UNL     1       1.653   2.566  20.149  0.00  0.00    +0.000 S 
ENDBRANCH  13  15
ENDBRANCH  12  13
ENDBRANCH   1  12
BRANCH   7  16
ATOM     16  O   UNL     1       6.460   5.646  15.447  0.00  0.00    +0.000 OA
BRANCH  16  17
ATOM     17  C   UNL     1       6.368   4.651  14.438  0.00  0.00    +0.000 C 
ATOM     18  F   UNL     1       6.714   3.414  14.847  0.00  0.00    +0.000 F 
ATOM     19  F   UNL     1       5.086   4.599  14.005  0.00  0.00    +0.000 F 
ATOM     20  F   UNL     1       7.149   5.001  13.395  0.00  0.00    +0.000 F 
ENDBRANCH  16  17
ENDBRANCH   7  16
TORSDOF 5
ENDMDL
MODEL 4
REMARK VINA RESULT:      -6.3      1.165      1.480
REMARK  Name = 
REMARK  6 active torsions:
REMARK  status: ('A' for Active; 'I' for Inactive)
REMARK    1  A    between atoms: C_1  and  S_2
REMARK    2  A    between atoms: S_2  and  C_3
REMARK    3  A    between atoms: C_3  and  C_4
REMARK    4  A    between atoms: C_4  and  N_5
REMARK    5  A    between atoms: C_11  and  O_12
REMARK    6  A    between atoms: O_12  and  C_13
REMARK                            x       y       z     vdW  Elec       q    Type
REMARK                         _______ _______ _______ _____ _____    ______ ____
ROOT
ATOM      1  N   UNL     1       6.006   4.447  16.331  0.00  0.00    +0.000 N 
ATOM      2  C   UNL     1       6.767   5.557  16.652  0.00  0.00    +0.000 A 
ATOM      3  N   UNL     1       7.660   6.176  15.972  0.00  0.00    +0.000 NA
ATOM      4  S   UNL     1       6.380   6.179  18.268  0.00  0.00    +0.000 S 
ATOM      5  C   UNL     1       5.065   4.996  18.415  0.00  0.00    +0.000 A 
ATOM      6  C   UNL     1       4.172   4.888  19.472  0.00  0.00    +0.000 A 
ATOM      7  C   UNL     1       3.174   3.915  19.417  0.00  0.00    +0.000 A 
ATOM      8  C   UNL     1       3.071   3.107  18.277  0.00  0.00    +0.000 A 
ATOM      9  C   UNL     1       4.001   3.212  17.224  0.00  0.00    +0.000 A 
ATOM     10  C   UNL     1       5.017   4.159  17.286  0.00  0.00    +0.000 A 
ATOM     11  H   UNL     1       7.762   5.762  15.046  0.00  0.00    +0.000 HD
ENDROOT
BRANCH   1  12
ATOM     12  C   UNL     1       6.227   3.627  15.143  0.00  0.00    +0.000 C 
BRANCH  12  13
ATOM     13  C   UNL     1       5.485   4.202  13.923  0.00  0.00    +0.000 C 
BRANCH  13  15
ATOM     14  C   UNL     1       4.432   3.235  11.565  0.00  0.00    +0.000 C 
ATOM     15  S   UNL     1       6.037   3.378  12.392  0.00  0.00    +0.000 S 
ENDBRANCH  13  15
ENDBRANCH  12  13
ENDBRANCH   1  12
BRANCH   7  16
ATOM     16  O   UNL     1       2.339   3.905  20.490  0.00  0.00    +0.000 OA
BRANCH  16  17
ATOM     17  C   UNL     1       1.337   2.905  20.607  0.00  0.00    +0.000 C 
ATOM     18  F   UNL     1       1.719   1.685  20.176  0.00  0.00    +0.000 F 
ATOM     19  F   UNL     1       0.995   2.793  21.912  0.00  0.00    +0.000 F 
ATOM     20  F   UNL     1       0.243   3.288  19.918  0.00  0.00    +0.000 F 
ENDBRANCH  16  17
ENDBRANCH   7  16
TORSDOF 5
ENDMDL
MODEL 5
REMARK VINA RESULT:      -6.2      1.029      1.132
REMARK  Name = 
REMARK  6 active torsions:
REMARK  status: ('A' for Active; 'I' for Inactive)
REMARK    1  A    between atoms: C_1  and  S_2
REMARK    2  A    between atoms: S_2  and  C_3
REMARK    3  A    between atoms: C_3  and  C_4
REMARK    4  A    between atoms: C_4  and  N_5
REMARK    5  A    between atoms: C_11  and  O_12
REMARK    6  A    between atoms: O_12  and  C_13
REMARK                            x       y       z     vdW  Elec       q    Type
REMARK                         _______ _______ _______ _____ _____    ______ ____
ROOT
ATOM      1  N   UNL     1       5.379   5.193  16.422  0.00  0.00    +0.000 N 
ATOM      2  C   UNL     1       6.496   5.783  16.986  0.00  0.00    +0.000 A 
ATOM      3  N   UNL     1       7.512   6.335  16.433  0.00  0.00    +0.000 NA
ATOM      4  S   UNL     1       6.437   5.750  18.759  0.00  0.00    +0.000 S 
ATOM      5  C   UNL     1       4.801   5.064  18.698  0.00  0.00    +0.000 A 
ATOM      6  C   UNL     1       3.983   4.791  19.786  0.00  0.00    +0.000 A 
ATOM      7  C   UNL     1       2.707   4.277  19.559  0.00  0.00    +0.000 A 
ATOM      8  C   UNL     1       2.268   4.096  18.242  0.00  0.00    +0.000 A 
ATOM      9  C   UNL     1       3.118   4.354  17.149  0.00  0.00    +0.000 A 
ATOM     10  C   UNL     1       4.404   4.838  17.368  0.00  0.00    +0.000 A 
ATOM     11  H   UNL     1       7.414   6.340  15.418  0.00  0.00    +0.000 HD
ENDROOT
BRANCH   1  12
ATOM     12  C   UNL     1       5.236   4.926  14.993  0.00  0.00    +0.000 C 
BRANCH  12  13
ATOM     13  C   UNL     1       6.272   3.895  14.513  0.00  0.00    +0.000 C 
BRANCH  13  15
ATOM     14  C   UNL     1       7.441   4.494  12.088  0.00  0.00    +0.000 C 
ATOM     15  S   UNL     1       6.045   3.538  12.738  0.00  0.00    +0.000 S 
ENDBRANCH  13  15
ENDBRANCH  12  13
ENDBRANCH   1  12
BRANCH   7  16
ATOM     16  O   UNL     1       1.979   4.064  20.688  0.00  0.00    +0.000 OA
BRANCH  16  17
ATOM     17  C   UNL     1       1.879   2.758  21.238  0.00  0.00    +0.000 C 
ATOM     18  F   UNL     1       0.949   2.635  22.207  0.00  0.00    +0.000 F 
ATOM     19  F   UNL     1       1.556   1.899  20.244  0.00  0.00    +0.000 F 
ATOM     20  F   UNL     1       3.078   2.392  21.736  0.00  0.00    +0.000 F 
ENDBRANCH  16  17
ENDBRANCH   7  16
TORSDOF 5
ENDMDL
MODEL 6
REMARK VINA RESULT:      -6.2      1.043      1.205
REMARK  Name = 
REMARK  6 active torsions:
REMARK  status: ('A' for Active; 'I' for Inactive)
REMARK    1  A    between atoms: C_1  and  S_2
REMARK    2  A    between atoms: S_2  and  C_3
REMARK    3  A    between atoms: C_3  and  C_4
REMARK    4  A    between atoms: C_4  and  N_5
REMARK    5  A    between atoms: C_11  and  O_12
REMARK    6  A    between atoms: O_12  and  C_13
REMARK                            x       y       z     vdW  Elec       q    Type
REMARK                         _______ _______ _______ _____ _____    ______ ____
ROOT
ATOM      1  N   UNL     1       5.520   4.900  16.078  0.00  0.00    +0.000 N 
ATOM      2  C   UNL     1       6.663   5.534  16.533  0.00  0.00    +0.000 A 
ATOM      3  N   UNL     1       7.617   6.091  15.883  0.00  0.00    +0.000 NA
ATOM      4  S   UNL     1       6.746   5.558  18.305  0.00  0.00    +0.000 S 
ATOM      5  C   UNL     1       5.128   4.832  18.396  0.00  0.00    +0.000 A 
ATOM      6  C   UNL     1       4.406   4.576  19.554  0.00  0.00    +0.000 A 
ATOM      7  C   UNL     1       3.129   4.025  19.446  0.00  0.00    +0.000 A 
ATOM      8  C   UNL     1       2.592   3.790  18.174  0.00  0.00    +0.000 A 
ATOM      9  C   UNL     1       3.347   4.032  17.010  0.00  0.00    +0.000 A 
ATOM     10  C   UNL     1       4.632   4.553  17.110  0.00  0.00    +0.000 A 
ATOM     11  H   UNL     1       7.439   6.060  14.880  0.00  0.00    +0.000 HD
ENDROOT
BRANCH   1  12
ATOM     12  C   UNL     1       5.271   4.583  14.675  0.00  0.00    +0.000 C 
BRANCH  12  13
ATOM     13  C   UNL     1       6.282   3.548  14.150  0.00  0.00    +0.000 C 
BRANCH  13  15
ATOM     14  C   UNL     1       4.709   3.361  11.892  0.00  0.00    +0.000 C 
ATOM     15  S   UNL     1       6.438   3.668  12.336  0.00  0.00    +0.000 S 
ENDBRANCH  13  15
ENDBRANCH  12  13
ENDBRANCH   1  12
BRANCH   7  16
ATOM     16  O   UNL     1       2.499   3.833  20.636  0.00  0.00    +0.000 OA
BRANCH  16  17
ATOM     17  C   UNL     1       1.411   2.924  20.729  0.00  0.00    +0.000 C 
ATOM     18  F   UNL     1       1.090   2.572  21.990  0.00  0.00    +0.000 F 
ATOM     19  F   UNL     1       0.321   3.504  20.173  0.00  0.00    +0.000 F 
ATOM     20  F   UNL     1       1.699   1.811  20.024  0.00  0.00    +0.000 F 
ENDBRANCH  16  17
ENDBRANCH   7  16
TORSDOF 5
ENDMDL
MODEL 7
REMARK VINA RESULT:      -6.2      2.101      2.666
REMARK  Name = 
REMARK  6 active torsions:
REMARK  status: ('A' for Active; 'I' for Inactive)
REMARK    1  A    between atoms: C_1  and  S_2
REMARK    2  A    between atoms: S_2  and  C_3
REMARK    3  A    between atoms: C_3  and  C_4
REMARK    4  A    between atoms: C_4  and  N_5
REMARK    5  A    between atoms: C_11  and  O_12
REMARK    6  A    between atoms: O_12  and  C_13
REMARK                            x       y       z     vdW  Elec       q    Type
REMARK                         _______ _______ _______ _____ _____    ______ ____
ROOT
ATOM      1  N   UNL     1       4.931   4.874  16.416  0.00  0.00    +0.000 N 
ATOM      2  C   UNL     1       4.679   6.234  16.379  0.00  0.00    +0.000 A 
ATOM      3  N   UNL     1       5.116   7.138  15.582  0.00  0.00    +0.000 NA
ATOM      4  S   UNL     1       3.552   6.733  17.656  0.00  0.00    +0.000 S 
ATOM      5  C   UNL     1       3.322   5.036  18.124  0.00  0.00    +0.000 A 
ATOM      6  C   UNL     1       2.454   4.563  19.098  0.00  0.00    +0.000 A 
ATOM      7  C   UNL     1       2.375   3.189  19.323  0.00  0.00    +0.000 A 
ATOM      8  C   UNL     1       3.136   2.322  18.528  0.00  0.00    +0.000 A 
ATOM      9  C   UNL     1       4.030   2.819  17.561  0.00  0.00    +0.000 A 
ATOM     10  C   UNL     1       4.138   4.190  17.352  0.00  0.00    +0.000 A 
ATOM     11  H   UNL     1       5.712   6.729  14.864  0.00  0.00    +0.000 HD
ENDROOT
BRANCH   1  12
ATOM     12  C   UNL     1       5.946   4.214  15.599  0.00  0.00    +0.000 C 
BRANCH  12  13
ATOM     13  C   UNL     1       7.360   4.687  15.977  0.00  0.00    +0.000 C 
BRANCH  13  15
ATOM     14  C   UNL     1       7.675   6.428  18.094  0.00  0.00    +0.000 C 
ATOM     15  S   UNL     1       7.587   4.645  17.787  0.00  0.00    +0.000 S 
ENDBRANCH  13  15
ENDBRANCH  12  13
ENDBRANCH   1  12
BRANCH   7  16
ATOM     16  O   UNL     1       1.481   2.827  20.282  0.00  0.00    +0.000 OA
BRANCH  16  17
ATOM     17  C   UNL     1       1.847   2.875  21.654  0.00  0.00    +0.000 C 
ATOM     18  F   UNL     1       2.146   4.111  22.105  0.00  0.00    +0.000 F 
ATOM     19  F   UNL     1       0.812   2.407  22.389  0.00  0.00    +0.000 F 
ATOM     20  F   UNL     1       2.907   2.067  21.860  0.00  0.00    +0.000 F 
ENDBRANCH  16  17
ENDBRANCH   7  16
TORSDOF 5
ENDMDL
MODEL 8
REMARK VINA RESULT:      -6.2      2.083      3.748
REMARK  Name = 
REMARK  6 active torsions:
REMARK  status: ('A' for Active; 'I' for Inactive)
REMARK    1  A    between atoms: C_1  and  S_2
REMARK    2  A    between atoms: S_2  and  C_3
REMARK    3  A    between atoms: C_3  and  C_4
REMARK    4  A    between atoms: C_4  and  N_5
REMARK    5  A    between atoms: C_11  and  O_12
REMARK    6  A    between atoms: O_12  and  C_13
REMARK                            x       y       z     vdW  Elec       q    Type
REMARK                         _______ _______ _______ _____ _____    ______ ____
ROOT
ATOM      1  N   UNL     1       6.520   5.733  17.345  0.00  0.00    +0.000 N 
ATOM      2  C   UNL     1       6.622   5.306  16.033  0.00  0.00    +0.000 A 
ATOM      3  N   UNL     1       7.624   5.314  15.233  0.00  0.00    +0.000 NA
ATOM      4  S   UNL     1       5.091   4.641  15.432  0.00  0.00    +0.000 S 
ATOM      5  C   UNL     1       4.375   4.816  17.047  0.00  0.00    +0.000 A 
ATOM      6  C   UNL     1       3.103   4.413  17.430  0.00  0.00    +0.000 A 
ATOM      7  C   UNL     1       2.705   4.599  18.753  0.00  0.00    +0.000 A 
ATOM      8  C   UNL     1       3.614   5.142  19.670  0.00  0.00    +0.000 A 
ATOM      9  C   UNL     1       4.893   5.568  19.261  0.00  0.00    +0.000 A 
ATOM     10  C   UNL     1       5.286   5.414  17.936  0.00  0.00    +0.000 A 
ATOM     11  H   UNL     1       8.457   5.670  15.700  0.00  0.00    +0.000 HD
ENDROOT
BRANCH   1  12
ATOM     12  C   UNL     1       7.567   6.475  18.041  0.00  0.00    +0.000 C 
BRANCH  12  13
ATOM     13  C   UNL     1       7.592   7.949  17.600  0.00  0.00    +0.000 C 
BRANCH  13  15
ATOM     14  C   UNL     1       8.544  10.525  17.852  0.00  0.00    +0.000 C 
ATOM     15  S   UNL     1       8.679   8.926  18.692  0.00  0.00    +0.000 S 
ENDBRANCH  13  15
ENDBRANCH  12  13
ENDBRANCH   1  12
BRANCH   7  16
ATOM     16  O   UNL     1       1.450   4.153  19.030  0.00  0.00    +0.000 OA
BRANCH  16  17
ATOM     17  C   UNL     1       1.255   2.844  19.546  0.00  0.00    +0.000 C 
ATOM     18  F   UNL     1       2.365   2.079  19.551  0.00  0.00    +0.000 F 
ATOM     19  F   UNL     1       0.819   2.948  20.824  0.00  0.00    +0.000 F 
ATOM     20  F   UNL     1       0.299   2.221  18.827  0.00  0.00    +0.000 F 
ENDBRANCH  16  17
ENDBRANCH   7  16
TORSDOF 5
ENDMDL
MODEL 9
REMARK VINA RESULT:      -6.1      1.876      3.531
REMARK  Name = 
REMARK  6 active torsions:
REMARK  status: ('A' for Active; 'I' for Inactive)
REMARK    1  A    between atoms: C_1  and  S_2
REMARK    2  A    between atoms: S_2  and  C_3
REMARK    3  A    between atoms: C_3  and  C_4
REMARK    4  A    between atoms: C_4  and  N_5
REMARK    5  A    between atoms: C_11  and  O_12
REMARK    6  A    between atoms: O_12  and  C_13
REMARK                            x       y       z     vdW  Elec       q    Type
REMARK                         _______ _______ _______ _____ _____    ______ ____
ROOT
ATOM      1  N   UNL     1       6.732   5.323  17.194  0.00  0.00    +0.000 N 
ATOM      2  C   UNL     1       6.790   5.142  15.824  0.00  0.00    +0.000 A 
ATOM      3  N   UNL     1       7.671   5.521  14.973  0.00  0.00    +0.000 NA
ATOM      4  S   UNL     1       5.403   4.215  15.220  0.00  0.00    +0.000 S 
ATOM      5  C   UNL     1       4.844   3.956  16.885  0.00  0.00    +0.000 A 
ATOM      6  C   UNL     1       3.751   3.195  17.275  0.00  0.00    +0.000 A 
ATOM      7  C   UNL     1       3.464   3.071  18.634  0.00  0.00    +0.000 A 
ATOM      8  C   UNL     1       4.314   3.677  19.569  0.00  0.00    +0.000 A 
ATOM      9  C   UNL     1       5.404   4.466  19.156  0.00  0.00    +0.000 A 
ATOM     10  C   UNL     1       5.679   4.620  17.801  0.00  0.00    +0.000 A 
ATOM     11  H   UNL     1       8.442   5.999  15.438  0.00  0.00    +0.000 HD
ENDROOT
BRANCH   1  12
ATOM     12  C   UNL     1       7.643   6.188  17.938  0.00  0.00    +0.000 C 
BRANCH  12  13
ATOM     13  C   UNL     1       7.409   7.669  17.595  0.00  0.00    +0.000 C 
BRANCH  13  15
ATOM     14  C   UNL     1       8.247  10.296  17.685  0.00  0.00    +0.000 C 
ATOM     15  S   UNL     1       8.537   8.735  18.556  0.00  0.00    +0.000 S 
ENDBRANCH  13  15
ENDBRANCH  12  13
ENDBRANCH   1  12
BRANCH   7  16
ATOM     16  O   UNL     1       2.387   2.289  18.912  0.00  0.00    +0.000 OA
BRANCH  16  17
ATOM     17  C   UNL     1       1.135   2.882  19.226  0.00  0.00    +0.000 C 
ATOM     18  F   UNL     1       1.035   4.181  18.878  0.00  0.00    +0.000 F 
ATOM     19  F   UNL     1       0.164   2.203  18.573  0.00  0.00    +0.000 F 
ATOM     20  F   UNL     1       0.908   2.767  20.551  0.00  0.00    +0.000 F 
ENDBRANCH  16  17
ENDBRANCH   7  16
TORSDOF 5
ENDMDL
