MODEL 1
REMARK VINA RESULT:      -6.9      0.000      0.000
REMARK  Name = 
REMARK  5 active torsions:
REMARK  status: ('A' for Active; 'I' for Inactive)
REMARK    1  A    between atoms: C_2  and  C_3
REMARK    2  A    between atoms: C_3  and  C_16
REMARK    3  A    between atoms: N_9  and  C_10
REMARK    4  A    between atoms: C_20  and  C_21
REMARK    5  A    between atoms: C_21  and  O_23
REMARK                            x       y       z     vdW  Elec       q    Type
REMARK                         _______ _______ _______ _____ _____    ______ ____
ROOT
ATOM      1  C   UNL     1       3.908   4.498  17.451  0.00  0.00    +0.000 C 
ATOM      2  C   UNL     1       4.981   4.506  16.602  0.00  0.00    +0.000 C 
ATOM      3  S   UNL     1       5.321   3.014  15.685  0.00  0.00    +0.000 S 
ATOM      4  C   UNL     1       5.408   3.744  14.033  0.00  0.00    +0.000 C 
ATOM      5  C   UNL     1       6.412   4.883  14.011  0.00  0.00    +0.000 C 
ATOM      6  C   UNL     1       6.000   6.041  14.913  0.00  0.00    +0.000 C 
ATOM      7  N   UNL     1       5.787   5.639  16.322  0.00  0.00    +0.000 N 
ENDROOT
BRANCH   1   8
ATOM      8  C   UNL     1       3.429   5.672  18.115  0.00  0.00    +0.000 A 
ATOM      9  N   UNL     1       3.037   5.830  19.365  0.00  0.00    +0.000 NA
ATOM     10  C   UNL     1       2.435   7.060  19.430  0.00  0.00    +0.000 A 
ATOM     11  C   UNL     1       1.799   7.684  20.507  0.00  0.00    +0.000 A 
ATOM     12  C   UNL     1       1.153   8.909  20.287  0.00  0.00    +0.000 A 
ATOM     13  C   UNL     1       1.211   9.538  19.032  0.00  0.00    +0.000 A 
ATOM     14  C   UNL     1       1.888   8.943  17.954  0.00  0.00    +0.000 A 
ATOM     15  C   UNL     1       2.470   7.698  18.196  0.00  0.00    +0.000 A 
ATOM     16  N   UNL     1       3.161   6.823  17.401  0.00  0.00    +0.000 N 
ATOM     17  H   UNL     1       3.409   6.968  16.432  0.00  0.00    +0.000 HD
BRANCH  12  18
ATOM     18  C   UNL     1       0.427   9.503  21.438  0.00  0.00    +0.000 C 
ATOM     19  O   UNL     1      -0.447   8.914  22.046  0.00  0.00    +0.000 OA
BRANCH  18  20
ATOM     20  O   UNL     1       0.786  10.776  21.709  0.00  0.00    +0.000 OA
ATOM     21  H   UNL     1       0.642  11.410  20.985  0.00  0.00    +0.000 HD
ENDBRANCH  18  20
ENDBRANCH  12  18
ENDBRANCH   1   8
BRANCH   7  22
ATOM     22  C   UNL     1       6.678   6.209  17.277  0.00  0.00    +0.000 A 
ATOM     23  C   UNL     1       7.172   5.456  18.362  0.00  0.00    +0.000 A 
ATOM     24  C   UNL     1       8.066   5.997  19.292  0.00  0.00    +0.000 A 
ATOM     25  C   UNL     1       8.502   7.308  19.158  0.00  0.00    +0.000 A 
ATOM     26  C   UNL     1       8.041   8.075  18.092  0.00  0.00    +0.000 A 
ATOM     27  C   UNL     1       7.146   7.530  17.162  0.00  0.00    +0.000 A 
ENDBRANCH   7  22
BRANCH   1  29
ATOM     28  N   UNL     1       2.232   2.282  17.578  0.00  0.00    +0.000 NA
ATOM     29  C   UNL     1       2.992   3.287  17.521  0.00  0.00    +0.000 C 
ENDBRANCH   1  29
TORSDOF 5
ENDMDL
MODEL 2
REMARK VINA RESULT:      -6.9      1.891      2.536
REMARK  Name = 
REMARK  5 active torsions:
REMARK  status: ('A' for Active; 'I' for Inactive)
REMARK    1  A    between atoms: C_2  and  C_3
REMARK    2  A    between atoms: C_3  and  C_16
REMARK    3  A    between atoms: N_9  and  C_10
REMARK    4  A    between atoms: C_20  and  C_21
REMARK    5  A    between atoms: C_21  and  O_23
REMARK                            x       y       z     vdW  Elec       q    Type
REMARK                         _______ _______ _______ _____ _____    ______ ____
ROOT
ATOM      1  C   UNL     1       3.035   4.579  20.118  0.00  0.00    +0.000 C 
ATOM      2  C   UNL     1       3.790   3.898  19.203  0.00  0.00    +0.000 C 
ATOM      3  S   UNL     1       3.928   2.129  19.396  0.00  0.00    +0.000 S 
ATOM      4  C   UNL     1       3.453   1.652  17.717  0.00  0.00    +0.000 C 
ATOM      5  C   UNL     1       4.324   2.365  16.698  0.00  0.00    +0.000 C 
ATOM      6  C   UNL     1       4.134   3.878  16.727  0.00  0.00    +0.000 C 
ATOM      7  N   UNL     1       4.394   4.476  18.057  0.00  0.00    +0.000 N 
ENDROOT
BRANCH   1   8
ATOM      8  C   UNL     1       2.708   5.965  19.983  0.00  0.00    +0.000 A 
ATOM      9  N   UNL     1       2.220   6.805  20.878  0.00  0.00    +0.000 NA
ATOM     10  C   UNL     1       1.847   7.931  20.189  0.00  0.00    +0.000 A 
ATOM     11  C   UNL     1       1.223   9.092  20.655  0.00  0.00    +0.000 A 
ATOM     12  C   UNL     1       0.836  10.064  19.722  0.00  0.00    +0.000 A 
ATOM     13  C   UNL     1       1.138   9.916  18.358  0.00  0.00    +0.000 A 
ATOM     14  C   UNL     1       1.807   8.774  17.885  0.00  0.00    +0.000 A 
ATOM     15  C   UNL     1       2.126   7.802  18.834  0.00  0.00    +0.000 A 
ATOM     16  N   UNL     1       2.728   6.575  18.744  0.00  0.00    +0.000 N 
ATOM     17  H   UNL     1       3.098   6.155  17.904  0.00  0.00    +0.000 HD
BRANCH  12  18
ATOM     18  C   UNL     1       0.111  11.249  20.248  0.00  0.00    +0.000 C 
ATOM     19  O   UNL     1      -0.959  11.622  19.805  0.00  0.00    +0.000 OA
BRANCH  18  20
ATOM     20  O   UNL     1       0.777  11.907  21.220  0.00  0.00    +0.000 OA
ATOM     21  H   UNL     1       0.214  12.360  21.873  0.00  0.00    +0.000 HD
ENDBRANCH  18  20
ENDBRANCH  12  18
ENDBRANCH   1   8
BRANCH   7  22
ATOM     22  C   UNL     1       5.497   5.375  18.134  0.00  0.00    +0.000 A 
ATOM     23  C   UNL     1       6.522   5.200  19.086  0.00  0.00    +0.000 A 
ATOM     24  C   UNL     1       7.622   6.061  19.156  0.00  0.00    +0.000 A 
ATOM     25  C   UNL     1       7.733   7.121  18.266  0.00  0.00    +0.000 A 
ATOM     26  C   UNL     1       6.744   7.316  17.308  0.00  0.00    +0.000 A 
ATOM     27  C   UNL     1       5.644   6.450  17.240  0.00  0.00    +0.000 A 
ENDBRANCH   7  22
BRANCH   1  29
ATOM     28  N   UNL     1       1.629   3.202  22.084  0.00  0.00    +0.000 NA
ATOM     29  C   UNL     1       2.266   3.826  21.192  0.00  0.00    +0.000 C 
ENDBRANCH   1  29
TORSDOF 5
ENDMDL
MODEL 3
REMARK VINA RESULT:      -6.5      2.238      3.200
REMARK  Name = 
REMARK  5 active torsions:
REMARK  status: ('A' for Active; 'I' for Inactive)
REMARK    1  A    between atoms: C_2  and  C_3
REMARK    2  A    between atoms: C_3  and  C_16
REMARK    3  A    between atoms: N_9  and  C_10
REMARK    4  A    between atoms: C_20  and  C_21
REMARK    5  A    between atoms: C_21  and  O_23
REMARK                            x       y       z     vdW  Elec       q    Type
REMARK                         _______ _______ _______ _____ _____    ______ ____
ROOT
ATOM      1  C   UNL     1       2.945   4.452  20.174  0.00  0.00    +0.000 C 
ATOM      2  C   UNL     1       3.742   3.771  19.296  0.00  0.00    +0.000 C 
ATOM      3  S   UNL     1       4.128   2.071  19.676  0.00  0.00    +0.000 S 
ATOM      4  C   UNL     1       3.646   1.341  18.093  0.00  0.00    +0.000 C 
ATOM      5  C   UNL     1       4.365   2.034  16.950  0.00  0.00    +0.000 C 
ATOM      6  C   UNL     1       3.973   3.503  16.822  0.00  0.00    +0.000 C 
ATOM      7  N   UNL     1       4.209   4.282  18.058  0.00  0.00    +0.000 N 
ENDROOT
BRANCH   1   8
ATOM      8  C   UNL     1       2.426   5.759  19.906  0.00  0.00    +0.000 A 
ATOM      9  N   UNL     1       2.625   6.544  18.864  0.00  0.00    +0.000 NA
ATOM     10  C   UNL     1       2.122   7.774  19.204  0.00  0.00    +0.000 A 
ATOM     11  C   UNL     1       2.134   8.971  18.482  0.00  0.00    +0.000 A 
ATOM     12  C   UNL     1       1.653  10.132  19.102  0.00  0.00    +0.000 A 
ATOM     13  C   UNL     1       1.098  10.084  20.392  0.00  0.00    +0.000 A 
ATOM     14  C   UNL     1       1.038   8.878  21.110  0.00  0.00    +0.000 A 
ATOM     15  C   UNL     1       1.576   7.753  20.482  0.00  0.00    +0.000 A 
ATOM     16  N   UNL     1       1.726   6.450  20.875  0.00  0.00    +0.000 N 
ATOM     17  H   UNL     1       1.413   6.053  21.750  0.00  0.00    +0.000 HD
BRANCH  12  18
ATOM     18  C   UNL     1       1.749  11.397  18.329  0.00  0.00    +0.000 C 
ATOM     19  O   UNL     1       1.139  12.406  18.629  0.00  0.00    +0.000 OA
BRANCH  18  20
ATOM     20  O   UNL     1       2.528  11.305  17.230  0.00  0.00    +0.000 OA
ATOM     21  H   UNL     1       3.429  10.973  17.388  0.00  0.00    +0.000 HD
ENDBRANCH  18  20
ENDBRANCH  12  18
ENDBRANCH   1   8
BRANCH   7  22
ATOM     22  C   UNL     1       5.182   5.320  17.967  0.00  0.00    +0.000 A 
ATOM     23  C   UNL     1       6.358   5.294  18.745  0.00  0.00    +0.000 A 
ATOM     24  C   UNL     1       7.332   6.294  18.647  0.00  0.00    +0.000 A 
ATOM     25  C   UNL     1       7.161   7.347  17.758  0.00  0.00    +0.000 A 
ATOM     26  C   UNL     1       6.017   7.397  16.969  0.00  0.00    +0.000 A 
ATOM     27  C   UNL     1       5.044   6.393  17.069  0.00  0.00    +0.000 A 
ENDBRANCH   7  22
BRANCH   1  29
ATOM     28  N   UNL     1       1.830   3.148  22.363  0.00  0.00    +0.000 NA
ATOM     29  C   UNL     1       2.335   3.739  21.371  0.00  0.00    +0.000 C 
ENDBRANCH   1  29
TORSDOF 5
ENDMDL
MODEL 4
REMARK VINA RESULT:      -6.4      4.859      8.412
REMARK  Name = 
REMARK  5 active torsions:
REMARK  status: ('A' for Active; 'I' for Inactive)
REMARK    1  A    between atoms: C_2  and  C_3
REMARK    2  A    between atoms: C_3  and  C_16
REMARK    3  A    between atoms: N_9  and  C_10
REMARK    4  A    between atoms: C_20  and  C_21
REMARK    5  A    between atoms: C_21  and  O_23
REMARK                            x       y       z     vdW  Elec       q    Type
REMARK                         _______ _______ _______ _____ _____    ______ ____
ROOT
ATOM      1  C   UNL     1      -0.914  10.759  18.887  0.00  0.00    +0.000 C 
ATOM      2  C   UNL     1      -1.032  11.856  19.696  0.00  0.00    +0.000 C 
ATOM      3  S   UNL     1      -2.634  12.634  19.805  0.00  0.00    +0.000 S 
ATOM      4  C   UNL     1      -2.782  12.659  21.608  0.00  0.00    +0.000 C 
ATOM      5  C   UNL     1      -1.575  13.339  22.228  0.00  0.00    +0.000 C 
ATOM      6  C   UNL     1      -0.279  12.577  21.967  0.00  0.00    +0.000 C 
ATOM      7  N   UNL     1      -0.003  12.366  20.528  0.00  0.00    +0.000 N 
ENDROOT
BRANCH   1   8
ATOM      8  C   UNL     1       0.263   9.947  18.839  0.00  0.00    +0.000 A 
ATOM      9  N   UNL     1       1.113   9.755  17.847  0.00  0.00    +0.000 NA
ATOM     10  C   UNL     1       1.911   8.704  18.218  0.00  0.00    +0.000 A 
ATOM     11  C   UNL     1       2.929   8.064  17.505  0.00  0.00    +0.000 A 
ATOM     12  C   UNL     1       3.526   6.926  18.064  0.00  0.00    +0.000 A 
ATOM     13  C   UNL     1       3.169   6.481  19.348  0.00  0.00    +0.000 A 
ATOM     14  C   UNL     1       2.180   7.145  20.095  0.00  0.00    +0.000 A 
ATOM     15  C   UNL     1       1.569   8.240  19.483  0.00  0.00    +0.000 A 
ATOM     16  N   UNL     1       0.566   9.086  19.876  0.00  0.00    +0.000 N 
ATOM     17  H   UNL     1       0.089   9.070  20.766  0.00  0.00    +0.000 HD
BRANCH  12  18
ATOM     18  C   UNL     1       4.552   6.233  17.244  0.00  0.00    +0.000 C 
ATOM     19  O   UNL     1       4.420   5.092  16.842  0.00  0.00    +0.000 OA
BRANCH  18  20
ATOM     20  O   UNL     1       5.667   6.964  17.034  0.00  0.00    +0.000 OA
ATOM     21  H   UNL     1       5.555   7.731  16.445  0.00  0.00    +0.000 HD
ENDBRANCH  18  20
ENDBRANCH  12  18
ENDBRANCH   1   8
BRANCH   7  22
ATOM     22  C   UNL     1       1.161  13.007  20.014  0.00  0.00    +0.000 A 
ATOM     23  C   UNL     1       1.270  13.349  18.650  0.00  0.00    +0.000 A 
ATOM     24  C   UNL     1       2.397  14.000  18.138  0.00  0.00    +0.000 A 
ATOM     25  C   UNL     1       3.448  14.338  18.980  0.00  0.00    +0.000 A 
ATOM     26  C   UNL     1       3.368  14.024  20.333  0.00  0.00    +0.000 A 
ATOM     27  C   UNL     1       2.237  13.372  20.843  0.00  0.00    +0.000 A 
ENDBRANCH   7  22
BRANCH   1  29
ATOM     28  N   UNL     1      -3.152   9.697  17.622  0.00  0.00    +0.000 NA
ATOM     29  C   UNL     1      -2.137  10.179  18.196  0.00  0.00    +0.000 C 
ENDBRANCH   1  29
TORSDOF 5
ENDMDL
MODEL 5
REMARK VINA RESULT:      -6.4      8.054     10.179
REMARK  Name = 
REMARK  5 active torsions:
REMARK  status: ('A' for Active; 'I' for Inactive)
REMARK    1  A    between atoms: C_2  and  C_3
REMARK    2  A    between atoms: C_3  and  C_16
REMARK    3  A    between atoms: N_9  and  C_10
REMARK    4  A    between atoms: C_20  and  C_21
REMARK    5  A    between atoms: C_21  and  O_23
REMARK                            x       y       z     vdW  Elec       q    Type
REMARK                         _______ _______ _______ _____ _____    ______ ____
ROOT
ATOM      1  C   UNL     1       8.271  15.331  20.857  0.00  0.00    +0.000 C 
ATOM      2  C   UNL     1       9.259  15.196  19.921  0.00  0.00    +0.000 C 
ATOM      3  S   UNL     1       9.501  16.541  18.774  0.00  0.00    +0.000 S 
ATOM      4  C   UNL     1      11.280  16.764  19.014  0.00  0.00    +0.000 C 
ATOM      5  C   UNL     1      12.011  15.452  18.796  0.00  0.00    +0.000 C 
ATOM      6  C   UNL     1      11.624  14.391  19.820  0.00  0.00    +0.000 C 
ATOM      7  N   UNL     1      10.170  14.111  19.852  0.00  0.00    +0.000 N 
ENDROOT
BRANCH   1   8
ATOM      8  C   UNL     1       8.084  14.407  21.933  0.00  0.00    +0.000 A 
ATOM      9  N   UNL     1       7.199  13.436  22.064  0.00  0.00    +0.000 NA
ATOM     10  C   UNL     1       7.270  13.020  23.368  0.00  0.00    +0.000 A 
ATOM     11  C   UNL     1       6.506  12.059  24.039  0.00  0.00    +0.000 A 
ATOM     12  C   UNL     1       6.696  11.896  25.418  0.00  0.00    +0.000 A 
ATOM     13  C   UNL     1       7.687  12.621  26.101  0.00  0.00    +0.000 A 
ATOM     14  C   UNL     1       8.493  13.555  25.428  0.00  0.00    +0.000 A 
ATOM     15  C   UNL     1       8.237  13.732  24.067  0.00  0.00    +0.000 A 
ATOM     16  N   UNL     1       8.778  14.557  23.118  0.00  0.00    +0.000 N 
ATOM     17  H   UNL     1       9.540  15.205  23.258  0.00  0.00    +0.000 HD
BRANCH  12  18
ATOM     18  C   UNL     1       5.815  10.918  26.106  0.00  0.00    +0.000 C 
ATOM     19  O   UNL     1       5.973  10.585  27.267  0.00  0.00    +0.000 OA
BRANCH  18  20
ATOM     20  O   UNL     1       4.861  10.390  25.311  0.00  0.00    +0.000 OA
ATOM     21  H   UNL     1       4.733  10.845  24.460  0.00  0.00    +0.000 HD
ENDBRANCH  18  20
ENDBRANCH  12  18
ENDBRANCH   1   8
BRANCH   7  22
ATOM     22  C   UNL     1       9.778  12.795  19.468  0.00  0.00    +0.000 A 
ATOM     23  C   UNL     1       9.245  12.532  18.189  0.00  0.00    +0.000 A 
ATOM     24  C   UNL     1       8.879  11.241  17.792  0.00  0.00    +0.000 A 
ATOM     25  C   UNL     1       9.046  10.172  18.662  0.00  0.00    +0.000 A 
ATOM     26  C   UNL     1       9.579  10.397  19.927  0.00  0.00    +0.000 A 
ATOM     27  C   UNL     1       9.945  11.690  20.321  0.00  0.00    +0.000 A 
ENDBRANCH   7  22
BRANCH   1  29
ATOM     28  N   UNL     1       6.836  17.705  21.055  0.00  0.00    +0.000 NA
ATOM     29  C   UNL     1       7.487  16.629  20.965  0.00  0.00    +0.000 C 
ENDBRANCH   1  29
TORSDOF 5
ENDMDL
MODEL 6
REMARK VINA RESULT:      -6.3      7.256     10.845
REMARK  Name = 
REMARK  5 active torsions:
REMARK  status: ('A' for Active; 'I' for Inactive)
REMARK    1  A    between atoms: C_2  and  C_3
REMARK    2  A    between atoms: C_3  and  C_16
REMARK    3  A    between atoms: N_9  and  C_10
REMARK    4  A    between atoms: C_20  and  C_21
REMARK    5  A    between atoms: C_21  and  O_23
REMARK                            x       y       z     vdW  Elec       q    Type
REMARK                         _______ _______ _______ _____ _____    ______ ____
ROOT
ATOM      1  C   UNL     1      -1.210  13.952  20.058  0.00  0.00    +0.000 C 
ATOM      2  C   UNL     1      -0.818  12.850  19.350  0.00  0.00    +0.000 C 
ATOM      3  S   UNL     1       0.814  12.868  18.628  0.00  0.00    +0.000 S 
ATOM      4  C   UNL     1       1.403  11.291  19.287  0.00  0.00    +0.000 C 
ATOM      5  C   UNL     1       0.438  10.175  18.929  0.00  0.00    +0.000 C 
ATOM      6  C   UNL     1      -0.934  10.363  19.571  0.00  0.00    +0.000 C 
ATOM      7  N   UNL     1      -1.570  11.654  19.224  0.00  0.00    +0.000 N 
ENDROOT
BRANCH   1   8
ATOM      8  C   UNL     1      -2.418  13.999  20.823  0.00  0.00    +0.000 A 
ATOM      9  N   UNL     1      -2.773  13.289  21.878  0.00  0.00    +0.000 NA
ATOM     10  C   UNL     1      -4.109  13.529  22.075  0.00  0.00    +0.000 A 
ATOM     11  C   UNL     1      -4.982  12.980  23.020  0.00  0.00    +0.000 A 
ATOM     12  C   UNL     1      -6.343  13.304  22.941  0.00  0.00    +0.000 A 
ATOM     13  C   UNL     1      -6.813  14.221  21.985  0.00  0.00    +0.000 A 
ATOM     14  C   UNL     1      -5.937  14.815  21.061  0.00  0.00    +0.000 A 
ATOM     15  C   UNL     1      -4.599  14.426  21.134  0.00  0.00    +0.000 A 
ATOM     16  N   UNL     1      -3.493  14.754  20.395  0.00  0.00    +0.000 N 
ATOM     17  H   UNL     1      -3.462  15.414  19.632  0.00  0.00    +0.000 HD
BRANCH  12  18
ATOM     18  C   UNL     1      -7.249  12.645  23.916  0.00  0.00    +0.000 C 
ATOM     19  O   UNL     1      -7.465  11.447  23.915  0.00  0.00    +0.000 OA
BRANCH  18  20
ATOM     20  O   UNL     1      -7.853  13.503  24.765  0.00  0.00    +0.000 OA
ATOM     21  H   UNL     1      -7.254  14.108  25.237  0.00  0.00    +0.000 HD
ENDBRANCH  18  20
ENDBRANCH  12  18
ENDBRANCH   1   8
BRANCH   7  22
ATOM     22  C   UNL     1      -2.776  11.575  18.469  0.00  0.00    +0.000 A 
ATOM     23  C   UNL     1      -4.038  11.669  19.089  0.00  0.00    +0.000 A 
ATOM     24  C   UNL     1      -5.229  11.617  18.356  0.00  0.00    +0.000 A 
ATOM     25  C   UNL     1      -5.190  11.479  16.975  0.00  0.00    +0.000 A 
ATOM     26  C   UNL     1      -3.960  11.393  16.331  0.00  0.00    +0.000 A 
ATOM     27  C   UNL     1      -2.769  11.447  17.068  0.00  0.00    +0.000 A 
ENDBRANCH   7  22
BRANCH   1  29
ATOM     28  N   UNL     1       0.565  16.048  20.495  0.00  0.00    +0.000 NA
ATOM     29  C   UNL     1      -0.240  15.098  20.297  0.00  0.00    +0.000 C 
ENDBRANCH   1  29
TORSDOF 5
ENDMDL
MODEL 7
REMARK VINA RESULT:      -6.3      4.880      8.438
REMARK  Name = 
REMARK  5 active torsions:
REMARK  status: ('A' for Active; 'I' for Inactive)
REMARK    1  A    between atoms: C_2  and  C_3
REMARK    2  A    between atoms: C_3  and  C_16
REMARK    3  A    between atoms: N_9  and  C_10
REMARK    4  A    between atoms: C_20  and  C_21
REMARK    5  A    between atoms: C_21  and  O_23
REMARK                            x       y       z     vdW  Elec       q    Type
REMARK                         _______ _______ _______ _____ _____    ______ ____
ROOT
ATOM      1  C   UNL     1      -0.979  10.788  18.917  0.00  0.00    +0.000 C 
ATOM      2  C   UNL     1      -1.101  11.883  19.727  0.00  0.00    +0.000 C 
ATOM      3  S   UNL     1      -2.708  12.651  19.843  0.00  0.00    +0.000 S 
ATOM      4  C   UNL     1      -2.849  12.674  21.646  0.00  0.00    +0.000 C 
ATOM      5  C   UNL     1      -1.644  13.361  22.262  0.00  0.00    +0.000 C 
ATOM      6  C   UNL     1      -0.345  12.608  21.996  0.00  0.00    +0.000 C 
ATOM      7  N   UNL     1      -0.073  12.400  20.556  0.00  0.00    +0.000 N 
ENDROOT
BRANCH   1   8
ATOM      8  C   UNL     1       0.204   9.984  18.865  0.00  0.00    +0.000 A 
ATOM      9  N   UNL     1       1.050   9.796  17.869  0.00  0.00    +0.000 NA
ATOM     10  C   UNL     1       1.857   8.751  18.238  0.00  0.00    +0.000 A 
ATOM     11  C   UNL     1       2.876   8.117  17.520  0.00  0.00    +0.000 A 
ATOM     12  C   UNL     1       3.483   6.984  18.078  0.00  0.00    +0.000 A 
ATOM     13  C   UNL     1       3.134   6.538  19.364  0.00  0.00    +0.000 A 
ATOM     14  C   UNL     1       2.145   7.195  20.114  0.00  0.00    +0.000 A 
ATOM     15  C   UNL     1       1.524   8.286  19.504  0.00  0.00    +0.000 A 
ATOM     16  N   UNL     1       0.517   9.126  19.901  0.00  0.00    +0.000 N 
ATOM     17  H   UNL     1       0.044   9.107  20.793  0.00  0.00    +0.000 HD
BRANCH  12  18
ATOM     18  C   UNL     1       4.510   6.296  17.253  0.00  0.00    +0.000 C 
ATOM     19  O   UNL     1       4.892   6.723  16.179  0.00  0.00    +0.000 OA
BRANCH  18  20
ATOM     20  O   UNL     1       4.936   5.127  17.777  0.00  0.00    +0.000 OA
ATOM     21  H   UNL     1       5.870   4.913  17.606  0.00  0.00    +0.000 HD
ENDBRANCH  18  20
ENDBRANCH  12  18
ENDBRANCH   1   8
BRANCH   7  22
ATOM     22  C   UNL     1       1.086  13.049  20.038  0.00  0.00    +0.000 A 
ATOM     23  C   UNL     1       2.185  13.359  20.864  0.00  0.00    +0.000 A 
ATOM     24  C   UNL     1       3.338  13.973  20.363  0.00  0.00    +0.000 A 
ATOM     25  C   UNL     1       3.428  14.287  19.013  0.00  0.00    +0.000 A 
ATOM     26  C   UNL     1       2.365  13.984  18.169  0.00  0.00    +0.000 A 
ATOM     27  C   UNL     1       1.212  13.368  18.674  0.00  0.00    +0.000 A 
ENDBRANCH   7  22
BRANCH   1  29
ATOM     28  N   UNL     1      -3.214   9.712  17.659  0.00  0.00    +0.000 NA
ATOM     29  C   UNL     1      -2.200  10.200  18.230  0.00  0.00    +0.000 C 
ENDBRANCH   1  29
TORSDOF 5
ENDMDL
MODEL 8
REMARK VINA RESULT:      -6.3      8.301     10.420
REMARK  Name = 
REMARK  5 active torsions:
REMARK  status: ('A' for Active; 'I' for Inactive)
REMARK    1  A    between atoms: C_2  and  C_3
REMARK    2  A    between atoms: C_3  and  C_16
REMARK    3  A    between atoms: N_9  and  C_10
REMARK    4  A    between atoms: C_20  and  C_21
REMARK    5  A    between atoms: C_21  and  O_23
REMARK                            x       y       z     vdW  Elec       q    Type
REMARK                         _______ _______ _______ _____ _____    ______ ____
ROOT
ATOM      1  C   UNL     1       8.391  15.702  19.672  0.00  0.00    +0.000 C 
ATOM      2  C   UNL     1       9.471  15.274  18.949  0.00  0.00    +0.000 C 
ATOM      3  S   UNL     1       9.867  16.161  17.452  0.00  0.00    +0.000 S 
ATOM      4  C   UNL     1      11.615  16.473  17.796  0.00  0.00    +0.000 C 
ATOM      5  C   UNL     1      12.333  15.173  18.109  0.00  0.00    +0.000 C 
ATOM      6  C   UNL     1      11.811  14.511  19.381  0.00  0.00    +0.000 C 
ATOM      7  N   UNL     1      10.356  14.239  19.345  0.00  0.00    +0.000 N 
ENDROOT
BRANCH   1   8
ATOM      8  C   UNL     1       8.068  15.189  20.968  0.00  0.00    +0.000 A 
ATOM      9  N   UNL     1       8.558  15.517  22.149  0.00  0.00    +0.000 NA
ATOM     10  C   UNL     1       8.111  14.567  23.031  0.00  0.00    +0.000 A 
ATOM     11  C   UNL     1       8.389  14.417  24.393  0.00  0.00    +0.000 A 
ATOM     12  C   UNL     1       7.898  13.284  25.057  0.00  0.00    +0.000 A 
ATOM     13  C   UNL     1       7.077  12.358  24.391  0.00  0.00    +0.000 A 
ATOM     14  C   UNL     1       6.752  12.523  23.034  0.00  0.00    +0.000 A 
ATOM     15  C   UNL     1       7.304  13.633  22.393  0.00  0.00    +0.000 A 
ATOM     16  N   UNL     1       7.244  14.088  21.103  0.00  0.00    +0.000 N 
ATOM     17  H   UNL     1       6.715  13.672  20.350  0.00  0.00    +0.000 HD
BRANCH  12  18
ATOM     18  C   UNL     1       8.276  13.124  26.484  0.00  0.00    +0.000 C 
ATOM     19  O   UNL     1       9.024  13.891  27.062  0.00  0.00    +0.000 OA
BRANCH  18  20
ATOM     20  O   UNL     1       7.760  12.020  27.064  0.00  0.00    +0.000 OA
ATOM     21  H   UNL     1       6.933  11.693  26.668  0.00  0.00    +0.000 HD
ENDBRANCH  18  20
ENDBRANCH  12  18
ENDBRANCH   1   8
BRANCH   7  22
ATOM     22  C   UNL     1       9.975  12.866  19.382  0.00  0.00    +0.000 A 
ATOM     23  C   UNL     1       9.572  12.185  18.215  0.00  0.00    +0.000 A 
ATOM     24  C   UNL     1       9.218  10.831  18.234  0.00  0.00    +0.000 A 
ATOM     25  C   UNL     1       9.268  10.116  19.423  0.00  0.00    +0.000 A 
ATOM     26  C   UNL     1       9.671  10.756  20.590  0.00  0.00    +0.000 A 
ATOM     27  C   UNL     1      10.026  12.112  20.567  0.00  0.00    +0.000 A 
ENDBRANCH   7  22
BRANCH   1  29
ATOM     28  N   UNL     1       7.003  17.988  18.908  0.00  0.00    +0.000 NA
ATOM     29  C   UNL     1       7.633  16.951  19.255  0.00  0.00    +0.000 C 
ENDBRANCH   1  29
TORSDOF 5
ENDMDL
MODEL 9
REMARK VINA RESULT:      -6.3      8.345     10.361
REMARK  Name = 
REMARK  5 active torsions:
REMARK  status: ('A' for Active; 'I' for Inactive)
REMARK    1  A    between atoms: C_2  and  C_3
REMARK    2  A    between atoms: C_3  and  C_16
REMARK    3  A    between atoms: N_9  and  C_10
REMARK    4  A    between atoms: C_20  and  C_21
REMARK    5  A    between atoms: C_21  and  O_23
REMARK                            x       y       z     vdW  Elec       q    Type
REMARK                         _______ _______ _______ _____ _____    ______ ____
ROOT
ATOM      1  C   UNL     1       7.969  15.765  19.804  0.00  0.00    +0.000 C 
ATOM      2  C   UNL     1       9.105  15.478  19.099  0.00  0.00    +0.000 C 
ATOM      3  S   UNL     1       9.424  16.427  17.622  0.00  0.00    +0.000 S 
ATOM      4  C   UNL     1      11.115  16.940  18.008  0.00  0.00    +0.000 C 
ATOM      5  C   UNL     1      11.976  15.730  18.321  0.00  0.00    +0.000 C 
ATOM      6  C   UNL     1      11.511  14.992  19.573  0.00  0.00    +0.000 C 
ATOM      7  N   UNL     1      10.099  14.551  19.502  0.00  0.00    +0.000 N 
ENDROOT
BRANCH   1   8
ATOM      8  C   UNL     1       7.682  15.199  21.086  0.00  0.00    +0.000 A 
ATOM      9  N   UNL     1       8.244  15.439  22.256  0.00  0.00    +0.000 NA
ATOM     10  C   UNL     1       7.793  14.465  23.110  0.00  0.00    +0.000 A 
ATOM     11  C   UNL     1       8.128  14.229  24.447  0.00  0.00    +0.000 A 
ATOM     12  C   UNL     1       7.614  13.087  25.075  0.00  0.00    +0.000 A 
ATOM     13  C   UNL     1       6.717  12.237  24.405  0.00  0.00    +0.000 A 
ATOM     14  C   UNL     1       6.335  12.491  23.076  0.00  0.00    +0.000 A 
ATOM     15  C   UNL     1       6.911  13.606  22.466  0.00  0.00    +0.000 A 
ATOM     16  N   UNL     1       6.812  14.132  21.205  0.00  0.00    +0.000 N 
ATOM     17  H   UNL     1       6.227  13.783  20.459  0.00  0.00    +0.000 HD
BRANCH  12  18
ATOM     18  C   UNL     1       8.051  12.832  26.471  0.00  0.00    +0.000 C 
ATOM     19  O   UNL     1       7.370  12.229  27.280  0.00  0.00    +0.000 OA
BRANCH  18  20
ATOM     20  O   UNL     1       9.245  13.382  26.777  0.00  0.00    +0.000 OA
ATOM     21  H   UNL     1       9.872  12.787  27.224  0.00  0.00    +0.000 HD
ENDBRANCH  18  20
ENDBRANCH  12  18
ENDBRANCH   1   8
BRANCH   7  22
ATOM     22  C   UNL     1       9.883  13.142  19.515  0.00  0.00    +0.000 A 
ATOM     23  C   UNL     1       9.919  12.404  20.715  0.00  0.00    +0.000 A 
ATOM     24  C   UNL     1       9.684  11.025  20.744  0.00  0.00    +0.000 A 
ATOM     25  C   UNL     1       9.396  10.344  19.568  0.00  0.00    +0.000 A 
ATOM     26  C   UNL     1       9.343  11.045  18.368  0.00  0.00    +0.000 A 
ATOM     27  C   UNL     1       9.577  12.426  18.343  0.00  0.00    +0.000 A 
ENDBRANCH   7  22
BRANCH   1  29
ATOM     28  N   UNL     1       6.334  17.881  19.037  0.00  0.00    +0.000 NA
ATOM     29  C   UNL     1       7.075  16.922  19.385  0.00  0.00    +0.000 C 
ENDBRANCH   1  29
TORSDOF 5
ENDMDL
