MODEL 1
REMARK VINA RESULT:      -7.6      0.000      0.000
REMARK  Name = 
REMARK  7 active torsions:
REMARK  status: ('A' for Active; 'I' for Inactive)
REMARK    1  A    between atoms: C_2  and  C_13
REMARK    2  A    between atoms: N_3  and  C_4
REMARK    3  A    between atoms: C_4  and  C_5
REMARK    4  A    between atoms: C_5  and  C_6
REMARK    5  A    between atoms: C_6  and  N_7
REMARK    6  A    between atoms: C_17  and  N_18
REMARK    7  A    between atoms: C_19  and  C_21
REMARK                            x       y       z     vdW  Elec       q    Type
REMARK                         _______ _______ _______ _____ _____    ______ ____
ROOT
ATOM      1  C   UNL     1       2.067   7.552  19.240  0.00  0.00    +0.000 A 
ATOM      2  C   UNL     1       2.755   7.978  18.098  0.00  0.00    +0.000 A 
ATOM      3  C   UNL     1       2.513   9.247  17.587  0.00  0.00    +0.000 A 
ATOM      4  C   UNL     1       1.572  10.075  18.199  0.00  0.00    +0.000 A 
ATOM      5  C   UNL     1       0.848   9.649  19.317  0.00  0.00    +0.000 A 
ATOM      6  C   UNL     1       1.110   8.380  19.845  0.00  0.00    +0.000 A 
ENDROOT
BRANCH   1   8
ATOM      7  O   UNL     1       1.845   5.912  20.915  0.00  0.00    +0.000 OA
ATOM      8  C   UNL     1       2.323   6.214  19.829  0.00  0.00    +0.000 C 
ATOM      9  N   UNL     1       3.149   5.396  19.090  0.00  0.00    +0.000 N 
ATOM     10  H   UNL     1       3.694   5.814  18.347  0.00  0.00    +0.000 HD
BRANCH   9  11
ATOM     11  C   UNL     1       3.564   4.097  19.574  0.00  0.00    +0.000 C 
BRANCH  11  12
ATOM     12  C   UNL     1       5.047   3.885  19.298  0.00  0.00    +0.000 C 
BRANCH  12  13
ATOM     13  C   UNL     1       5.788   5.221  19.207  0.00  0.00    +0.000 C 
BRANCH  13  14
ATOM     14  N   UNL     1       7.189   5.076  18.777  0.00  0.00    +0.000 NA
ATOM     15  C   UNL     1       7.944   6.351  18.755  0.00  0.00    +0.000 C 
ATOM     16  C   UNL     1       7.502   7.312  17.641  0.00  0.00    +0.000 C 
ATOM     17  O   UNL     1       7.617   6.694  16.353  0.00  0.00    +0.000 OA
ATOM     18  C   UNL     1       6.855   5.481  16.296  0.00  0.00    +0.000 C 
ATOM     19  C   UNL     1       7.264   4.500  17.411  0.00  0.00    +0.000 C 
ENDBRANCH  13  14
ENDBRANCH  12  13
ENDBRANCH  11  12
ENDBRANCH   9  11
ENDBRANCH   1   8
BRANCH   5  20
ATOM     20  N   UNL     1      -0.118  10.450  19.966  0.00  0.00    +0.000 N 
ATOM     21  C   UNL     1      -0.060  10.865  21.287  0.00  0.00    +0.000 C 
ATOM     22  O   UNL     1       0.890  10.702  22.046  0.00  0.00    +0.000 OA
ATOM     23  H   UNL     1      -0.905  10.739  19.403  0.00  0.00    +0.000 HD
BRANCH  21  24
ATOM     24  C   UNL     1      -1.262  11.552  21.839  0.00  0.00    +0.000 A 
ATOM     25  C   UNL     1      -1.994  12.358  20.953  0.00  0.00    +0.000 A 
ATOM     26  C   UNL     1      -3.129  13.041  21.385  0.00  0.00    +0.000 A 
ATOM     27  C   UNL     1      -3.547  12.916  22.708  0.00  0.00    +0.000 A 
ATOM     28  C   UNL     1      -2.836  12.104  23.593  0.00  0.00    +0.000 A 
ATOM     29  C   UNL     1      -1.696  11.416  23.163  0.00  0.00    +0.000 A 
ENDBRANCH  21  24
ENDBRANCH   5  20
TORSDOF 7
ENDMDL
MODEL 2
REMARK VINA RESULT:      -7.5      2.641     10.243
REMARK  Name = 
REMARK  7 active torsions:
REMARK  status: ('A' for Active; 'I' for Inactive)
REMARK    1  A    between atoms: C_2  and  C_13
REMARK    2  A    between atoms: N_3  and  C_4
REMARK    3  A    between atoms: C_4  and  C_5
REMARK    4  A    between atoms: C_5  and  C_6
REMARK    5  A    between atoms: C_6  and  N_7
REMARK    6  A    between atoms: C_17  and  N_18
REMARK    7  A    between atoms: C_19  and  C_21
REMARK                            x       y       z     vdW  Elec       q    Type
REMARK                         _______ _______ _______ _____ _____    ______ ____
ROOT
ATOM      1  C   UNL     1       2.884   6.130  18.983  0.00  0.00    +0.000 A 
ATOM      2  C   UNL     1       2.826   5.144  19.974  0.00  0.00    +0.000 A 
ATOM      3  C   UNL     1       3.384   3.895  19.731  0.00  0.00    +0.000 A 
ATOM      4  C   UNL     1       3.975   3.627  18.495  0.00  0.00    +0.000 A 
ATOM      5  C   UNL     1       4.006   4.589  17.481  0.00  0.00    +0.000 A 
ATOM      6  C   UNL     1       3.465   5.854  17.737  0.00  0.00    +0.000 A 
ENDROOT
BRANCH   1   8
ATOM      7  O   UNL     1       1.818   7.765  20.301  0.00  0.00    +0.000 OA
ATOM      8  C   UNL     1       2.323   7.483  19.222  0.00  0.00    +0.000 C 
ATOM      9  N   UNL     1       2.384   8.341  18.146  0.00  0.00    +0.000 N 
ATOM     10  H   UNL     1       2.579   7.950  17.234  0.00  0.00    +0.000 HD
BRANCH   9  11
ATOM     11  C   UNL     1       1.798   9.664  18.195  0.00  0.00    +0.000 C 
BRANCH  11  12
ATOM     12  C   UNL     1       0.306   9.586  17.898  0.00  0.00    +0.000 C 
BRANCH  12  13
ATOM     13  C   UNL     1      -0.504  10.371  18.932  0.00  0.00    +0.000 C 
BRANCH  13  14
ATOM     14  N   UNL     1      -0.849  11.731  18.484  0.00  0.00    +0.000 NA
ATOM     15  C   UNL     1      -1.130  12.673  19.593  0.00  0.00    +0.000 C 
ATOM     16  C   UNL     1      -2.443  12.379  20.336  0.00  0.00    +0.000 C 
ATOM     17  O   UNL     1      -3.557  12.392  19.435  0.00  0.00    +0.000 OA
ATOM     18  C   UNL     1      -3.366  11.453  18.368  0.00  0.00    +0.000 C 
ATOM     19  C   UNL     1      -2.049  11.711  17.612  0.00  0.00    +0.000 C 
ENDBRANCH  13  14
ENDBRANCH  12  13
ENDBRANCH  11  12
ENDBRANCH   9  11
ENDBRANCH   1   8
BRANCH   5  20
ATOM     20  N   UNL     1       4.588   4.361  16.214  0.00  0.00    +0.000 N 
ATOM     21  C   UNL     1       5.943   4.427  15.930  0.00  0.00    +0.000 C 
ATOM     22  O   UNL     1       6.840   4.570  16.755  0.00  0.00    +0.000 OA
ATOM     23  H   UNL     1       3.949   4.127  15.468  0.00  0.00    +0.000 HD
BRANCH  21  24
ATOM     24  C   UNL     1       6.344   4.333  14.498  0.00  0.00    +0.000 A 
ATOM     25  C   UNL     1       7.394   5.166  14.077  0.00  0.00    +0.000 A 
ATOM     26  C   UNL     1       7.830   5.147  12.754  0.00  0.00    +0.000 A 
ATOM     27  C   UNL     1       7.224   4.288  11.841  0.00  0.00    +0.000 A 
ATOM     28  C   UNL     1       6.192   3.443  12.252  0.00  0.00    +0.000 A 
ATOM     29  C   UNL     1       5.751   3.458  13.580  0.00  0.00    +0.000 A 
ENDBRANCH  21  24
ENDBRANCH   5  20
TORSDOF 7
ENDMDL
MODEL 3
REMARK VINA RESULT:      -7.5      2.741      9.648
REMARK  Name = 
REMARK  7 active torsions:
REMARK  status: ('A' for Active; 'I' for Inactive)
REMARK    1  A    between atoms: C_2  and  C_13
REMARK    2  A    between atoms: N_3  and  C_4
REMARK    3  A    between atoms: C_4  and  C_5
REMARK    4  A    between atoms: C_5  and  C_6
REMARK    5  A    between atoms: C_6  and  N_7
REMARK    6  A    between atoms: C_17  and  N_18
REMARK    7  A    between atoms: C_19  and  C_21
REMARK                            x       y       z     vdW  Elec       q    Type
REMARK                         _______ _______ _______ _____ _____    ______ ____
ROOT
ATOM      1  C   UNL     1       2.558   5.665  19.065  0.00  0.00    +0.000 A 
ATOM      2  C   UNL     1       2.036   4.573  19.767  0.00  0.00    +0.000 A 
ATOM      3  C   UNL     1       2.362   3.283  19.366  0.00  0.00    +0.000 A 
ATOM      4  C   UNL     1       3.186   3.086  18.257  0.00  0.00    +0.000 A 
ATOM      5  C   UNL     1       3.682   4.167  17.522  0.00  0.00    +0.000 A 
ATOM      6  C   UNL     1       3.373   5.465  17.941  0.00  0.00    +0.000 A 
ENDROOT
BRANCH   1   8
ATOM      7  O   UNL     1       2.497   7.996  18.739  0.00  0.00    +0.000 OA
ATOM      8  C   UNL     1       2.254   7.056  19.484  0.00  0.00    +0.000 C 
ATOM      9  N   UNL     1       1.734   7.185  20.753  0.00  0.00    +0.000 N 
ATOM     10  H   UNL     1       1.806   6.395  21.382  0.00  0.00    +0.000 HD
BRANCH   9  11
ATOM     11  C   UNL     1       1.470   8.483  21.337  0.00  0.00    +0.000 C 
BRANCH  11  12
ATOM     12  C   UNL     1      -0.022   8.785  21.285  0.00  0.00    +0.000 C 
BRANCH  12  13
ATOM     13  C   UNL     1      -0.286  10.153  20.651  0.00  0.00    +0.000 C 
BRANCH  13  14
ATOM     14  N   UNL     1      -0.034  10.175  19.200  0.00  0.00    +0.000 NA
ATOM     15  C   UNL     1       0.927  11.219  18.776  0.00  0.00    +0.000 C 
ATOM     16  C   UNL     1       0.379  12.650  18.895  0.00  0.00    +0.000 C 
ATOM     17  O   UNL     1      -0.825  12.804  18.134  0.00  0.00    +0.000 OA
ATOM     18  C   UNL     1      -1.817  11.854  18.544  0.00  0.00    +0.000 C 
ATOM     19  C   UNL     1      -1.293  10.408  18.450  0.00  0.00    +0.000 C 
ENDBRANCH  13  14
ENDBRANCH  12  13
ENDBRANCH  11  12
ENDBRANCH   9  11
ENDBRANCH   1   8
BRANCH   5  20
ATOM     20  N   UNL     1       4.514   4.016  16.389  0.00  0.00    +0.000 N 
ATOM     21  C   UNL     1       5.365   4.987  15.883  0.00  0.00    +0.000 C 
ATOM     22  O   UNL     1       5.611   6.067  16.412  0.00  0.00    +0.000 OA
ATOM     23  H   UNL     1       4.476   3.120  15.927  0.00  0.00    +0.000 HD
BRANCH  21  24
ATOM     24  C   UNL     1       6.023   4.702  14.578  0.00  0.00    +0.000 A 
ATOM     25  C   UNL     1       5.372   3.799  13.722  0.00  0.00    +0.000 A 
ATOM     26  C   UNL     1       5.919   3.472  12.483  0.00  0.00    +0.000 A 
ATOM     27  C   UNL     1       7.120   4.052  12.086  0.00  0.00    +0.000 A 
ATOM     28  C   UNL     1       7.768   4.965  12.920  0.00  0.00    +0.000 A 
ATOM     29  C   UNL     1       7.222   5.297  14.164  0.00  0.00    +0.000 A 
ENDBRANCH  21  24
ENDBRANCH   5  20
TORSDOF 7
ENDMDL
MODEL 4
REMARK VINA RESULT:      -7.5      4.678      9.782
REMARK  Name = 
REMARK  7 active torsions:
REMARK  status: ('A' for Active; 'I' for Inactive)
REMARK    1  A    between atoms: C_2  and  C_13
REMARK    2  A    between atoms: N_3  and  C_4
REMARK    3  A    between atoms: C_4  and  C_5
REMARK    4  A    between atoms: C_5  and  C_6
REMARK    5  A    between atoms: C_6  and  N_7
REMARK    6  A    between atoms: C_17  and  N_18
REMARK    7  A    between atoms: C_19  and  C_21
REMARK                            x       y       z     vdW  Elec       q    Type
REMARK                         _______ _______ _______ _____ _____    ______ ____
ROOT
ATOM      1  C   UNL     1       5.160   5.649  18.227  0.00  0.00    +0.000 A 
ATOM      2  C   UNL     1       6.366   5.781  18.924  0.00  0.00    +0.000 A 
ATOM      3  C   UNL     1       7.531   5.251  18.384  0.00  0.00    +0.000 A 
ATOM      4  C   UNL     1       7.486   4.574  17.164  0.00  0.00    +0.000 A 
ATOM      5  C   UNL     1       6.282   4.400  16.475  0.00  0.00    +0.000 A 
ATOM      6  C   UNL     1       5.114   4.955  17.009  0.00  0.00    +0.000 A 
ENDROOT
BRANCH   1   8
ATOM      7  O   UNL     1       3.324   7.121  18.157  0.00  0.00    +0.000 OA
ATOM      8  C   UNL     1       3.903   6.229  18.763  0.00  0.00    +0.000 C 
ATOM      9  N   UNL     1       3.492   5.720  19.975  0.00  0.00    +0.000 N 
ATOM     10  H   UNL     1       4.156   5.180  20.516  0.00  0.00    +0.000 HD
BRANCH   9  11
ATOM     11  C   UNL     1       2.336   6.246  20.667  0.00  0.00    +0.000 C 
BRANCH  11  12
ATOM     12  C   UNL     1       1.228   5.201  20.702  0.00  0.00    +0.000 C 
BRANCH  12  13
ATOM     13  C   UNL     1       1.299   4.279  19.483  0.00  0.00    +0.000 C 
BRANCH  13  14
ATOM     14  N   UNL     1       1.288   2.850  19.839  0.00  0.00    +0.000 NA
ATOM     15  C   UNL     1       2.447   2.429  20.660  0.00  0.00    +0.000 C 
ATOM     16  C   UNL     1       3.779   2.424  19.894  0.00  0.00    +0.000 C 
ATOM     17  O   UNL     1       3.707   1.575  18.742  0.00  0.00    +0.000 OA
ATOM     18  C   UNL     1       2.635   1.974  17.877  0.00  0.00    +0.000 C 
ATOM     19  C   UNL     1       1.285   2.004  18.620  0.00  0.00    +0.000 C 
ENDBRANCH  13  14
ENDBRANCH  12  13
ENDBRANCH  11  12
ENDBRANCH   9  11
ENDBRANCH   1   8
BRANCH   5  20
ATOM     20  N   UNL     1       6.187   3.716  15.241  0.00  0.00    +0.000 N 
ATOM     21  C   UNL     1       6.482   4.258  14.000  0.00  0.00    +0.000 C 
ATOM     22  O   UNL     1       6.982   5.361  13.802  0.00  0.00    +0.000 OA
ATOM     23  H   UNL     1       5.884   2.755  15.290  0.00  0.00    +0.000 HD
BRANCH  21  24
ATOM     24  C   UNL     1       6.147   3.437  12.802  0.00  0.00    +0.000 A 
ATOM     25  C   UNL     1       4.823   3.502  12.339  0.00  0.00    +0.000 A 
ATOM     26  C   UNL     1       4.421   2.764  11.228  0.00  0.00    +0.000 A 
ATOM     27  C   UNL     1       5.343   1.958  10.565  0.00  0.00    +0.000 A 
ATOM     28  C   UNL     1       6.666   1.898  11.007  0.00  0.00    +0.000 A 
ATOM     29  C   UNL     1       7.074   2.639  12.122  0.00  0.00    +0.000 A 
ENDBRANCH  21  24
ENDBRANCH   5  20
TORSDOF 7
ENDMDL
MODEL 5
REMARK VINA RESULT:      -7.4      2.521     10.085
REMARK  Name = 
REMARK  7 active torsions:
REMARK  status: ('A' for Active; 'I' for Inactive)
REMARK    1  A    between atoms: C_2  and  C_13
REMARK    2  A    between atoms: N_3  and  C_4
REMARK    3  A    between atoms: C_4  and  C_5
REMARK    4  A    between atoms: C_5  and  C_6
REMARK    5  A    between atoms: C_6  and  N_7
REMARK    6  A    between atoms: C_17  and  N_18
REMARK    7  A    between atoms: C_19  and  C_21
REMARK                            x       y       z     vdW  Elec       q    Type
REMARK                         _______ _______ _______ _____ _____    ______ ____
ROOT
ATOM      1  C   UNL     1       2.763   6.231  19.039  0.00  0.00    +0.000 A 
ATOM      2  C   UNL     1       2.632   5.240  20.018  0.00  0.00    +0.000 A 
ATOM      3  C   UNL     1       3.133   3.967  19.775  0.00  0.00    +0.000 A 
ATOM      4  C   UNL     1       3.740   3.681  18.551  0.00  0.00    +0.000 A 
ATOM      5  C   UNL     1       3.842   4.649  17.548  0.00  0.00    +0.000 A 
ATOM      6  C   UNL     1       3.359   5.936  17.803  0.00  0.00    +0.000 A 
ENDROOT
BRANCH   1   8
ATOM      7  O   UNL     1       1.893   7.949  20.393  0.00  0.00    +0.000 OA
ATOM      8  C   UNL     1       2.265   7.608  19.278  0.00  0.00    +0.000 C 
ATOM      9  N   UNL     1       2.222   8.418  18.164  0.00  0.00    +0.000 N 
ATOM     10  H   UNL     1       2.302   7.983  17.254  0.00  0.00    +0.000 HD
BRANCH   9  11
ATOM     11  C   UNL     1       1.676   9.757  18.219  0.00  0.00    +0.000 C 
BRANCH  11  12
ATOM     12  C   UNL     1       0.156   9.706  18.142  0.00  0.00    +0.000 C 
BRANCH  12  13
ATOM     13  C   UNL     1      -0.482  10.398  19.349  0.00  0.00    +0.000 C 
BRANCH  13  14
ATOM     14  N   UNL     1      -1.568  11.321  18.977  0.00  0.00    +0.000 NA
ATOM     15  C   UNL     1      -1.182  12.316  17.950  0.00  0.00    +0.000 C 
ATOM     16  C   UNL     1      -0.195  13.379  18.458  0.00  0.00    +0.000 C 
ATOM     17  O   UNL     1      -0.729  14.077  19.589  0.00  0.00    +0.000 OA
ATOM     18  C   UNL     1      -1.067  13.166  20.643  0.00  0.00    +0.000 C 
ATOM     19  C   UNL     1      -2.045  12.077  20.162  0.00  0.00    +0.000 C 
ENDBRANCH  13  14
ENDBRANCH  12  13
ENDBRANCH  11  12
ENDBRANCH   9  11
ENDBRANCH   1   8
BRANCH   5  20
ATOM     20  N   UNL     1       4.442   4.403  16.292  0.00  0.00    +0.000 N 
ATOM     21  C   UNL     1       5.802   4.452  16.029  0.00  0.00    +0.000 C 
ATOM     22  O   UNL     1       6.687   4.593  16.867  0.00  0.00    +0.000 OA
ATOM     23  H   UNL     1       3.812   4.168  15.539  0.00  0.00    +0.000 HD
BRANCH  21  24
ATOM     24  C   UNL     1       6.224   4.341  14.605  0.00  0.00    +0.000 A 
ATOM     25  C   UNL     1       7.324   5.118  14.207  0.00  0.00    +0.000 A 
ATOM     26  C   UNL     1       7.784   5.079  12.892  0.00  0.00    +0.000 A 
ATOM     27  C   UNL     1       7.151   4.256  11.965  0.00  0.00    +0.000 A 
ATOM     28  C   UNL     1       6.068   3.465  12.353  0.00  0.00    +0.000 A 
ATOM     29  C   UNL     1       5.604   3.501  13.672  0.00  0.00    +0.000 A 
ENDBRANCH  21  24
ENDBRANCH   5  20
TORSDOF 7
ENDMDL
MODEL 6
REMARK VINA RESULT:      -7.4      2.466      9.843
REMARK  Name = 
REMARK  7 active torsions:
REMARK  status: ('A' for Active; 'I' for Inactive)
REMARK    1  A    between atoms: C_2  and  C_13
REMARK    2  A    between atoms: N_3  and  C_4
REMARK    3  A    between atoms: C_4  and  C_5
REMARK    4  A    between atoms: C_5  and  C_6
REMARK    5  A    between atoms: C_6  and  N_7
REMARK    6  A    between atoms: C_17  and  N_18
REMARK    7  A    between atoms: C_19  and  C_21
REMARK                            x       y       z     vdW  Elec       q    Type
REMARK                         _______ _______ _______ _____ _____    ______ ____
ROOT
ATOM      1  C   UNL     1       2.781   5.904  19.119  0.00  0.00    +0.000 A 
ATOM      2  C   UNL     1       2.524   4.849  20.000  0.00  0.00    +0.000 A 
ATOM      3  C   UNL     1       2.973   3.571  19.688  0.00  0.00    +0.000 A 
ATOM      4  C   UNL     1       3.654   3.347  18.491  0.00  0.00    +0.000 A 
ATOM      5  C   UNL     1       3.883   4.384  17.581  0.00  0.00    +0.000 A 
ATOM      6  C   UNL     1       3.452   5.674  17.908  0.00  0.00    +0.000 A 
ENDROOT
BRANCH   1   8
ATOM      7  O   UNL     1       2.410   8.169  18.591  0.00  0.00    +0.000 OA
ATOM      8  C   UNL     1       2.341   7.286  19.436  0.00  0.00    +0.000 C 
ATOM      9  N   UNL     1       1.907   7.481  20.728  0.00  0.00    +0.000 N 
ATOM     10  H   UNL     1       2.122   6.771  21.417  0.00  0.00    +0.000 HD
BRANCH   9  11
ATOM     11  C   UNL     1       1.531   8.791  21.214  0.00  0.00    +0.000 C 
BRANCH  11  12
ATOM     12  C   UNL     1       0.024   8.980  21.096  0.00  0.00    +0.000 C 
BRANCH  12  13
ATOM     13  C   UNL     1      -0.326   9.925  19.945  0.00  0.00    +0.000 C 
BRANCH  13  14
ATOM     14  N   UNL     1      -0.999  11.156  20.393  0.00  0.00    +0.000 NA
ATOM     15  C   UNL     1      -1.389  12.063  19.288  0.00  0.00    +0.000 C 
ATOM     16  C   UNL     1      -0.197  12.740  18.594  0.00  0.00    +0.000 C 
ATOM     17  O   UNL     1       0.591  13.481  19.533  0.00  0.00    +0.000 OA
ATOM     18  C   UNL     1       1.048  12.639  20.600  0.00  0.00    +0.000 C 
ATOM     19  C   UNL     1      -0.125  11.932  21.307  0.00  0.00    +0.000 C 
ENDBRANCH  13  14
ENDBRANCH  12  13
ENDBRANCH  11  12
ENDBRANCH   9  11
ENDBRANCH   1   8
BRANCH   5  20
ATOM     20  N   UNL     1       4.562   4.203  16.355  0.00  0.00    +0.000 N 
ATOM     21  C   UNL     1       5.825   4.693  16.057  0.00  0.00    +0.000 C 
ATOM     22  O   UNL     1       6.582   5.244  16.849  0.00  0.00    +0.000 OA
ATOM     23  H   UNL     1       4.074   3.666  15.653  0.00  0.00    +0.000 HD
BRANCH  21  24
ATOM     24  C   UNL     1       6.294   4.552  14.650  0.00  0.00    +0.000 A 
ATOM     25  C   UNL     1       5.583   3.662  13.829  0.00  0.00    +0.000 A 
ATOM     26  C   UNL     1       5.956   3.467  12.501  0.00  0.00    +0.000 A 
ATOM     27  C   UNL     1       7.041   4.166  11.980  0.00  0.00    +0.000 A 
ATOM     28  C   UNL     1       7.745   5.066  12.782  0.00  0.00    +0.000 A 
ATOM     29  C   UNL     1       7.373   5.267  14.115  0.00  0.00    +0.000 A 
ENDBRANCH  21  24
ENDBRANCH   5  20
TORSDOF 7
ENDMDL
MODEL 7
REMARK VINA RESULT:      -7.4      2.411     10.026
REMARK  Name = 
REMARK  7 active torsions:
REMARK  status: ('A' for Active; 'I' for Inactive)
REMARK    1  A    between atoms: C_2  and  C_13
REMARK    2  A    between atoms: N_3  and  C_4
REMARK    3  A    between atoms: C_4  and  C_5
REMARK    4  A    between atoms: C_5  and  C_6
REMARK    5  A    between atoms: C_6  and  N_7
REMARK    6  A    between atoms: C_17  and  N_18
REMARK    7  A    between atoms: C_19  and  C_21
REMARK                            x       y       z     vdW  Elec       q    Type
REMARK                         _______ _______ _______ _____ _____    ______ ____
ROOT
ATOM      1  C   UNL     1       2.724   5.020  19.096  0.00  0.00    +0.000 A 
ATOM      2  C   UNL     1       2.473   3.830  19.787  0.00  0.00    +0.000 A 
ATOM      3  C   UNL     1       2.948   2.628  19.277  0.00  0.00    +0.000 A 
ATOM      4  C   UNL     1       3.650   2.614  18.070  0.00  0.00    +0.000 A 
ATOM      5  C   UNL     1       3.874   3.790  17.348  0.00  0.00    +0.000 A 
ATOM      6  C   UNL     1       3.416   5.002  17.875  0.00  0.00    +0.000 A 
ENDROOT
BRANCH   1   8
ATOM      7  O   UNL     1       1.733   6.392  20.733  0.00  0.00    +0.000 OA
ATOM      8  C   UNL     1       2.256   6.324  19.628  0.00  0.00    +0.000 C 
ATOM      9  N   UNL     1       2.420   7.397  18.780  0.00  0.00    +0.000 N 
ATOM     10  H   UNL     1       2.621   7.210  17.806  0.00  0.00    +0.000 HD
BRANCH   9  11
ATOM     11  C   UNL     1       1.933   8.716  19.120  0.00  0.00    +0.000 C 
BRANCH  11  12
ATOM     12  C   UNL     1       1.228   9.338  17.921  0.00  0.00    +0.000 C 
BRANCH  12  13
ATOM     13  C   UNL     1      -0.082  10.011  18.338  0.00  0.00    +0.000 C 
BRANCH  13  14
ATOM     14  N   UNL     1       0.080  11.439  18.659  0.00  0.00    +0.000 NA
ATOM     15  C   UNL     1       0.283  11.709  20.102  0.00  0.00    +0.000 C 
ATOM     16  C   UNL     1      -0.968  11.461  20.960  0.00  0.00    +0.000 C 
ATOM     17  O   UNL     1      -2.070  12.252  20.501  0.00  0.00    +0.000 OA
ATOM     18  C   UNL     1      -2.352  11.989  19.119  0.00  0.00    +0.000 C 
ATOM     19  C   UNL     1      -1.112  12.213  18.233  0.00  0.00    +0.000 C 
ENDBRANCH  13  14
ENDBRANCH  12  13
ENDBRANCH  11  12
ENDBRANCH   9  11
ENDBRANCH   1   8
BRANCH   5  20
ATOM     20  N   UNL     1       4.573   3.824  16.120  0.00  0.00    +0.000 N 
ATOM     21  C   UNL     1       5.912   4.146  15.968  0.00  0.00    +0.000 C 
ATOM     22  O   UNL     1       6.711   4.328  16.881  0.00  0.00    +0.000 OA
ATOM     23  H   UNL     1       4.037   3.584  15.298  0.00  0.00    +0.000 HD
BRANCH  21  24
ATOM     24  C   UNL     1       6.421   4.302  14.576  0.00  0.00    +0.000 A 
ATOM     25  C   UNL     1       5.802   3.526  13.583  0.00  0.00    +0.000 A 
ATOM     26  C   UNL     1       6.217   3.606  12.256  0.00  0.00    +0.000 A 
ATOM     27  C   UNL     1       7.252   4.470  11.908  0.00  0.00    +0.000 A 
ATOM     28  C   UNL     1       7.864   5.259  12.884  0.00  0.00    +0.000 A 
ATOM     29  C   UNL     1       7.449   5.183  14.218  0.00  0.00    +0.000 A 
ENDBRANCH  21  24
ENDBRANCH   5  20
TORSDOF 7
ENDMDL
MODEL 8
REMARK VINA RESULT:      -7.4      1.204      1.681
REMARK  Name = 
REMARK  7 active torsions:
REMARK  status: ('A' for Active; 'I' for Inactive)
REMARK    1  A    between atoms: C_2  and  C_13
REMARK    2  A    between atoms: N_3  and  C_4
REMARK    3  A    between atoms: C_4  and  C_5
REMARK    4  A    between atoms: C_5  and  C_6
REMARK    5  A    between atoms: C_6  and  N_7
REMARK    6  A    between atoms: C_17  and  N_18
REMARK    7  A    between atoms: C_19  and  C_21
REMARK                            x       y       z     vdW  Elec       q    Type
REMARK                         _______ _______ _______ _____ _____    ______ ____
ROOT
ATOM      1  C   UNL     1       1.932   7.575  19.494  0.00  0.00    +0.000 A 
ATOM      2  C   UNL     1       2.487   7.960  18.269  0.00  0.00    +0.000 A 
ATOM      3  C   UNL     1       2.244   9.237  17.778  0.00  0.00    +0.000 A 
ATOM      4  C   UNL     1       1.431  10.115  18.497  0.00  0.00    +0.000 A 
ATOM      5  C   UNL     1       0.837   9.731  19.703  0.00  0.00    +0.000 A 
ATOM      6  C   UNL     1       1.103   8.453  20.208  0.00  0.00    +0.000 A 
ENDROOT
BRANCH   1   8
ATOM      7  O   UNL     1       1.374   5.691  20.791  0.00  0.00    +0.000 OA
ATOM      8  C   UNL     1       2.195   6.228  20.060  0.00  0.00    +0.000 C 
ATOM      9  N   UNL     1       3.418   5.684  19.734  0.00  0.00    +0.000 N 
ATOM     10  H   UNL     1       4.124   6.296  19.345  0.00  0.00    +0.000 HD
BRANCH   9  11
ATOM     11  C   UNL     1       3.857   4.419  20.282  0.00  0.00    +0.000 C 
BRANCH  11  12
ATOM     12  C   UNL     1       4.559   3.599  19.206  0.00  0.00    +0.000 C 
BRANCH  12  13
ATOM     13  C   UNL     1       5.661   4.412  18.524  0.00  0.00    +0.000 C 
BRANCH  13  14
ATOM     14  N   UNL     1       5.183   5.159  17.348  0.00  0.00    +0.000 NA
ATOM     15  C   UNL     1       5.503   4.509  16.055  0.00  0.00    +0.000 C 
ATOM     16  C   UNL     1       6.998   4.536  15.703  0.00  0.00    +0.000 C 
ATOM     17  O   UNL     1       7.495   5.879  15.670  0.00  0.00    +0.000 OA
ATOM     18  C   UNL     1       7.265   6.542  16.921  0.00  0.00    +0.000 C 
ATOM     19  C   UNL     1       5.775   6.519  17.311  0.00  0.00    +0.000 C 
ENDBRANCH  13  14
ENDBRANCH  12  13
ENDBRANCH  11  12
ENDBRANCH   9  11
ENDBRANCH   1   8
BRANCH   5  20
ATOM     20  N   UNL     1       0.003  10.583  20.462  0.00  0.00    +0.000 N 
ATOM     21  C   UNL     1       0.435  11.661  21.220  0.00  0.00    +0.000 C 
ATOM     22  O   UNL     1       1.578  12.105  21.244  0.00  0.00    +0.000 OA
ATOM     23  H   UNL     1      -0.984  10.377  20.433  0.00  0.00    +0.000 HD
BRANCH  21  24
ATOM     24  C   UNL     1      -0.573  12.326  22.092  0.00  0.00    +0.000 A 
ATOM     25  C   UNL     1      -1.667  11.549  22.505  0.00  0.00    +0.000 A 
ATOM     26  C   UNL     1      -2.659  12.092  23.319  0.00  0.00    +0.000 A 
ATOM     27  C   UNL     1      -2.561  13.418  23.733  0.00  0.00    +0.000 A 
ATOM     28  C   UNL     1      -1.469  14.195  23.343  0.00  0.00    +0.000 A 
ATOM     29  C   UNL     1      -0.470  13.653  22.527  0.00  0.00    +0.000 A 
ENDBRANCH  21  24
ENDBRANCH   5  20
TORSDOF 7
ENDMDL
MODEL 9
REMARK VINA RESULT:      -7.4      2.417      9.944
REMARK  Name = 
REMARK  7 active torsions:
REMARK  status: ('A' for Active; 'I' for Inactive)
REMARK    1  A    between atoms: C_2  and  C_13
REMARK    2  A    between atoms: N_3  and  C_4
REMARK    3  A    between atoms: C_4  and  C_5
REMARK    4  A    between atoms: C_5  and  C_6
REMARK    5  A    between atoms: C_6  and  N_7
REMARK    6  A    between atoms: C_17  and  N_18
REMARK    7  A    between atoms: C_19  and  C_21
REMARK                            x       y       z     vdW  Elec       q    Type
REMARK                         _______ _______ _______ _____ _____    ______ ____
ROOT
ATOM      1  C   UNL     1       2.878   4.869  19.331  0.00  0.00    +0.000 A 
ATOM      2  C   UNL     1       2.837   3.729  20.140  0.00  0.00    +0.000 A 
ATOM      3  C   UNL     1       3.432   2.554  19.698  0.00  0.00    +0.000 A 
ATOM      4  C   UNL     1       4.044   2.514  18.444  0.00  0.00    +0.000 A 
ATOM      5  C   UNL     1       4.059   3.635  17.608  0.00  0.00    +0.000 A 
ATOM      6  C   UNL     1       3.480   4.823  18.065  0.00  0.00    +0.000 A 
ENDROOT
BRANCH   1   8
ATOM      7  O   UNL     1       1.590   6.185  20.799  0.00  0.00    +0.000 OA
ATOM      8  C   UNL     1       2.277   6.148  19.786  0.00  0.00    +0.000 C 
ATOM      9  N   UNL     1       2.520   7.233  18.973  0.00  0.00    +0.000 N 
ATOM     10  H   UNL     1       2.874   7.061  18.041  0.00  0.00    +0.000 HD
BRANCH   9  11
ATOM     11  C   UNL     1       1.928   8.527  19.235  0.00  0.00    +0.000 C 
BRANCH  11  12
ATOM     12  C   UNL     1       1.383   9.123  17.944  0.00  0.00    +0.000 C 
BRANCH  12  13
ATOM     13  C   UNL     1       0.246  10.108  18.226  0.00  0.00    +0.000 C 
BRANCH  13  14
ATOM     14  N   UNL     1       0.512  10.979  19.384  0.00  0.00    +0.000 NA
ATOM     15  C   UNL     1      -0.636  11.106  20.314  0.00  0.00    +0.000 C 
ATOM     16  C   UNL     1      -1.812  11.909  19.737  0.00  0.00    +0.000 C 
ATOM     17  O   UNL     1      -1.396  13.223  19.347  0.00  0.00    +0.000 OA
ATOM     18  C   UNL     1      -0.322  13.162  18.399  0.00  0.00    +0.000 C 
ATOM     19  C   UNL     1       0.870  12.349  18.942  0.00  0.00    +0.000 C 
ENDBRANCH  13  14
ENDBRANCH  12  13
ENDBRANCH  11  12
ENDBRANCH   9  11
ENDBRANCH   1   8
BRANCH   5  20
ATOM     20  N   UNL     1       4.661   3.639  16.329  0.00  0.00    +0.000 N 
ATOM     21  C   UNL     1       5.943   4.085  16.048  0.00  0.00    +0.000 C 
ATOM     22  O   UNL     1       6.780   4.424  16.879  0.00  0.00    +0.000 OA
ATOM     23  H   UNL     1       4.098   3.279  15.573  0.00  0.00    +0.000 HD
BRANCH  21  24
ATOM     24  C   UNL     1       6.331   4.179  14.613  0.00  0.00    +0.000 A 
ATOM     25  C   UNL     1       7.379   5.058  14.294  0.00  0.00    +0.000 A 
ATOM     26  C   UNL     1       7.804   5.210  12.976  0.00  0.00    +0.000 A 
ATOM     27  C   UNL     1       7.188   4.479  11.964  0.00  0.00    +0.000 A 
ATOM     28  C   UNL     1       6.156   3.589  12.271  0.00  0.00    +0.000 A 
ATOM     29  C   UNL     1       5.728   3.432  13.593  0.00  0.00    +0.000 A 
ENDBRANCH  21  24
ENDBRANCH   5  20
TORSDOF 7
ENDMDL
