MODEL 1
REMARK VINA RESULT:      -8.3      0.000      0.000
REMARK  Name = 
REMARK  10 active torsions:
REMARK  status: ('A' for Active; 'I' for Inactive)
REMARK    1  A    between atoms: C_1  and  C_2
REMARK    2  A    between atoms: C_2  and  C_3
REMARK    3  A    between atoms: C_3  and  C_4
REMARK    4  A    between atoms: N_6  and  C_7
REMARK    5  A    between atoms: C_12  and  C_13
REMARK    6  A    between atoms: C_15  and  S_16
REMARK    7  A    between atoms: S_16  and  N_19
REMARK    8  A    between atoms: C_28  and  O_29
REMARK    9  A    between atoms: O_29  and  C_30
REMARK   10  A    between atoms: C_30  and  C_31
REMARK                            x       y       z     vdW  Elec       q    Type
REMARK                         _______ _______ _______ _____ _____    ______ ____
ROOT
ATOM      1  C   UNL     1       2.373   7.334  19.302  0.00  0.00    +0.000 A 
ATOM      2  C   UNL     1       1.948   8.635  19.005  0.00  0.00    +0.000 A 
ATOM      3  C   UNL     1       1.053   9.297  19.848  0.00  0.00    +0.000 A 
ATOM      4  C   UNL     1       0.492   8.643  20.933  0.00  0.00    +0.000 A 
ATOM      5  C   UNL     1       0.927   7.363  21.245  0.00  0.00    +0.000 A 
ATOM      6  C   UNL     1       1.861   6.677  20.452  0.00  0.00    +0.000 A 
ENDROOT
BRANCH   1  15
ATOM      7  C   UNL     1       6.687   6.830  16.945  0.00  0.00    +0.000 A 
ATOM      8  N   UNL     1       7.219   5.794  16.267  0.00  0.00    +0.000 NA
ATOM      9  N   UNL     1       6.227   4.868  16.256  0.00  0.00    +0.000 N 
ATOM     10  C   UNL     1       6.440   3.583  15.634  0.00  0.00    +0.000 C 
ATOM     11  C   UNL     1       5.094   5.297  16.872  0.00  0.00    +0.000 A 
ATOM     12  C   UNL     1       3.833   4.688  17.057  0.00  0.00    +0.000 A 
ATOM     13  O   UNL     1       3.512   3.564  16.694  0.00  0.00    +0.000 OA
ATOM     14  N   UNL     1       2.977   5.514  17.752  0.00  0.00    +0.000 N 
ATOM     15  C   UNL     1       3.372   6.712  18.365  0.00  0.00    +0.000 A 
ATOM     16  N   UNL     1       4.522   7.278  18.160  0.00  0.00    +0.000 NA
ATOM     17  C   UNL     1       5.384   6.533  17.360  0.00  0.00    +0.000 A 
ATOM     18  H   UNL     1       2.070   5.104  17.901  0.00  0.00    +0.000 HD
BRANCH   7  19
ATOM     19  C   UNL     1       7.431   8.097  17.167  0.00  0.00    +0.000 C 
BRANCH  19  21
ATOM     20  C   UNL     1       8.849   9.427  18.759  0.00  0.00    +0.000 C 
ATOM     21  C   UNL     1       8.293   8.054  18.429  0.00  0.00    +0.000 C 
ENDBRANCH  19  21
ENDBRANCH   7  19
ENDBRANCH   1  15
BRANCH   3  22
ATOM     22  S   UNL     1       0.694  11.024  19.564  0.00  0.00    +0.000 S 
ATOM     23  O   UNL     1       0.584  11.648  20.860  0.00  0.00    +0.000 OA
ATOM     24  O   UNL     1       1.625  11.490  18.572  0.00  0.00    +0.000 OA
BRANCH  22  25
ATOM     25  N   UNL     1      -0.879  10.931  18.867  0.00  0.00    +0.000 NA
ATOM     26  C   UNL     1      -1.629  12.207  18.794  0.00  0.00    +0.000 C 
ATOM     27  C   UNL     1      -3.091  12.018  19.186  0.00  0.00    +0.000 C 
ATOM     28  C   UNL     1      -3.975  11.484  18.066  0.00  0.00    +0.000 C 
ATOM     29  C   UNL     1      -3.551  10.120  17.537  0.00  0.00    +0.000 C 
ATOM     30  C   UNL     1      -2.208  10.166  16.820  0.00  0.00    +0.000 C 
ATOM     31  C   UNL     1      -1.007   9.969  17.737  0.00  0.00    +0.000 C 
ENDBRANCH  22  25
ENDBRANCH   3  22
BRANCH   6  32
ATOM     32  O   UNL     1       2.237   5.387  20.769  0.00  0.00    +0.000 OA
BRANCH  32  33
ATOM     33  C   UNL     1       1.200   4.402  20.604  0.00  0.00    +0.000 C 
ATOM     34  C   UNL     1       1.715   2.980  20.671  0.00  0.00    +0.000 C 
ENDBRANCH  32  33
ENDBRANCH   6  32
TORSDOF 7
ENDMDL
MODEL 2
REMARK VINA RESULT:      -7.9      0.322      1.106
REMARK  Name = 
REMARK  10 active torsions:
REMARK  status: ('A' for Active; 'I' for Inactive)
REMARK    1  A    between atoms: C_1  and  C_2
REMARK    2  A    between atoms: C_2  and  C_3
REMARK    3  A    between atoms: C_3  and  C_4
REMARK    4  A    between atoms: N_6  and  C_7
REMARK    5  A    between atoms: C_12  and  C_13
REMARK    6  A    between atoms: C_15  and  S_16
REMARK    7  A    between atoms: S_16  and  N_19
REMARK    8  A    between atoms: C_28  and  O_29
REMARK    9  A    between atoms: O_29  and  C_30
REMARK   10  A    between atoms: C_30  and  C_31
REMARK                            x       y       z     vdW  Elec       q    Type
REMARK                         _______ _______ _______ _____ _____    ______ ____
ROOT
ATOM      1  C   UNL     1       2.259   7.493  19.304  0.00  0.00    +0.000 A 
ATOM      2  C   UNL     1       1.864   8.795  18.971  0.00  0.00    +0.000 A 
ATOM      3  C   UNL     1       0.985   9.500  19.796  0.00  0.00    +0.000 A 
ATOM      4  C   UNL     1       0.409   8.889  20.897  0.00  0.00    +0.000 A 
ATOM      5  C   UNL     1       0.814   7.609  21.244  0.00  0.00    +0.000 A 
ATOM      6  C   UNL     1       1.732   6.880  20.471  0.00  0.00    +0.000 A 
ENDROOT
BRANCH   1  15
ATOM      7  C   UNL     1       6.560   6.825  16.963  0.00  0.00    +0.000 A 
ATOM      8  N   UNL     1       7.068   5.759  16.313  0.00  0.00    +0.000 NA
ATOM      9  N   UNL     1       6.054   4.856  16.327  0.00  0.00    +0.000 N 
ATOM     10  C   UNL     1       6.237   3.550  15.741  0.00  0.00    +0.000 C 
ATOM     11  C   UNL     1       4.931   5.328  16.931  0.00  0.00    +0.000 A 
ATOM     12  C   UNL     1       3.657   4.754  17.131  0.00  0.00    +0.000 A 
ATOM     13  O   UNL     1       3.310   3.629  16.799  0.00  0.00    +0.000 OA
ATOM     14  N   UNL     1       2.820   5.618  17.803  0.00  0.00    +0.000 N 
ATOM     15  C   UNL     1       3.244   6.823  18.385  0.00  0.00    +0.000 A 
ATOM     16  N   UNL     1       4.406   7.356  18.165  0.00  0.00    +0.000 NA
ATOM     17  C   UNL     1       5.250   6.570  17.385  0.00  0.00    +0.000 A 
ATOM     18  H   UNL     1       1.904   5.233  17.963  0.00  0.00    +0.000 HD
BRANCH   7  19
ATOM     19  C   UNL     1       7.334   8.080  17.151  0.00  0.00    +0.000 C 
BRANCH  19  21
ATOM     20  C   UNL     1       8.809   9.394  18.704  0.00  0.00    +0.000 C 
ATOM     21  C   UNL     1       8.252   8.021  18.372  0.00  0.00    +0.000 C 
ENDBRANCH  19  21
ENDBRANCH   7  19
ENDBRANCH   1  15
BRANCH   3  22
ATOM     22  S   UNL     1       0.666  11.226  19.464  0.00  0.00    +0.000 S 
ATOM     23  O   UNL     1       0.518  11.878  20.743  0.00  0.00    +0.000 OA
ATOM     24  O   UNL     1       1.641  11.657  18.499  0.00  0.00    +0.000 OA
BRANCH  22  25
ATOM     25  N   UNL     1      -0.882  11.145  18.710  0.00  0.00    +0.000 NA
ATOM     26  C   UNL     1      -1.292   9.808  18.220  0.00  0.00    +0.000 C 
ATOM     27  C   UNL     1      -1.948   9.895  16.845  0.00  0.00    +0.000 C 
ATOM     28  C   UNL     1      -3.420  10.288  16.878  0.00  0.00    +0.000 C 
ATOM     29  C   UNL     1      -3.685  11.650  17.506  0.00  0.00    +0.000 C 
ATOM     30  C   UNL     1      -3.367  11.677  18.995  0.00  0.00    +0.000 C 
ATOM     31  C   UNL     1      -1.919  12.026  19.315  0.00  0.00    +0.000 C 
ENDBRANCH  22  25
ENDBRANCH   3  22
BRANCH   6  32
ATOM     32  O   UNL     1       2.079   5.590  20.823  0.00  0.00    +0.000 OA
BRANCH  32  33
ATOM     33  C   UNL     1       1.084   4.596  20.515  0.00  0.00    +0.000 C 
ATOM     34  C   UNL     1       1.396   3.239  21.108  0.00  0.00    +0.000 C 
ENDBRANCH  32  33
ENDBRANCH   6  32
TORSDOF 7
ENDMDL
MODEL 3
REMARK VINA RESULT:      -7.5      1.526      2.872
REMARK  Name = 
REMARK  10 active torsions:
REMARK  status: ('A' for Active; 'I' for Inactive)
REMARK    1  A    between atoms: C_1  and  C_2
REMARK    2  A    between atoms: C_2  and  C_3
REMARK    3  A    between atoms: C_3  and  C_4
REMARK    4  A    between atoms: N_6  and  C_7
REMARK    5  A    between atoms: C_12  and  C_13
REMARK    6  A    between atoms: C_15  and  S_16
REMARK    7  A    between atoms: S_16  and  N_19
REMARK    8  A    between atoms: C_28  and  O_29
REMARK    9  A    between atoms: O_29  and  C_30
REMARK   10  A    between atoms: C_30  and  C_31
REMARK                            x       y       z     vdW  Elec       q    Type
REMARK                         _______ _______ _______ _____ _____    ______ ____
ROOT
ATOM      1  C   UNL     1       2.320   7.198  19.410  0.00  0.00    +0.000 A 
ATOM      2  C   UNL     1       1.988   8.478  18.949  0.00  0.00    +0.000 A 
ATOM      3  C   UNL     1       1.126   9.293  19.687  0.00  0.00    +0.000 A 
ATOM      4  C   UNL     1       0.505   8.811  20.828  0.00  0.00    +0.000 A 
ATOM      5  C   UNL     1       0.849   7.554  21.300  0.00  0.00    +0.000 A 
ATOM      6  C   UNL     1       1.748   6.719  20.617  0.00  0.00    +0.000 A 
ENDROOT
BRANCH   1  15
ATOM      7  C   UNL     1       4.104   3.239  17.051  0.00  0.00    +0.000 A 
ATOM      8  N   UNL     1       5.067   3.113  16.117  0.00  0.00    +0.000 NA
ATOM      9  N   UNL     1       5.578   4.367  16.005  0.00  0.00    +0.000 N 
ATOM     10  C   UNL     1       6.631   4.640  15.057  0.00  0.00    +0.000 C 
ATOM     11  C   UNL     1       4.993   5.255  16.852  0.00  0.00    +0.000 A 
ATOM     12  C   UNL     1       5.233   6.625  17.093  0.00  0.00    +0.000 A 
ATOM     13  O   UNL     1       6.055   7.327  16.520  0.00  0.00    +0.000 OA
ATOM     14  N   UNL     1       4.381   7.119  18.056  0.00  0.00    +0.000 N 
ATOM     15  C   UNL     1       3.291   6.405  18.577  0.00  0.00    +0.000 A 
ATOM     16  N   UNL     1       3.102   5.138  18.375  0.00  0.00    +0.000 NA
ATOM     17  C   UNL     1       4.016   4.562  17.497  0.00  0.00    +0.000 A 
ATOM     18  H   UNL     1       4.527   8.097  18.246  0.00  0.00    +0.000 HD
BRANCH   7  19
ATOM     19  C   UNL     1       3.297   2.081  17.516  0.00  0.00    +0.000 C 
BRANCH  19  21
ATOM     20  C   UNL     1       4.440   2.048  19.754  0.00  0.00    +0.000 C 
ATOM     21  C   UNL     1       4.042   1.226  18.542  0.00  0.00    +0.000 C 
ENDBRANCH  19  21
ENDBRANCH   7  19
ENDBRANCH   1  15
BRANCH   3  22
ATOM     22  S   UNL     1       0.887  10.992  19.190  0.00  0.00    +0.000 S 
ATOM     23  O   UNL     1       0.966  11.794  20.387  0.00  0.00    +0.000 OA
ATOM     24  O   UNL     1       1.746  11.226  18.060  0.00  0.00    +0.000 OA
BRANCH  22  25
ATOM     25  N   UNL     1      -0.753  10.962  18.660  0.00  0.00    +0.000 NA
ATOM     26  C   UNL     1      -1.457  12.266  18.667  0.00  0.00    +0.000 C 
ATOM     27  C   UNL     1      -2.877  12.130  19.209  0.00  0.00    +0.000 C 
ATOM     28  C   UNL     1      -3.892  11.634  18.186  0.00  0.00    +0.000 C 
ATOM     29  C   UNL     1      -3.577  10.258  17.615  0.00  0.00    +0.000 C 
ATOM     30  C   UNL     1      -2.315  10.257  16.762  0.00  0.00    +0.000 C 
ATOM     31  C   UNL     1      -1.034  10.012  17.549  0.00  0.00    +0.000 C 
ENDBRANCH  22  25
ENDBRANCH   3  22
BRANCH   6  32
ATOM     32  O   UNL     1       2.032   5.454  21.094  0.00  0.00    +0.000 OA
BRANCH  32  33
ATOM     33  C   UNL     1       1.085   4.440  20.709  0.00  0.00    +0.000 C 
ATOM     34  C   UNL     1       1.436   3.067  21.240  0.00  0.00    +0.000 C 
ENDBRANCH  32  33
ENDBRANCH   6  32
TORSDOF 7
ENDMDL
MODEL 4
REMARK VINA RESULT:      -7.4      3.245      7.957
REMARK  Name = 
REMARK  10 active torsions:
REMARK  status: ('A' for Active; 'I' for Inactive)
REMARK    1  A    between atoms: C_1  and  C_2
REMARK    2  A    between atoms: C_2  and  C_3
REMARK    3  A    between atoms: C_3  and  C_4
REMARK    4  A    between atoms: N_6  and  C_7
REMARK    5  A    between atoms: C_12  and  C_13
REMARK    6  A    between atoms: C_15  and  S_16
REMARK    7  A    between atoms: S_16  and  N_19
REMARK    8  A    between atoms: C_28  and  O_29
REMARK    9  A    between atoms: O_29  and  C_30
REMARK   10  A    between atoms: C_30  and  C_31
REMARK                            x       y       z     vdW  Elec       q    Type
REMARK                         _______ _______ _______ _____ _____    ______ ____
ROOT
ATOM      1  C   UNL     1       3.311   5.962  18.242  0.00  0.00    +0.000 A 
ATOM      2  C   UNL     1       4.643   6.134  17.846  0.00  0.00    +0.000 A 
ATOM      3  C   UNL     1       5.317   5.113  17.173  0.00  0.00    +0.000 A 
ATOM      4  C   UNL     1       4.716   3.880  16.979  0.00  0.00    +0.000 A 
ATOM      5  C   UNL     1       3.390   3.713  17.348  0.00  0.00    +0.000 A 
ATOM      6  C   UNL     1       2.658   4.728  17.984  0.00  0.00    +0.000 A 
ENDROOT
BRANCH   1  15
ATOM      7  C   UNL     1       1.679  10.599  18.744  0.00  0.00    +0.000 A 
ATOM      8  N   UNL     1       0.804  11.151  19.609  0.00  0.00    +0.000 NA
ATOM      9  N   UNL     1       0.503  10.136  20.459  0.00  0.00    +0.000 N 
ATOM     10  C   UNL     1      -0.448  10.340  21.525  0.00  0.00    +0.000 C 
ATOM     11  C   UNL     1       1.178   8.990  20.177  0.00  0.00    +0.000 A 
ATOM     12  C   UNL     1       1.198   7.728  20.810  0.00  0.00    +0.000 A 
ATOM     13  O   UNL     1       0.540   7.399  21.789  0.00  0.00    +0.000 OA
ATOM     14  N   UNL     1       2.044   6.857  20.160  0.00  0.00    +0.000 N 
ATOM     15  C   UNL     1       2.646   7.128  18.922  0.00  0.00    +0.000 A 
ATOM     16  N   UNL     1       2.647   8.301  18.367  0.00  0.00    +0.000 NA
ATOM     17  C   UNL     1       1.900   9.253  19.055  0.00  0.00    +0.000 A 
ATOM     18  H   UNL     1       2.076   5.947  20.589  0.00  0.00    +0.000 HD
BRANCH   7  19
ATOM     19  C   UNL     1       2.305  11.381  17.646  0.00  0.00    +0.000 C 
BRANCH  19  21
ATOM     20  C   UNL     1       3.315  13.543  18.433  0.00  0.00    +0.000 C 
ATOM     21  C   UNL     1       2.096  12.887  17.810  0.00  0.00    +0.000 C 
ENDBRANCH  19  21
ENDBRANCH   7  19
ENDBRANCH   1  15
BRANCH   3  22
ATOM     22  S   UNL     1       6.938   5.433  16.492  0.00  0.00    +0.000 S 
ATOM     23  O   UNL     1       7.101   6.866  16.453  0.00  0.00    +0.000 OA
ATOM     24  O   UNL     1       7.863   4.582  17.190  0.00  0.00    +0.000 OA
BRANCH  22  25
ATOM     25  N   UNL     1       6.746   4.860  14.878  0.00  0.00    +0.000 NA
ATOM     26  C   UNL     1       5.368   4.910  14.335  0.00  0.00    +0.000 C 
ATOM     27  C   UNL     1       5.029   3.641  13.559  0.00  0.00    +0.000 C 
ATOM     28  C   UNL     1       5.549   3.626  12.126  0.00  0.00    +0.000 C 
ATOM     29  C   UNL     1       7.063   3.739  12.014  0.00  0.00    +0.000 C 
ATOM     30  C   UNL     1       7.582   5.096  12.472  0.00  0.00    +0.000 C 
ATOM     31  C   UNL     1       7.880   5.174  13.964  0.00  0.00    +0.000 C 
ENDBRANCH  22  25
ENDBRANCH   3  22
BRANCH   6  32
ATOM     32  O   UNL     1       1.352   4.510  18.379  0.00  0.00    +0.000 OA
BRANCH  32  33
ATOM     33  C   UNL     1       1.129   3.255  19.047  0.00  0.00    +0.000 C 
ATOM     34  C   UNL     1       1.162   3.372  20.557  0.00  0.00    +0.000 C 
ENDBRANCH  32  33
ENDBRANCH   6  32
TORSDOF 7
ENDMDL
MODEL 5
REMARK VINA RESULT:      -7.4      5.359      9.036
REMARK  Name = 
REMARK  10 active torsions:
REMARK  status: ('A' for Active; 'I' for Inactive)
REMARK    1  A    between atoms: C_1  and  C_2
REMARK    2  A    between atoms: C_2  and  C_3
REMARK    3  A    between atoms: C_3  and  C_4
REMARK    4  A    between atoms: N_6  and  C_7
REMARK    5  A    between atoms: C_12  and  C_13
REMARK    6  A    between atoms: C_15  and  S_16
REMARK    7  A    between atoms: S_16  and  N_19
REMARK    8  A    between atoms: C_28  and  O_29
REMARK    9  A    between atoms: O_29  and  C_30
REMARK   10  A    between atoms: C_30  and  C_31
REMARK                            x       y       z     vdW  Elec       q    Type
REMARK                         _______ _______ _______ _____ _____    ______ ____
ROOT
ATOM      1  C   UNL     1      -2.854  13.190  23.181  0.00  0.00    +0.000 A 
ATOM      2  C   UNL     1      -4.248  13.059  23.146  0.00  0.00    +0.000 A 
ATOM      3  C   UNL     1      -5.063  14.027  23.736  0.00  0.00    +0.000 A 
ATOM      4  C   UNL     1      -4.509  15.074  24.453  0.00  0.00    +0.000 A 
ATOM      5  C   UNL     1      -3.130  15.221  24.470  0.00  0.00    +0.000 A 
ATOM      6  C   UNL     1      -2.272  14.299  23.850  0.00  0.00    +0.000 A 
ENDROOT
BRANCH   1  15
ATOM      7  C   UNL     1      -0.810  10.821  19.356  0.00  0.00    +0.000 A 
ATOM      8  N   UNL     1       0.161   9.887  19.298  0.00  0.00    +0.000 NA
ATOM      9  N   UNL     1       0.428   9.614  20.601  0.00  0.00    +0.000 N 
ATOM     10  C   UNL     1       1.458   8.664  20.947  0.00  0.00    +0.000 C 
ATOM     11  C   UNL     1      -0.357  10.315  21.461  0.00  0.00    +0.000 A 
ATOM     12  C   UNL     1      -0.444  10.314  22.871  0.00  0.00    +0.000 A 
ATOM     13  O   UNL     1       0.244   9.654  23.638  0.00  0.00    +0.000 OA
ATOM     14  N   UNL     1      -1.399  11.203  23.312  0.00  0.00    +0.000 N 
ATOM     15  C   UNL     1      -2.052  12.126  22.481  0.00  0.00    +0.000 A 
ATOM     16  N   UNL     1      -1.990  12.094  21.186  0.00  0.00    +0.000 NA
ATOM     17  C   UNL     1      -1.124  11.126  20.685  0.00  0.00    +0.000 A 
ATOM     18  H   UNL     1      -1.481  11.226  24.315  0.00  0.00    +0.000 HD
BRANCH   7  19
ATOM     19  C   UNL     1      -1.436  11.388  18.133  0.00  0.00    +0.000 C 
BRANCH  19  21
ATOM     20  C   UNL     1      -3.202   9.725  17.480  0.00  0.00    +0.000 C 
ATOM     21  C   UNL     1      -2.936  11.103  18.059  0.00  0.00    +0.000 C 
ENDBRANCH  19  21
ENDBRANCH   7  19
ENDBRANCH   1  15
BRANCH   3  22
ATOM     22  S   UNL     1      -6.832  13.949  23.495  0.00  0.00    +0.000 S 
ATOM     23  O   UNL     1      -7.319  12.864  24.310  0.00  0.00    +0.000 OA
ATOM     24  O   UNL     1      -7.335  15.290  23.633  0.00  0.00    +0.000 OA
BRANCH  22  25
ATOM     25  N   UNL     1      -6.927  13.475  21.840  0.00  0.00    +0.000 NA
ATOM     26  C   UNL     1      -7.608  12.186  21.576  0.00  0.00    +0.000 C 
ATOM     27  C   UNL     1      -6.859  11.363  20.533  0.00  0.00    +0.000 C 
ATOM     28  C   UNL     1      -7.150  11.764  19.092  0.00  0.00    +0.000 C 
ATOM     29  C   UNL     1      -6.786  13.206  18.763  0.00  0.00    +0.000 C 
ATOM     30  C   UNL     1      -7.659  14.211  19.502  0.00  0.00    +0.000 C 
ATOM     31  C   UNL     1      -7.133  14.595  20.880  0.00  0.00    +0.000 C 
ENDBRANCH  22  25
ENDBRANCH   3  22
BRANCH   6  32
ATOM     32  O   UNL     1      -0.902  14.453  23.926  0.00  0.00    +0.000 OA
BRANCH  32  33
ATOM     33  C   UNL     1      -0.346  15.366  22.962  0.00  0.00    +0.000 C 
ATOM     34  C   UNL     1       0.247  16.608  23.592  0.00  0.00    +0.000 C 
ENDBRANCH  32  33
ENDBRANCH   6  32
TORSDOF 7
ENDMDL
MODEL 6
REMARK VINA RESULT:      -7.3      1.457      2.018
REMARK  Name = 
REMARK  10 active torsions:
REMARK  status: ('A' for Active; 'I' for Inactive)
REMARK    1  A    between atoms: C_1  and  C_2
REMARK    2  A    between atoms: C_2  and  C_3
REMARK    3  A    between atoms: C_3  and  C_4
REMARK    4  A    between atoms: N_6  and  C_7
REMARK    5  A    between atoms: C_12  and  C_13
REMARK    6  A    between atoms: C_15  and  S_16
REMARK    7  A    between atoms: S_16  and  N_19
REMARK    8  A    between atoms: C_28  and  O_29
REMARK    9  A    between atoms: O_29  and  C_30
REMARK   10  A    between atoms: C_30  and  C_31
REMARK                            x       y       z     vdW  Elec       q    Type
REMARK                         _______ _______ _______ _____ _____    ______ ____
ROOT
ATOM      1  C   UNL     1       2.081   7.659  19.323  0.00  0.00    +0.000 A 
ATOM      2  C   UNL     1       1.660   8.931  18.919  0.00  0.00    +0.000 A 
ATOM      3  C   UNL     1       0.792   9.676  19.720  0.00  0.00    +0.000 A 
ATOM      4  C   UNL     1       0.253   9.129  20.872  0.00  0.00    +0.000 A 
ATOM      5  C   UNL     1       0.685   7.880  21.289  0.00  0.00    +0.000 A 
ATOM      6  C   UNL     1       1.593   7.115  20.540  0.00  0.00    +0.000 A 
ENDROOT
BRANCH   1  15
ATOM      7  C   UNL     1       6.356   6.860  16.974  0.00  0.00    +0.000 A 
ATOM      8  N   UNL     1       6.849   5.765  16.363  0.00  0.00    +0.000 NA
ATOM      9  N   UNL     1       5.828   4.872  16.422  0.00  0.00    +0.000 N 
ATOM     10  C   UNL     1       5.994   3.542  15.886  0.00  0.00    +0.000 C 
ATOM     11  C   UNL     1       4.714   5.378  17.015  0.00  0.00    +0.000 A 
ATOM     12  C   UNL     1       3.437   4.824  17.249  0.00  0.00    +0.000 A 
ATOM     13  O   UNL     1       3.078   3.689  16.965  0.00  0.00    +0.000 OA
ATOM     14  N   UNL     1       2.614   5.721  17.893  0.00  0.00    +0.000 N 
ATOM     15  C   UNL     1       3.052   6.944  18.423  0.00  0.00    +0.000 A 
ATOM     16  N   UNL     1       4.217   7.457  18.172  0.00  0.00    +0.000 NA
ATOM     17  C   UNL     1       5.048   6.634  17.417  0.00  0.00    +0.000 A 
ATOM     18  H   UNL     1       1.696   5.351  18.076  0.00  0.00    +0.000 HD
BRANCH   7  19
ATOM     19  C   UNL     1       7.142   8.115  17.105  0.00  0.00    +0.000 C 
BRANCH  19  21
ATOM     20  C   UNL     1       8.708   9.412  18.582  0.00  0.00    +0.000 C 
ATOM     21  C   UNL     1       8.189   8.033  18.216  0.00  0.00    +0.000 C 
ENDBRANCH  19  21
ENDBRANCH   7  19
ENDBRANCH   1  15
BRANCH   3  22
ATOM     22  S   UNL     1       0.440  11.374  19.288  0.00  0.00    +0.000 S 
ATOM     23  O   UNL     1       1.629  12.137  19.579  0.00  0.00    +0.000 OA
ATOM     24  O   UNL     1      -0.154  11.361  17.978  0.00  0.00    +0.000 OA
BRANCH  22  25
ATOM     25  N   UNL     1      -0.766  11.776  20.453  0.00  0.00    +0.000 NA
ATOM     26  C   UNL     1      -0.273  12.397  21.704  0.00  0.00    +0.000 C 
ATOM     27  C   UNL     1      -0.978  11.822  22.928  0.00  0.00    +0.000 C 
ATOM     28  C   UNL     1      -2.344  12.437  23.210  0.00  0.00    +0.000 C 
ATOM     29  C   UNL     1      -3.350  12.259  22.081  0.00  0.00    +0.000 C 
ATOM     30  C   UNL     1      -2.962  13.032  20.827  0.00  0.00    +0.000 C 
ATOM     31  C   UNL     1      -2.052  12.262  19.879  0.00  0.00    +0.000 C 
ENDBRANCH  22  25
ENDBRANCH   3  22
BRANCH   6  32
ATOM     32  O   UNL     1       1.967   5.854  20.964  0.00  0.00    +0.000 OA
BRANCH  32  33
ATOM     33  C   UNL     1       1.055   4.803  20.598  0.00  0.00    +0.000 C 
ATOM     34  C   UNL     1       1.556   3.424  20.972  0.00  0.00    +0.000 C 
ENDBRANCH  32  33
ENDBRANCH   6  32
TORSDOF 7
ENDMDL
MODEL 7
REMARK VINA RESULT:      -7.3      1.589      3.086
REMARK  Name = 
REMARK  10 active torsions:
REMARK  status: ('A' for Active; 'I' for Inactive)
REMARK    1  A    between atoms: C_1  and  C_2
REMARK    2  A    between atoms: C_2  and  C_3
REMARK    3  A    between atoms: C_3  and  C_4
REMARK    4  A    between atoms: N_6  and  C_7
REMARK    5  A    between atoms: C_12  and  C_13
REMARK    6  A    between atoms: C_15  and  S_16
REMARK    7  A    between atoms: S_16  and  N_19
REMARK    8  A    between atoms: C_28  and  O_29
REMARK    9  A    between atoms: O_29  and  C_30
REMARK   10  A    between atoms: C_30  and  C_31
REMARK                            x       y       z     vdW  Elec       q    Type
REMARK                         _______ _______ _______ _____ _____    ______ ____
ROOT
ATOM      1  C   UNL     1       2.263   7.399  19.310  0.00  0.00    +0.000 A 
ATOM      2  C   UNL     1       1.940   8.665  18.808  0.00  0.00    +0.000 A 
ATOM      3  C   UNL     1       1.114   9.525  19.536  0.00  0.00    +0.000 A 
ATOM      4  C   UNL     1       0.517   9.101  20.712  0.00  0.00    +0.000 A 
ATOM      5  C   UNL     1       0.852   7.857  21.225  0.00  0.00    +0.000 A 
ATOM      6  C   UNL     1       1.716   6.979  20.552  0.00  0.00    +0.000 A 
ENDROOT
BRANCH   1  15
ATOM      7  C   UNL     1       3.890   3.327  17.031  0.00  0.00    +0.000 A 
ATOM      8  N   UNL     1       4.833   3.148  16.085  0.00  0.00    +0.000 NA
ATOM      9  N   UNL     1       5.378   4.382  15.932  0.00  0.00    +0.000 N 
ATOM     10  C   UNL     1       6.423   4.599  14.960  0.00  0.00    +0.000 C 
ATOM     11  C   UNL     1       4.833   5.310  16.763  0.00  0.00    +0.000 A 
ATOM     12  C   UNL     1       5.117   6.678  16.963  0.00  0.00    +0.000 A 
ATOM     13  O   UNL     1       5.950   7.340  16.358  0.00  0.00    +0.000 OA
ATOM     14  N   UNL     1       4.297   7.223  17.926  0.00  0.00    +0.000 N 
ATOM     15  C   UNL     1       3.196   6.556  18.484  0.00  0.00    +0.000 A 
ATOM     16  N   UNL     1       2.966   5.290  18.319  0.00  0.00    +0.000 NA
ATOM     17  C   UNL     1       3.848   4.664  17.442  0.00  0.00    +0.000 A 
ATOM     18  H   UNL     1       4.475   8.200  18.087  0.00  0.00    +0.000 HD
BRANCH   7  19
ATOM     19  C   UNL     1       3.058   2.206  17.540  0.00  0.00    +0.000 C 
BRANCH  19  21
ATOM     20  C   UNL     1       4.373   2.130  19.680  0.00  0.00    +0.000 C 
ATOM     21  C   UNL     1       3.817   1.317  18.525  0.00  0.00    +0.000 C 
ENDBRANCH  19  21
ENDBRANCH   7  19
ENDBRANCH   1  15
BRANCH   3  22
ATOM     22  S   UNL     1       0.890  11.207  18.978  0.00  0.00    +0.000 S 
ATOM     23  O   UNL     1       0.935  12.047  20.150  0.00  0.00    +0.000 OA
ATOM     24  O   UNL     1       1.782  11.404  17.867  0.00  0.00    +0.000 OA
BRANCH  22  25
ATOM     25  N   UNL     1      -0.734  11.160  18.401  0.00  0.00    +0.000 NA
ATOM     26  C   UNL     1      -1.213   9.839  17.930  0.00  0.00    +0.000 C 
ATOM     27  C   UNL     1      -2.018   9.966  16.640  0.00  0.00    +0.000 C 
ATOM     28  C   UNL     1      -3.472  10.373  16.848  0.00  0.00    +0.000 C 
ATOM     29  C   UNL     1      -3.648  11.722  17.532  0.00  0.00    +0.000 C 
ATOM     30  C   UNL     1      -3.164  11.710  18.977  0.00  0.00    +0.000 C 
ATOM     31  C   UNL     1      -1.685  12.036  19.139  0.00  0.00    +0.000 C 
ENDBRANCH  22  25
ENDBRANCH   3  22
BRANCH   6  32
ATOM     32  O   UNL     1       1.992   5.729  21.071  0.00  0.00    +0.000 OA
BRANCH  32  33
ATOM     33  C   UNL     1       1.073   4.696  20.670  0.00  0.00    +0.000 C 
ATOM     34  C   UNL     1       1.436   3.332  21.217  0.00  0.00    +0.000 C 
ENDBRANCH  32  33
ENDBRANCH   6  32
TORSDOF 7
ENDMDL
MODEL 8
REMARK VINA RESULT:      -7.2      3.048      8.105
REMARK  Name = 
REMARK  10 active torsions:
REMARK  status: ('A' for Active; 'I' for Inactive)
REMARK    1  A    between atoms: C_1  and  C_2
REMARK    2  A    between atoms: C_2  and  C_3
REMARK    3  A    between atoms: C_3  and  C_4
REMARK    4  A    between atoms: N_6  and  C_7
REMARK    5  A    between atoms: C_12  and  C_13
REMARK    6  A    between atoms: C_15  and  S_16
REMARK    7  A    between atoms: S_16  and  N_19
REMARK    8  A    between atoms: C_28  and  O_29
REMARK    9  A    between atoms: O_29  and  C_30
REMARK   10  A    between atoms: C_30  and  C_31
REMARK                            x       y       z     vdW  Elec       q    Type
REMARK                         _______ _______ _______ _____ _____    ______ ____
ROOT
ATOM      1  C   UNL     1       3.417   6.266  18.691  0.00  0.00    +0.000 A 
ATOM      2  C   UNL     1       4.709   6.429  18.178  0.00  0.00    +0.000 A 
ATOM      3  C   UNL     1       5.532   5.320  17.970  0.00  0.00    +0.000 A 
ATOM      4  C   UNL     1       5.124   4.056  18.363  0.00  0.00    +0.000 A 
ATOM      5  C   UNL     1       3.836   3.887  18.850  0.00  0.00    +0.000 A 
ATOM      6  C   UNL     1       2.957   4.966  19.031  0.00  0.00    +0.000 A 
ENDROOT
BRANCH   1  15
ATOM      7  C   UNL     1       0.301   9.406  20.895  0.00  0.00    +0.000 A 
ATOM      8  N   UNL     1       0.008  10.698  20.645  0.00  0.00    +0.000 NA
ATOM      9  N   UNL     1       0.706  10.977  19.514  0.00  0.00    +0.000 N 
ATOM     10  C   UNL     1       0.667  12.304  18.946  0.00  0.00    +0.000 C 
ATOM     11  C   UNL     1       1.393   9.906  19.037  0.00  0.00    +0.000 A 
ATOM     12  C   UNL     1       2.203   9.740  17.892  0.00  0.00    +0.000 A 
ATOM     13  O   UNL     1       2.480  10.604  17.070  0.00  0.00    +0.000 OA
ATOM     14  N   UNL     1       2.701   8.458  17.814  0.00  0.00    +0.000 N 
ATOM     15  C   UNL     1       2.581   7.509  18.841  0.00  0.00    +0.000 A 
ATOM     16  N   UNL     1       1.808   7.661  19.871  0.00  0.00    +0.000 NA
ATOM     17  C   UNL     1       1.184   8.904  19.932  0.00  0.00    +0.000 A 
ATOM     18  H   UNL     1       3.285   8.311  17.008  0.00  0.00    +0.000 HD
BRANCH   7  19
ATOM     19  C   UNL     1      -0.288   8.669  22.043  0.00  0.00    +0.000 C 
BRANCH  19  21
ATOM     20  C   UNL     1      -1.218  10.603  23.351  0.00  0.00    +0.000 C 
ATOM     21  C   UNL     1      -0.214   9.464  23.346  0.00  0.00    +0.000 C 
ENDBRANCH  19  21
ENDBRANCH   7  19
ENDBRANCH   1  15
BRANCH   3  22
ATOM     22  S   UNL     1       7.089   5.530  17.120  0.00  0.00    +0.000 S 
ATOM     23  O   UNL     1       7.329   6.950  17.029  0.00  0.00    +0.000 OA
ATOM     24  O   UNL     1       8.031   4.638  17.739  0.00  0.00    +0.000 OA
BRANCH  22  25
ATOM     25  N   UNL     1       6.698   4.940  15.548  0.00  0.00    +0.000 NA
ATOM     26  C   UNL     1       5.315   5.202  15.086  0.00  0.00    +0.000 C 
ATOM     27  C   UNL     1       4.719   3.982  14.390  0.00  0.00    +0.000 C 
ATOM     28  C   UNL     1       5.133   3.828  12.932  0.00  0.00    +0.000 C 
ATOM     29  C   UNL     1       6.634   3.680  12.724  0.00  0.00    +0.000 C 
ATOM     30  C   UNL     1       7.400   4.946  13.088  0.00  0.00    +0.000 C 
ATOM     31  C   UNL     1       7.805   5.027  14.555  0.00  0.00    +0.000 C 
ENDBRANCH  22  25
ENDBRANCH   3  22
BRANCH   6  32
ATOM     32  O   UNL     1       1.697   4.766  19.560  0.00  0.00    +0.000 OA
BRANCH  32  33
ATOM     33  C   UNL     1       1.308   3.384  19.675  0.00  0.00    +0.000 C 
ATOM     34  C   UNL     1       1.242   2.904  21.109  0.00  0.00    +0.000 C 
ENDBRANCH  32  33
ENDBRANCH   6  32
TORSDOF 7
ENDMDL
MODEL 9
REMARK VINA RESULT:      -7.1      6.267      9.798
REMARK  Name = 
REMARK  10 active torsions:
REMARK  status: ('A' for Active; 'I' for Inactive)
REMARK    1  A    between atoms: C_1  and  C_2
REMARK    2  A    between atoms: C_2  and  C_3
REMARK    3  A    between atoms: C_3  and  C_4
REMARK    4  A    between atoms: N_6  and  C_7
REMARK    5  A    between atoms: C_12  and  C_13
REMARK    6  A    between atoms: C_15  and  S_16
REMARK    7  A    between atoms: S_16  and  N_19
REMARK    8  A    between atoms: C_28  and  O_29
REMARK    9  A    between atoms: O_29  and  C_30
REMARK   10  A    between atoms: C_30  and  C_31
REMARK                            x       y       z     vdW  Elec       q    Type
REMARK                         _______ _______ _______ _____ _____    ______ ____
ROOT
ATOM      1  C   UNL     1      -1.316  11.714  20.247  0.00  0.00    +0.000 A 
ATOM      2  C   UNL     1      -2.262  11.703  19.215  0.00  0.00    +0.000 A 
ATOM      3  C   UNL     1      -2.101  10.855  18.118  0.00  0.00    +0.000 A 
ATOM      4  C   UNL     1      -0.954  10.089  17.981  0.00  0.00    +0.000 A 
ATOM      5  C   UNL     1      -0.026  10.079  19.012  0.00  0.00    +0.000 A 
ATOM      6  C   UNL     1      -0.171  10.880  20.156  0.00  0.00    +0.000 A 
ENDROOT
BRANCH   1  15
ATOM      7  C   UNL     1      -3.685  13.377  24.253  0.00  0.00    +0.000 A 
ATOM      8  N   UNL     1      -3.317  14.253  25.210  0.00  0.00    +0.000 NA
ATOM      9  N   UNL     1      -2.115  14.717  24.782  0.00  0.00    +0.000 N 
ATOM     10  C   UNL     1      -1.380  15.671  25.578  0.00  0.00    +0.000 C 
ATOM     11  C   UNL     1      -1.738  14.189  23.587  0.00  0.00    +0.000 A 
ATOM     12  C   UNL     1      -0.605  14.414  22.774  0.00  0.00    +0.000 A 
ATOM     13  O   UNL     1       0.331  15.160  23.027  0.00  0.00    +0.000 OA
ATOM     14  N   UNL     1      -0.649  13.642  21.634  0.00  0.00    +0.000 N 
ATOM     15  C   UNL     1      -1.590  12.625  21.414  0.00  0.00    +0.000 A 
ATOM     16  N   UNL     1      -2.644  12.451  22.150  0.00  0.00    +0.000 NA
ATOM     17  C   UNL     1      -2.707  13.295  23.255  0.00  0.00    +0.000 A 
ATOM     18  H   UNL     1       0.149  13.779  21.036  0.00  0.00    +0.000 HD
BRANCH   7  19
ATOM     19  C   UNL     1      -4.979  12.649  24.303  0.00  0.00    +0.000 C 
BRANCH  19  21
ATOM     20  C   UNL     1      -7.373  12.623  23.542  0.00  0.00    +0.000 C 
ATOM     21  C   UNL     1      -6.137  13.479  23.748  0.00  0.00    +0.000 C 
ENDBRANCH  19  21
ENDBRANCH   7  19
ENDBRANCH   1  15
BRANCH   3  22
ATOM     22  S   UNL     1      -3.421  10.704  16.924  0.00  0.00    +0.000 S 
ATOM     23  O   UNL     1      -3.208  11.728  15.931  0.00  0.00    +0.000 OA
ATOM     24  O   UNL     1      -3.515   9.312  16.574  0.00  0.00    +0.000 OA
BRANCH  22  25
ATOM     25  N   UNL     1      -4.790  11.143  17.877  0.00  0.00    +0.000 NA
ATOM     26  C   UNL     1      -5.617  12.251  17.345  0.00  0.00    +0.000 C 
ATOM     27  C   UNL     1      -6.033  13.216  18.451  0.00  0.00    +0.000 C 
ATOM     28  C   UNL     1      -7.240  12.758  19.261  0.00  0.00    +0.000 C 
ATOM     29  C   UNL     1      -7.038  11.431  19.980  0.00  0.00    +0.000 C 
ATOM     30  C   UNL     1      -6.903  10.260  19.015  0.00  0.00    +0.000 C 
ATOM     31  C   UNL     1      -5.477  10.003  18.546  0.00  0.00    +0.000 C 
ENDBRANCH  22  25
ENDBRANCH   3  22
BRANCH   6  32
ATOM     32  O   UNL     1       0.796  10.877  21.142  0.00  0.00    +0.000 OA
BRANCH  32  33
ATOM     33  C   UNL     1       0.882   9.653  21.895  0.00  0.00    +0.000 C 
ATOM     34  C   UNL     1      -0.052   9.623  23.087  0.00  0.00    +0.000 C 
ENDBRANCH  32  33
ENDBRANCH   6  32
TORSDOF 7
ENDMDL
