MODEL 1
REMARK VINA RESULT:      -8.1      0.000      0.000
REMARK  Name = 
REMARK  8 active torsions:
REMARK  status: ('A' for Active; 'I' for Inactive)
REMARK    1  A    between atoms: C_1  and  N_2
REMARK    2  A    between atoms: C_6  and  C_7
REMARK    3  A    between atoms: C_7  and  O_8
REMARK    4  A    between atoms: O_8  and  C_9
REMARK    5  A    between atoms: C_12  and  C_13
REMARK    6  A    between atoms: C_13  and  C_14
REMARK    7  A    between atoms: C_14  and  N_15
REMARK    8  A    between atoms: C_16  and  C_18
REMARK                            x       y       z     vdW  Elec       q    Type
REMARK                         _______ _______ _______ _____ _____    ______ ____
ROOT
ATOM      1  C   UNL     1       4.895   3.948  17.470  0.00  0.00    +0.000 A 
ATOM      2  C   UNL     1       5.099   4.182  18.832  0.00  0.00    +0.000 A 
ATOM      3  C   UNL     1       6.130   4.988  19.281  0.00  0.00    +0.000 A 
ATOM      4  C   UNL     1       7.038   5.562  18.390  0.00  0.00    +0.000 A 
ATOM      5  C   UNL     1       6.848   5.340  17.019  0.00  0.00    +0.000 A 
ATOM      6  C   UNL     1       5.780   4.544  16.561  0.00  0.00    +0.000 A 
ATOM      7 BR   UNL     1       5.567   4.328  14.687  0.00  0.00    +0.000 Br
ENDROOT
BRANCH   1   8
ATOM      8  O   UNL     1       3.851   3.174  17.009  0.00  0.00    +0.000 OA
BRANCH   8   9
ATOM      9  C   UNL     1       3.011   2.666  18.056  0.00  0.00    +0.000 C 
BRANCH   9  15
ATOM     10  C   UNL     1       2.239   6.566  19.716  0.00  0.00    +0.000 C 
ATOM     11  N   UNL     1       2.135   5.113  19.567  0.00  0.00    +0.000 NA
ATOM     12  C   UNL     1       1.254   4.554  20.603  0.00  0.00    +0.000 C 
ATOM     13  C   UNL     1       1.123   3.032  20.491  0.00  0.00    +0.000 C 
ATOM     14  C   UNL     1       0.696   2.605  19.088  0.00  0.00    +0.000 C 
ATOM     15  C   UNL     1       1.592   3.232  18.016  0.00  0.00    +0.000 C 
ATOM     16  C   UNL     1       1.656   4.761  18.219  0.00  0.00    +0.000 C 
ENDBRANCH   9  15
ENDBRANCH   8   9
ENDBRANCH   1   8
BRANCH   4  17
ATOM     17  C   UNL     1       8.140   6.455  18.911  0.00  0.00    +0.000 C 
BRANCH  17  18
ATOM     18  C   UNL     1       8.151   7.848  18.262  0.00  0.00    +0.000 C 
BRANCH  18  19
ATOM     19  N   UNL     1       8.960   8.803  18.967  0.00  0.00    +0.000 N 
ATOM     20  C   UNL     1       8.922  10.141  18.647  0.00  0.00    +0.000 C 
ATOM     21  O   UNL     1       8.281  10.579  17.694  0.00  0.00    +0.000 OA
ATOM     22  H   UNL     1       9.459   8.500  19.790  0.00  0.00    +0.000 HD
BRANCH  20  23
ATOM     23  C   UNL     1       9.684  10.999  19.525  0.00  0.00    +0.000 A 
ATOM     24  C   UNL     1       9.410  11.541  20.766  0.00  0.00    +0.000 A 
ATOM     25  C   UNL     1      10.526  12.314  21.163  0.00  0.00    +0.000 A 
ATOM     26  C   UNL     1      11.457  12.235  20.156  0.00  0.00    +0.000 A 
ATOM     27  N   UNL     1      10.942  11.442  19.169  0.00  0.00    +0.000 N 
ATOM     28  H   UNL     1      11.394  11.198  18.295  0.00  0.00    +0.000 HD
ENDBRANCH  20  23
ENDBRANCH  18  19
ENDBRANCH  17  18
ENDBRANCH   4  17
TORSDOF 7
ENDMDL
MODEL 2
REMARK VINA RESULT:      -7.8      1.542      2.015
REMARK  Name = 
REMARK  8 active torsions:
REMARK  status: ('A' for Active; 'I' for Inactive)
REMARK    1  A    between atoms: C_1  and  N_2
REMARK    2  A    between atoms: C_6  and  C_7
REMARK    3  A    between atoms: C_7  and  O_8
REMARK    4  A    between atoms: O_8  and  C_9
REMARK    5  A    between atoms: C_12  and  C_13
REMARK    6  A    between atoms: C_13  and  C_14
REMARK    7  A    between atoms: C_14  and  N_15
REMARK    8  A    between atoms: C_16  and  C_18
REMARK                            x       y       z     vdW  Elec       q    Type
REMARK                         _______ _______ _______ _____ _____    ______ ____
ROOT
ATOM      1  C   UNL     1       5.543   4.355  17.117  0.00  0.00    +0.000 A 
ATOM      2  C   UNL     1       5.564   4.931  18.390  0.00  0.00    +0.000 A 
ATOM      3  C   UNL     1       6.436   5.957  18.707  0.00  0.00    +0.000 A 
ATOM      4  C   UNL     1       7.364   6.428  17.777  0.00  0.00    +0.000 A 
ATOM      5  C   UNL     1       7.356   5.865  16.492  0.00  0.00    +0.000 A 
ATOM      6  C   UNL     1       6.447   4.841  16.163  0.00  0.00    +0.000 A 
ATOM      7 BR   UNL     1       6.473   4.162  14.391  0.00  0.00    +0.000 Br
ENDROOT
BRANCH   1   8
ATOM      8  O   UNL     1       4.656   3.355  16.781  0.00  0.00    +0.000 OA
BRANCH   8   9
ATOM      9  C   UNL     1       3.285   3.703  17.022  0.00  0.00    +0.000 C 
BRANCH   9  15
ATOM     10  C   UNL     1       1.190   4.465  20.709  0.00  0.00    +0.000 C 
ATOM     11  N   UNL     1       2.161   3.842  19.807  0.00  0.00    +0.000 NA
ATOM     12  C   UNL     1       2.999   2.882  20.541  0.00  0.00    +0.000 C 
ATOM     13  C   UNL     1       4.039   2.212  19.637  0.00  0.00    +0.000 C 
ATOM     14  C   UNL     1       3.392   1.581  18.406  0.00  0.00    +0.000 C 
ATOM     15  C   UNL     1       2.485   2.578  17.678  0.00  0.00    +0.000 C 
ATOM     16  C   UNL     1       1.479   3.193  18.675  0.00  0.00    +0.000 C 
ENDBRANCH   9  15
ENDBRANCH   8   9
ENDBRANCH   1   8
BRANCH   4  17
ATOM     17  C   UNL     1       8.287   7.566  18.146  0.00  0.00    +0.000 C 
BRANCH  17  18
ATOM     18  C   UNL     1       7.627   8.948  18.021  0.00  0.00    +0.000 C 
BRANCH  18  19
ATOM     19  N   UNL     1       8.550   9.995  17.677  0.00  0.00    +0.000 N 
ATOM     20  C   UNL     1       9.303  10.624  18.643  0.00  0.00    +0.000 C 
ATOM     21  O   UNL     1       9.165  10.401  19.843  0.00  0.00    +0.000 OA
ATOM     22  H   UNL     1       8.737  10.173  16.702  0.00  0.00    +0.000 HD
BRANCH  20  23
ATOM     23  C   UNL     1      10.281  11.559  18.137  0.00  0.00    +0.000 A 
ATOM     24  C   UNL     1      11.653  11.641  18.281  0.00  0.00    +0.000 A 
ATOM     25  C   UNL     1      12.102  12.774  17.564  0.00  0.00    +0.000 A 
ATOM     26  C   UNL     1      10.997  13.367  17.002  0.00  0.00    +0.000 A 
ATOM     27  N   UNL     1       9.901  12.631  17.355  0.00  0.00    +0.000 N 
ATOM     28  H   UNL     1       8.939  12.819  17.094  0.00  0.00    +0.000 HD
ENDBRANCH  20  23
ENDBRANCH  18  19
ENDBRANCH  17  18
ENDBRANCH   4  17
TORSDOF 7
ENDMDL
MODEL 3
REMARK VINA RESULT:      -7.7      4.815      8.469
REMARK  Name = 
REMARK  8 active torsions:
REMARK  status: ('A' for Active; 'I' for Inactive)
REMARK    1  A    between atoms: C_1  and  N_2
REMARK    2  A    between atoms: C_6  and  C_7
REMARK    3  A    between atoms: C_7  and  O_8
REMARK    4  A    between atoms: O_8  and  C_9
REMARK    5  A    between atoms: C_12  and  C_13
REMARK    6  A    between atoms: C_13  and  C_14
REMARK    7  A    between atoms: C_14  and  N_15
REMARK    8  A    between atoms: C_16  and  C_18
REMARK                            x       y       z     vdW  Elec       q    Type
REMARK                         _______ _______ _______ _____ _____    ______ ____
ROOT
ATOM      1  C   UNL     1       2.986   5.625  18.889  0.00  0.00    +0.000 A 
ATOM      2  C   UNL     1       3.065   6.789  18.121  0.00  0.00    +0.000 A 
ATOM      3  C   UNL     1       2.453   7.963  18.522  0.00  0.00    +0.000 A 
ATOM      4  C   UNL     1       1.693   8.019  19.691  0.00  0.00    +0.000 A 
ATOM      5  C   UNL     1       1.605   6.861  20.476  0.00  0.00    +0.000 A 
ATOM      6  C   UNL     1       2.252   5.674  20.082  0.00  0.00    +0.000 A 
ATOM      7 BR   UNL     1       2.118   4.163  21.223  0.00  0.00    +0.000 Br
ENDROOT
BRANCH   1   8
ATOM      8  O   UNL     1       3.618   4.458  18.516  0.00  0.00    +0.000 OA
BRANCH   8   9
ATOM      9  C   UNL     1       3.786   4.328  17.096  0.00  0.00    +0.000 C 
BRANCH   9  15
ATOM     10  C   UNL     1       7.429   6.050  18.621  0.00  0.00    +0.000 C 
ATOM     11  N   UNL     1       6.446   5.626  17.622  0.00  0.00    +0.000 NA
ATOM     12  C   UNL     1       6.890   6.008  16.273  0.00  0.00    +0.000 C 
ATOM     13  C   UNL     1       5.885   5.593  15.193  0.00  0.00    +0.000 C 
ATOM     14  C   UNL     1       5.544   4.107  15.283  0.00  0.00    +0.000 C 
ATOM     15  C   UNL     1       5.129   3.713  16.704  0.00  0.00    +0.000 C 
ATOM     16  C   UNL     1       6.205   4.176  17.709  0.00  0.00    +0.000 C 
ENDBRANCH   9  15
ENDBRANCH   8   9
ENDBRANCH   1   8
BRANCH   4  17
ATOM     17  C   UNL     1       1.058   9.323  20.113  0.00  0.00    +0.000 C 
BRANCH  17  18
ATOM     18  C   UNL     1       1.022  10.373  18.991  0.00  0.00    +0.000 C 
BRANCH  18  19
ATOM     19  N   UNL     1      -0.125  10.255  18.132  0.00  0.00    +0.000 N 
ATOM     20  C   UNL     1      -1.256  11.009  18.349  0.00  0.00    +0.000 C 
ATOM     21  O   UNL     1      -1.389  11.740  19.327  0.00  0.00    +0.000 OA
ATOM     22  H   UNL     1      -0.041   9.711  17.287  0.00  0.00    +0.000 HD
BRANCH  20  23
ATOM     23  C   UNL     1      -2.273  10.885  17.331  0.00  0.00    +0.000 A 
ATOM     24  C   UNL     1      -2.432  10.008  16.276  0.00  0.00    +0.000 A 
ATOM     25  C   UNL     1      -3.622  10.353  15.594  0.00  0.00    +0.000 A 
ATOM     26  C   UNL     1      -4.164  11.438  16.241  0.00  0.00    +0.000 A 
ATOM     27  N   UNL     1      -3.343  11.756  17.287  0.00  0.00    +0.000 N 
ATOM     28  H   UNL     1      -3.476  12.512  17.948  0.00  0.00    +0.000 HD
ENDBRANCH  20  23
ENDBRANCH  18  19
ENDBRANCH  17  18
ENDBRANCH   4  17
TORSDOF 7
ENDMDL
MODEL 4
REMARK VINA RESULT:      -7.6      1.642      2.460
REMARK  Name = 
REMARK  8 active torsions:
REMARK  status: ('A' for Active; 'I' for Inactive)
REMARK    1  A    between atoms: C_1  and  N_2
REMARK    2  A    between atoms: C_6  and  C_7
REMARK    3  A    between atoms: C_7  and  O_8
REMARK    4  A    between atoms: O_8  and  C_9
REMARK    5  A    between atoms: C_12  and  C_13
REMARK    6  A    between atoms: C_13  and  C_14
REMARK    7  A    between atoms: C_14  and  N_15
REMARK    8  A    between atoms: C_16  and  C_18
REMARK                            x       y       z     vdW  Elec       q    Type
REMARK                         _______ _______ _______ _____ _____    ______ ____
ROOT
ATOM      1  C   UNL     1       6.419   4.878  17.911  0.00  0.00    +0.000 A 
ATOM      2  C   UNL     1       7.146   5.465  18.950  0.00  0.00    +0.000 A 
ATOM      3  C   UNL     1       7.744   6.704  18.804  0.00  0.00    +0.000 A 
ATOM      4  C   UNL     1       7.682   7.399  17.595  0.00  0.00    +0.000 A 
ATOM      5  C   UNL     1       6.953   6.827  16.542  0.00  0.00    +0.000 A 
ATOM      6  C   UNL     1       6.320   5.579  16.701  0.00  0.00    +0.000 A 
ATOM      7 BR   UNL     1       5.319   4.894  15.241  0.00  0.00    +0.000 Br
ENDROOT
BRANCH   1   8
ATOM      8  O   UNL     1       5.791   3.659  18.055  0.00  0.00    +0.000 OA
BRANCH   8   9
ATOM      9  C   UNL     1       4.858   3.623  19.145  0.00  0.00    +0.000 C 
BRANCH   9  15
ATOM     10  C   UNL     1       1.395   2.797  21.572  0.00  0.00    +0.000 C 
ATOM     11  N   UNL     1       2.220   2.853  20.363  0.00  0.00    +0.000 NA
ATOM     12  C   UNL     1       1.503   2.253  19.227  0.00  0.00    +0.000 C 
ATOM     13  C   UNL     1       2.334   2.280  17.939  0.00  0.00    +0.000 C 
ATOM     14  C   UNL     1       2.833   3.688  17.621  0.00  0.00    +0.000 C 
ATOM     15  C   UNL     1       3.535   4.319  18.827  0.00  0.00    +0.000 C 
ATOM     16  C   UNL     1       2.617   4.239  20.066  0.00  0.00    +0.000 C 
ENDBRANCH   9  15
ENDBRANCH   8   9
ENDBRANCH   1   8
BRANCH   4  17
ATOM     17  C   UNL     1       8.325   8.761  17.476  0.00  0.00    +0.000 C 
BRANCH  17  18
ATOM     18  C   UNL     1       8.683   9.384  18.835  0.00  0.00    +0.000 C 
BRANCH  18  19
ATOM     19  N   UNL     1       9.188  10.726  18.734  0.00  0.00    +0.000 N 
ATOM     20  C   UNL     1       9.561  11.431  19.856  0.00  0.00    +0.000 C 
ATOM     21  O   UNL     1       9.397  11.002  20.995  0.00  0.00    +0.000 OA
ATOM     22  H   UNL     1       9.392  11.099  17.819  0.00  0.00    +0.000 HD
BRANCH  20  23
ATOM     23  C   UNL     1      10.174  12.712  19.593  0.00  0.00    +0.000 A 
ATOM     24  C   UNL     1      11.212  13.390  20.201  0.00  0.00    +0.000 A 
ATOM     25  C   UNL     1      11.390  14.619  19.524  0.00  0.00    +0.000 A 
ATOM     26  C   UNL     1      10.452  14.673  18.521  0.00  0.00    +0.000 A 
ATOM     27  N   UNL     1       9.719  13.520  18.570  0.00  0.00    +0.000 N 
ATOM     28  H   UNL     1       8.951  13.268  17.958  0.00  0.00    +0.000 HD
ENDBRANCH  20  23
ENDBRANCH  18  19
ENDBRANCH  17  18
ENDBRANCH   4  17
TORSDOF 7
ENDMDL
MODEL 5
REMARK VINA RESULT:      -7.6      6.051      9.666
REMARK  Name = 
REMARK  8 active torsions:
REMARK  status: ('A' for Active; 'I' for Inactive)
REMARK    1  A    between atoms: C_1  and  N_2
REMARK    2  A    between atoms: C_6  and  C_7
REMARK    3  A    between atoms: C_7  and  O_8
REMARK    4  A    between atoms: O_8  and  C_9
REMARK    5  A    between atoms: C_12  and  C_13
REMARK    6  A    between atoms: C_13  and  C_14
REMARK    7  A    between atoms: C_14  and  N_15
REMARK    8  A    between atoms: C_16  and  C_18
REMARK                            x       y       z     vdW  Elec       q    Type
REMARK                         _______ _______ _______ _____ _____    ______ ____
ROOT
ATOM      1  C   UNL     1       1.601   7.923  20.467  0.00  0.00    +0.000 A 
ATOM      2  C   UNL     1       0.820   8.357  21.541  0.00  0.00    +0.000 A 
ATOM      3  C   UNL     1       0.069   9.517  21.467  0.00  0.00    +0.000 A 
ATOM      4  C   UNL     1       0.098  10.325  20.330  0.00  0.00    +0.000 A 
ATOM      5  C   UNL     1       0.875   9.904  19.240  0.00  0.00    +0.000 A 
ATOM      6  C   UNL     1       1.616   8.708  19.306  0.00  0.00    +0.000 A 
ATOM      7 BR   UNL     1       2.608   8.188  17.774  0.00  0.00    +0.000 Br
ENDROOT
BRANCH   1   8
ATOM      8  O   UNL     1       2.328   6.752  20.517  0.00  0.00    +0.000 OA
BRANCH   8   9
ATOM      9  C   UNL     1       1.510   5.573  20.525  0.00  0.00    +0.000 C 
BRANCH   9  15
ATOM     10  C   UNL     1       3.871   3.681  17.458  0.00  0.00    +0.000 C 
ATOM     11  N   UNL     1       2.814   3.818  18.462  0.00  0.00    +0.000 NA
ATOM     12  C   UNL     1       1.976   2.609  18.492  0.00  0.00    +0.000 C 
ATOM     13  C   UNL     1       0.849   2.712  19.524  0.00  0.00    +0.000 C 
ATOM     14  C   UNL     1       1.383   3.070  20.909  0.00  0.00    +0.000 C 
ATOM     15  C   UNL     1       2.291   4.302  20.856  0.00  0.00    +0.000 C 
ATOM     16  C   UNL     1       3.388   4.096  19.789  0.00  0.00    +0.000 C 
ENDBRANCH   9  15
ENDBRANCH   8   9
ENDBRANCH   1   8
BRANCH   4  17
ATOM     17  C   UNL     1      -0.752  11.573  20.272  0.00  0.00    +0.000 C 
BRANCH  17  18
ATOM     18  C   UNL     1      -1.082  12.017  18.838  0.00  0.00    +0.000 C 
BRANCH  18  19
ATOM     19  N   UNL     1      -2.481  12.267  18.623  0.00  0.00    +0.000 N 
ATOM     20  C   UNL     1      -3.296  11.310  18.062  0.00  0.00    +0.000 C 
ATOM     21  O   UNL     1      -2.868  10.243  17.630  0.00  0.00    +0.000 OA
ATOM     22  H   UNL     1      -2.887  13.105  19.011  0.00  0.00    +0.000 HD
BRANCH  20  23
ATOM     23  C   UNL     1      -4.699  11.651  18.030  0.00  0.00    +0.000 A 
ATOM     24  C   UNL     1      -5.764  11.287  18.832  0.00  0.00    +0.000 A 
ATOM     25  C   UNL     1      -6.926  11.921  18.333  0.00  0.00    +0.000 A 
ATOM     26  C   UNL     1      -6.551  12.653  17.232  0.00  0.00    +0.000 A 
ATOM     27  N   UNL     1      -5.206  12.483  17.053  0.00  0.00    +0.000 N 
ATOM     28  H   UNL     1      -4.640  12.896  16.320  0.00  0.00    +0.000 HD
ENDBRANCH  20  23
ENDBRANCH  18  19
ENDBRANCH  17  18
ENDBRANCH   4  17
TORSDOF 7
ENDMDL
MODEL 6
REMARK VINA RESULT:      -7.6      5.127      8.801
REMARK  Name = 
REMARK  8 active torsions:
REMARK  status: ('A' for Active; 'I' for Inactive)
REMARK    1  A    between atoms: C_1  and  N_2
REMARK    2  A    between atoms: C_6  and  C_7
REMARK    3  A    between atoms: C_7  and  O_8
REMARK    4  A    between atoms: O_8  and  C_9
REMARK    5  A    between atoms: C_12  and  C_13
REMARK    6  A    between atoms: C_13  and  C_14
REMARK    7  A    between atoms: C_14  and  N_15
REMARK    8  A    between atoms: C_16  and  C_18
REMARK                            x       y       z     vdW  Elec       q    Type
REMARK                         _______ _______ _______ _____ _____    ______ ____
ROOT
ATOM      1  C   UNL     1       2.685   6.790  18.477  0.00  0.00    +0.000 A 
ATOM      2  C   UNL     1       2.625   8.023  17.822  0.00  0.00    +0.000 A 
ATOM      3  C   UNL     1       2.041   9.129  18.413  0.00  0.00    +0.000 A 
ATOM      4  C   UNL     1       1.446   9.046  19.673  0.00  0.00    +0.000 A 
ATOM      5  C   UNL     1       1.499   7.817  20.348  0.00  0.00    +0.000 A 
ATOM      6  C   UNL     1       2.120   6.699  19.757  0.00  0.00    +0.000 A 
ATOM      7 BR   UNL     1       2.186   5.085  20.754  0.00  0.00    +0.000 Br
ENDROOT
BRANCH   1   8
ATOM      8  O   UNL     1       3.293   5.690  17.912  0.00  0.00    +0.000 OA
BRANCH   8   9
ATOM      9  C   UNL     1       4.654   5.512  18.331  0.00  0.00    +0.000 C 
BRANCH   9  15
ATOM     10  C   UNL     1       5.661   4.304  14.320  0.00  0.00    +0.000 C 
ATOM     11  N   UNL     1       5.877   4.619  15.734  0.00  0.00    +0.000 NA
ATOM     12  C   UNL     1       7.280   4.380  16.104  0.00  0.00    +0.000 C 
ATOM     13  C   UNL     1       7.549   4.688  17.580  0.00  0.00    +0.000 C 
ATOM     14  C   UNL     1       7.092   6.096  17.955  0.00  0.00    +0.000 C 
ATOM     15  C   UNL     1       5.645   6.348  17.522  0.00  0.00    +0.000 C 
ATOM     16  C   UNL     1       5.482   6.008  16.024  0.00  0.00    +0.000 C 
ENDBRANCH   9  15
ENDBRANCH   8   9
ENDBRANCH   1   8
BRANCH   4  17
ATOM     17  C   UNL     1       0.838  10.278  20.301  0.00  0.00    +0.000 C 
BRANCH  17  18
ATOM     18  C   UNL     1       0.608  11.420  19.298  0.00  0.00    +0.000 C 
BRANCH  18  19
ATOM     19  N   UNL     1      -0.380  11.115  18.299  0.00  0.00    +0.000 N 
ATOM     20  C   UNL     1      -1.705  11.435  18.489  0.00  0.00    +0.000 C 
ATOM     21  O   UNL     1      -2.132  11.901  19.543  0.00  0.00    +0.000 OA
ATOM     22  H   UNL     1      -0.069  10.784  17.398  0.00  0.00    +0.000 HD
BRANCH  20  23
ATOM     23  C   UNL     1      -2.558  11.192  17.349  0.00  0.00    +0.000 A 
ATOM     24  C   UNL     1      -3.877  11.511  17.088  0.00  0.00    +0.000 A 
ATOM     25  C   UNL     1      -4.200  11.021  15.801  0.00  0.00    +0.000 A 
ATOM     26  C   UNL     1      -3.077  10.405  15.304  0.00  0.00    +0.000 A 
ATOM     27  N   UNL     1      -2.090  10.509  16.245  0.00  0.00    +0.000 N 
ATOM     28  H   UNL     1      -1.145  10.149  16.168  0.00  0.00    +0.000 HD
ENDBRANCH  20  23
ENDBRANCH  18  19
ENDBRANCH  17  18
ENDBRANCH   4  17
TORSDOF 7
ENDMDL
MODEL 7
REMARK VINA RESULT:      -7.5      4.496      8.357
REMARK  Name = 
REMARK  8 active torsions:
REMARK  status: ('A' for Active; 'I' for Inactive)
REMARK    1  A    between atoms: C_1  and  N_2
REMARK    2  A    between atoms: C_6  and  C_7
REMARK    3  A    between atoms: C_7  and  O_8
REMARK    4  A    between atoms: O_8  and  C_9
REMARK    5  A    between atoms: C_12  and  C_13
REMARK    6  A    between atoms: C_13  and  C_14
REMARK    7  A    between atoms: C_14  and  N_15
REMARK    8  A    between atoms: C_16  and  C_18
REMARK                            x       y       z     vdW  Elec       q    Type
REMARK                         _______ _______ _______ _____ _____    ______ ____
ROOT
ATOM      1  C   UNL     1       2.620   5.434  19.165  0.00  0.00    +0.000 A 
ATOM      2  C   UNL     1       2.713   6.720  18.627  0.00  0.00    +0.000 A 
ATOM      3  C   UNL     1       2.185   7.818  19.281  0.00  0.00    +0.000 A 
ATOM      4  C   UNL     1       1.496   7.678  20.487  0.00  0.00    +0.000 A 
ATOM      5  C   UNL     1       1.395   6.396  21.044  0.00  0.00    +0.000 A 
ATOM      6  C   UNL     1       1.958   5.282  20.392  0.00  0.00    +0.000 A 
ATOM      7 BR   UNL     1       1.814   3.587  21.234  0.00  0.00    +0.000 Br
ENDROOT
BRANCH   1   8
ATOM      8  O   UNL     1       3.171   4.336  18.538  0.00  0.00    +0.000 OA
BRANCH   8   9
ATOM      9  C   UNL     1       3.675   4.622  17.226  0.00  0.00    +0.000 C 
BRANCH   9  15
ATOM     10  C   UNL     1       7.416   5.937  18.911  0.00  0.00    +0.000 C 
ATOM     11  N   UNL     1       6.437   5.619  17.869  0.00  0.00    +0.000 NA
ATOM     12  C   UNL     1       6.981   5.940  16.541  0.00  0.00    +0.000 C 
ATOM     13  C   UNL     1       5.986   5.633  15.418  0.00  0.00    +0.000 C 
ATOM     14  C   UNL     1       5.477   4.194  15.494  0.00  0.00    +0.000 C 
ATOM     15  C   UNL     1       4.957   3.859  16.895  0.00  0.00    +0.000 C 
ATOM     16  C   UNL     1       6.032   4.206  17.948  0.00  0.00    +0.000 C 
ENDBRANCH   9  15
ENDBRANCH   8   9
ENDBRANCH   1   8
BRANCH   4  17
ATOM     17  C   UNL     1       0.952   8.901  21.188  0.00  0.00    +0.000 C 
BRANCH  17  18
ATOM     18  C   UNL     1       0.926  10.152  20.296  0.00  0.00    +0.000 C 
BRANCH  18  19
ATOM     19  N   UNL     1      -0.390  10.501  19.835  0.00  0.00    +0.000 N 
ATOM     20  C   UNL     1      -0.771  10.271  18.532  0.00  0.00    +0.000 C 
ATOM     21  O   UNL     1       0.005   9.853  17.677  0.00  0.00    +0.000 OA
ATOM     22  H   UNL     1      -1.077  10.795  20.513  0.00  0.00    +0.000 HD
BRANCH  20  23
ATOM     23  C   UNL     1      -2.160  10.547  18.248  0.00  0.00    +0.000 A 
ATOM     24  C   UNL     1      -3.163   9.787  17.679  0.00  0.00    +0.000 A 
ATOM     25  C   UNL     1      -4.341  10.570  17.643  0.00  0.00    +0.000 A 
ATOM     26  C   UNL     1      -4.034  11.795  18.183  0.00  0.00    +0.000 A 
ATOM     27  N   UNL     1      -2.715  11.776  18.543  0.00  0.00    +0.000 N 
ATOM     28  H   UNL     1      -2.196  12.537  18.968  0.00  0.00    +0.000 HD
ENDBRANCH  20  23
ENDBRANCH  18  19
ENDBRANCH  17  18
ENDBRANCH   4  17
TORSDOF 7
ENDMDL
MODEL 8
REMARK VINA RESULT:      -7.5      5.122      8.736
REMARK  Name = 
REMARK  8 active torsions:
REMARK  status: ('A' for Active; 'I' for Inactive)
REMARK    1  A    between atoms: C_1  and  N_2
REMARK    2  A    between atoms: C_6  and  C_7
REMARK    3  A    between atoms: C_7  and  O_8
REMARK    4  A    between atoms: O_8  and  C_9
REMARK    5  A    between atoms: C_12  and  C_13
REMARK    6  A    between atoms: C_13  and  C_14
REMARK    7  A    between atoms: C_14  and  N_15
REMARK    8  A    between atoms: C_16  and  C_18
REMARK                            x       y       z     vdW  Elec       q    Type
REMARK                         _______ _______ _______ _____ _____    ______ ____
ROOT
ATOM      1  C   UNL     1       2.457   7.103  18.596  0.00  0.00    +0.000 A 
ATOM      2  C   UNL     1       2.213   8.406  18.154  0.00  0.00    +0.000 A 
ATOM      3  C   UNL     1       1.581   9.337  18.958  0.00  0.00    +0.000 A 
ATOM      4  C   UNL     1       1.120   8.998  20.231  0.00  0.00    +0.000 A 
ATOM      5  C   UNL     1       1.358   7.696  20.694  0.00  0.00    +0.000 A 
ATOM      6  C   UNL     1       2.028   6.757  19.885  0.00  0.00    +0.000 A 
ATOM      7 BR   UNL     1       2.347   5.029  20.602  0.00  0.00    +0.000 Br
ENDROOT
BRANCH   1   8
ATOM      8  O   UNL     1       3.115   6.176  17.816  0.00  0.00    +0.000 OA
BRANCH   8   9
ATOM      9  C   UNL     1       4.358   6.657  17.285  0.00  0.00    +0.000 C 
BRANCH   9  15
ATOM     10  C   UNL     1       7.022   5.032  14.314  0.00  0.00    +0.000 C 
ATOM     11  N   UNL     1       6.057   5.027  15.416  0.00  0.00    +0.000 NA
ATOM     12  C   UNL     1       5.711   3.647  15.787  0.00  0.00    +0.000 C 
ATOM     13  C   UNL     1       4.695   3.593  16.932  0.00  0.00    +0.000 C 
ATOM     14  C   UNL     1       5.160   4.408  18.137  0.00  0.00    +0.000 C 
ATOM     15  C   UNL     1       5.563   5.828  17.729  0.00  0.00    +0.000 C 
ATOM     16  C   UNL     1       6.584   5.770  16.573  0.00  0.00    +0.000 C 
ENDBRANCH   9  15
ENDBRANCH   8   9
ENDBRANCH   1   8
BRANCH   4  17
ATOM     17  C   UNL     1       0.455  10.045  21.093  0.00  0.00    +0.000 C 
BRANCH  17  18
ATOM     18  C   UNL     1       0.073  11.317  20.319  0.00  0.00    +0.000 C 
BRANCH  18  19
ATOM     19  N   UNL     1      -1.091  11.157  19.491  0.00  0.00    +0.000 N 
ATOM     20  C   UNL     1      -1.303  11.967  18.399  0.00  0.00    +0.000 C 
ATOM     21  O   UNL     1      -0.576  12.920  18.127  0.00  0.00    +0.000 OA
ATOM     22  H   UNL     1      -1.685  10.355  19.642  0.00  0.00    +0.000 HD
BRANCH  20  23
ATOM     23  C   UNL     1      -2.440  11.605  17.586  0.00  0.00    +0.000 A 
ATOM     24  C   UNL     1      -3.771  11.392  17.888  0.00  0.00    +0.000 A 
ATOM     25  C   UNL     1      -4.445  11.055  16.691  0.00  0.00    +0.000 A 
ATOM     26  C   UNL     1      -3.513  11.062  15.682  0.00  0.00    +0.000 A 
ATOM     27  N   UNL     1      -2.304  11.392  16.229  0.00  0.00    +0.000 N 
ATOM     28  H   UNL     1      -1.422  11.476  15.735  0.00  0.00    +0.000 HD
ENDBRANCH  20  23
ENDBRANCH  18  19
ENDBRANCH  17  18
ENDBRANCH   4  17
TORSDOF 7
ENDMDL
MODEL 9
REMARK VINA RESULT:      -7.5      5.197      7.951
REMARK  Name = 
REMARK  8 active torsions:
REMARK  status: ('A' for Active; 'I' for Inactive)
REMARK    1  A    between atoms: C_1  and  N_2
REMARK    2  A    between atoms: C_6  and  C_7
REMARK    3  A    between atoms: C_7  and  O_8
REMARK    4  A    between atoms: O_8  and  C_9
REMARK    5  A    between atoms: C_12  and  C_13
REMARK    6  A    between atoms: C_13  and  C_14
REMARK    7  A    between atoms: C_14  and  N_15
REMARK    8  A    between atoms: C_16  and  C_18
REMARK                            x       y       z     vdW  Elec       q    Type
REMARK                         _______ _______ _______ _____ _____    ______ ____
ROOT
ATOM      1  C   UNL     1       1.092   9.941  19.183  0.00  0.00    +0.000 A 
ATOM      2  C   UNL     1       1.713   9.346  18.082  0.00  0.00    +0.000 A 
ATOM      3  C   UNL     1       2.231   8.065  18.147  0.00  0.00    +0.000 A 
ATOM      4  C   UNL     1       2.194   7.331  19.333  0.00  0.00    +0.000 A 
ATOM      5  C   UNL     1       1.572   7.910  20.448  0.00  0.00    +0.000 A 
ATOM      6  C   UNL     1       1.019   9.203  20.373  0.00  0.00    +0.000 A 
ATOM      7 BR   UNL     1       0.158   9.897  21.915  0.00  0.00    +0.000 Br
ENDROOT
BRANCH   1   8
ATOM      8  O   UNL     1       0.544  11.204  19.120  0.00  0.00    +0.000 OA
BRANCH   8   9
ATOM      9  C   UNL     1      -0.504  11.324  18.147  0.00  0.00    +0.000 C 
BRANCH   9  15
ATOM     10  C   UNL     1      -3.032  10.322  14.805  0.00  0.00    +0.000 C 
ATOM     11  N   UNL     1      -2.681  10.825  16.135  0.00  0.00    +0.000 NA
ATOM     12  C   UNL     1      -3.872  11.361  16.811  0.00  0.00    +0.000 C 
ATOM     13  C   UNL     1      -3.550  11.909  18.205  0.00  0.00    +0.000 C 
ATOM     14  C   UNL     1      -2.825  10.874  19.063  0.00  0.00    +0.000 C 
ATOM     15  C   UNL     1      -1.614  10.290  18.329  0.00  0.00    +0.000 C 
ATOM     16  C   UNL     1      -2.046   9.769  16.941  0.00  0.00    +0.000 C 
ENDBRANCH   9  15
ENDBRANCH   8   9
ENDBRANCH   1   8
BRANCH   4  17
ATOM     17  C   UNL     1       2.747   5.925  19.364  0.00  0.00    +0.000 C 
BRANCH  17  18
ATOM     18  C   UNL     1       4.268   5.865  19.153  0.00  0.00    +0.000 C 
BRANCH  18  19
ATOM     19  N   UNL     1       4.647   5.530  17.807  0.00  0.00    +0.000 N 
ATOM     20  C   UNL     1       5.970   5.502  17.428  0.00  0.00    +0.000 C 
ATOM     21  O   UNL     1       6.882   5.849  18.173  0.00  0.00    +0.000 OA
ATOM     22  H   UNL     1       3.938   5.185  17.177  0.00  0.00    +0.000 HD
BRANCH  20  23
ATOM     23  C   UNL     1       6.207   5.020  16.086  0.00  0.00    +0.000 A 
ATOM     24  C   UNL     1       5.586   4.052  15.322  0.00  0.00    +0.000 A 
ATOM     25  C   UNL     1       6.241   3.996  14.069  0.00  0.00    +0.000 A 
ATOM     26  C   UNL     1       7.253   4.924  14.095  0.00  0.00    +0.000 A 
ATOM     27  N   UNL     1       7.229   5.537  15.317  0.00  0.00    +0.000 N 
ATOM     28  H   UNL     1       7.856   6.267  15.636  0.00  0.00    +0.000 HD
ENDBRANCH  20  23
ENDBRANCH  18  19
ENDBRANCH  17  18
ENDBRANCH   4  17
TORSDOF 7
ENDMDL
