MODEL 1
REMARK VINA RESULT:      -7.2      0.000      0.000
REMARK  Name = 
REMARK  13 active torsions:
REMARK  status: ('A' for Active; 'I' for Inactive)
REMARK    1  A    between atoms: C_1  and  C_2
REMARK    2  A    between atoms: C_2  and  C_3
REMARK    3  A    between atoms: C_3  and  C_4
REMARK    4  A    between atoms: C_4  and  C_5
REMARK    5  A    between atoms: C_5  and  O_6
REMARK    6  A    between atoms: O_6  and  C_7
REMARK    7  A    between atoms: C_10  and  C_11
REMARK    8  A    between atoms: C_11  and  C_12
REMARK    9  A    between atoms: C_11  and  N_14
REMARK   10  A    between atoms: C_15  and  C_17
REMARK   11  A    between atoms: C_20  and  C_21
REMARK   12  A    between atoms: C_21  and  C_22
REMARK   13  A    between atoms: N_24  and  C_25
REMARK                            x       y       z     vdW  Elec       q    Type
REMARK                         _______ _______ _______ _____ _____    ______ ____
ROOT
ATOM      1  C   UNL     1       3.247   5.841  19.628  0.00  0.00    +0.000 C 
ENDROOT
BRANCH   1   5
ATOM      2  C   UNL     1       0.877   9.490  19.621  0.00  0.00    +0.000 A 
ATOM      3  C   UNL     1       1.585   9.072  18.495  0.00  0.00    +0.000 A 
ATOM      4  C   UNL     1       2.316   7.884  18.503  0.00  0.00    +0.000 A 
ATOM      5  C   UNL     1       2.367   7.083  19.648  0.00  0.00    +0.000 A 
ATOM      6  C   UNL     1       1.628   7.484  20.775  0.00  0.00    +0.000 A 
ATOM      7  C   UNL     1       0.895   8.681  20.759  0.00  0.00    +0.000 A 
BRANCH   2   8
ATOM      8  O   UNL     1       0.153  10.656  19.709  0.00  0.00    +0.000 OA
BRANCH   8   9
ATOM      9  C   UNL     1      -0.508  11.039  18.500  0.00  0.00    +0.000 C 
BRANCH   9  10
ATOM     10  C   UNL     1      -1.829  10.295  18.320  0.00  0.00    +0.000 C 
BRANCH  10  11
ATOM     11  C   UNL     1      -2.651  10.977  17.222  0.00  0.00    +0.000 C 
BRANCH  11  13
ATOM     12  C   UNL     1      -2.848  10.197  14.840  0.00  0.00    +0.000 C 
ATOM     13  C   UNL     1      -3.304   9.976  16.275  0.00  0.00    +0.000 C 
ENDBRANCH  11  13
ENDBRANCH  10  11
ENDBRANCH   9  10
ENDBRANCH   8   9
ENDBRANCH   2   8
ENDBRANCH   1   5
BRANCH   1  14
ATOM     14  N   UNL     1       4.138   5.848  18.481  0.00  0.00    +0.000 N 
ATOM     15  C   UNL     1       5.365   5.230  18.479  0.00  0.00    +0.000 C 
ATOM     16  O   UNL     1       5.811   4.649  19.465  0.00  0.00    +0.000 OA
ATOM     17  H   UNL     1       3.790   6.223  17.607  0.00  0.00    +0.000 HD
BRANCH  15  18
ATOM     18  C   UNL     1       6.040   5.258  17.205  0.00  0.00    +0.000 A 
ATOM     19  C   UNL     1       5.843   4.516  16.053  0.00  0.00    +0.000 A 
ATOM     20 CL   UNL     1       4.677   3.314  15.750  0.00  0.00    +0.000 Cl
ATOM     21  C   UNL     1       6.820   4.958  15.131  0.00  0.00    +0.000 A 
ATOM     22  N   UNL     1       7.583   5.922  15.658  0.00  0.00    +0.000 NA
ATOM     23  N   UNL     1       7.084   6.100  16.900  0.00  0.00    +0.000 N 
ATOM     24  C   UNL     1       7.720   7.059  17.774  0.00  0.00    +0.000 C 
BRANCH  21  25
ATOM     25  C   UNL     1       7.066   4.493  13.734  0.00  0.00    +0.000 C 
ATOM     26  C   UNL     1       7.971   5.436  12.955  0.00  0.00    +0.000 C 
ENDBRANCH  21  25
ENDBRANCH  15  18
ENDBRANCH   1  14
BRANCH   1  27
ATOM     27  C   UNL     1       2.382   4.569  19.684  0.00  0.00    +0.000 C 
ATOM     28 CL   UNL     1       2.183   3.986  21.362  0.00  0.00    +0.000 Cl
ENDBRANCH   1  27
TORSDOF 10
ENDMDL
MODEL 2
REMARK VINA RESULT:      -7.2      0.900      1.376
REMARK  Name = 
REMARK  13 active torsions:
REMARK  status: ('A' for Active; 'I' for Inactive)
REMARK    1  A    between atoms: C_1  and  C_2
REMARK    2  A    between atoms: C_2  and  C_3
REMARK    3  A    between atoms: C_3  and  C_4
REMARK    4  A    between atoms: C_4  and  C_5
REMARK    5  A    between atoms: C_5  and  O_6
REMARK    6  A    between atoms: O_6  and  C_7
REMARK    7  A    between atoms: C_10  and  C_11
REMARK    8  A    between atoms: C_11  and  C_12
REMARK    9  A    between atoms: C_11  and  N_14
REMARK   10  A    between atoms: C_15  and  C_17
REMARK   11  A    between atoms: C_20  and  C_21
REMARK   12  A    between atoms: C_21  and  C_22
REMARK   13  A    between atoms: N_24  and  C_25
REMARK                            x       y       z     vdW  Elec       q    Type
REMARK                         _______ _______ _______ _____ _____    ______ ____
ROOT
ATOM      1  C   UNL     1       3.066   5.775  19.598  0.00  0.00    +0.000 C 
ENDROOT
BRANCH   1   5
ATOM      2  C   UNL     1       0.734   9.437  19.888  0.00  0.00    +0.000 A 
ATOM      3  C   UNL     1       0.892   8.578  20.975  0.00  0.00    +0.000 A 
ATOM      4  C   UNL     1       1.667   7.423  20.875  0.00  0.00    +0.000 A 
ATOM      5  C   UNL     1       2.302   7.089  19.675  0.00  0.00    +0.000 A 
ATOM      6  C   UNL     1       2.173   7.969  18.586  0.00  0.00    +0.000 A 
ATOM      7  C   UNL     1       1.390   9.129  18.695  0.00  0.00    +0.000 A 
BRANCH   2   8
ATOM      8  O   UNL     1      -0.030  10.580  19.891  0.00  0.00    +0.000 OA
BRANCH   8   9
ATOM      9  C   UNL     1       0.167  11.431  18.758  0.00  0.00    +0.000 C 
BRANCH   9  10
ATOM     10  C   UNL     1      -1.153  11.764  18.068  0.00  0.00    +0.000 C 
BRANCH  10  11
ATOM     11  C   UNL     1      -2.122  10.588  18.228  0.00  0.00    +0.000 C 
BRANCH  11  13
ATOM     12  C   UNL     1      -2.949  10.935  15.879  0.00  0.00    +0.000 C 
ATOM     13  C   UNL     1      -2.454   9.920  16.899  0.00  0.00    +0.000 C 
ENDBRANCH  11  13
ENDBRANCH  10  11
ENDBRANCH   9  10
ENDBRANCH   8   9
ENDBRANCH   2   8
ENDBRANCH   1   5
BRANCH   1  14
ATOM     14  N   UNL     1       3.961   5.753  18.454  0.00  0.00    +0.000 N 
ATOM     15  C   UNL     1       5.310   5.520  18.560  0.00  0.00    +0.000 C 
ATOM     16  O   UNL     1       5.865   5.341  19.641  0.00  0.00    +0.000 OA
ATOM     17  H   UNL     1       3.554   5.795  17.528  0.00  0.00    +0.000 HD
BRANCH  15  18
ATOM     18  C   UNL     1       5.996   5.427  17.295  0.00  0.00    +0.000 A 
ATOM     19  C   UNL     1       5.865   4.528  16.251  0.00  0.00    +0.000 A 
ATOM     20 CL   UNL     1       4.790   3.216  16.108  0.00  0.00    +0.000 Cl
ATOM     21  C   UNL     1       6.819   4.912  15.281  0.00  0.00    +0.000 A 
ATOM     22  N   UNL     1       7.507   5.989  15.677  0.00  0.00    +0.000 NA
ATOM     23  N   UNL     1       6.982   6.294  16.883  0.00  0.00    +0.000 N 
ATOM     24  C   UNL     1       7.540   7.403  17.623  0.00  0.00    +0.000 C 
BRANCH  21  25
ATOM     25  C   UNL     1       7.113   4.286  13.958  0.00  0.00    +0.000 C 
ATOM     26  C   UNL     1       5.854   3.994  13.157  0.00  0.00    +0.000 C 
ENDBRANCH  21  25
ENDBRANCH  15  18
ENDBRANCH   1  14
BRANCH   1  27
ATOM     27  C   UNL     1       2.089   4.585  19.595  0.00  0.00    +0.000 C 
ATOM     28 CL   UNL     1       1.318   4.377  17.996  0.00  0.00    +0.000 Cl
ENDBRANCH   1  27
TORSDOF 10
ENDMDL
MODEL 3
REMARK VINA RESULT:      -7.1      1.559      1.883
REMARK  Name = 
REMARK  13 active torsions:
REMARK  status: ('A' for Active; 'I' for Inactive)
REMARK    1  A    between atoms: C_1  and  C_2
REMARK    2  A    between atoms: C_2  and  C_3
REMARK    3  A    between atoms: C_3  and  C_4
REMARK    4  A    between atoms: C_4  and  C_5
REMARK    5  A    between atoms: C_5  and  O_6
REMARK    6  A    between atoms: O_6  and  C_7
REMARK    7  A    between atoms: C_10  and  C_11
REMARK    8  A    between atoms: C_11  and  C_12
REMARK    9  A    between atoms: C_11  and  N_14
REMARK   10  A    between atoms: C_15  and  C_17
REMARK   11  A    between atoms: C_20  and  C_21
REMARK   12  A    between atoms: C_21  and  C_22
REMARK   13  A    between atoms: N_24  and  C_25
REMARK                            x       y       z     vdW  Elec       q    Type
REMARK                         _______ _______ _______ _____ _____    ______ ____
ROOT
ATOM      1  C   UNL     1       2.838   6.155  20.095  0.00  0.00    +0.000 C 
ENDROOT
BRANCH   1   5
ATOM      2  C   UNL     1       0.807   9.951  19.468  0.00  0.00    +0.000 A 
ATOM      3  C   UNL     1       1.512   9.317  18.446  0.00  0.00    +0.000 A 
ATOM      4  C   UNL     1       2.133   8.086  18.654  0.00  0.00    +0.000 A 
ATOM      5  C   UNL     1       2.072   7.456  19.901  0.00  0.00    +0.000 A 
ATOM      6  C   UNL     1       1.334   8.076  20.925  0.00  0.00    +0.000 A 
ATOM      7  C   UNL     1       0.713   9.315  20.707  0.00  0.00    +0.000 A 
BRANCH   2   8
ATOM      8  O   UNL     1       0.187  11.174  19.358  0.00  0.00    +0.000 OA
BRANCH   8   9
ATOM      9  C   UNL     1      -0.716  11.287  18.254  0.00  0.00    +0.000 C 
BRANCH   9  10
ATOM     10  C   UNL     1      -2.122  10.823  18.627  0.00  0.00    +0.000 C 
BRANCH  10  11
ATOM     11  C   UNL     1      -2.622   9.823  17.579  0.00  0.00    +0.000 C 
BRANCH  11  13
ATOM     12  C   UNL     1      -2.883  10.555  15.187  0.00  0.00    +0.000 C 
ATOM     13  C   UNL     1      -3.548  10.468  16.554  0.00  0.00    +0.000 C 
ENDBRANCH  11  13
ENDBRANCH  10  11
ENDBRANCH   9  10
ENDBRANCH   8   9
ENDBRANCH   2   8
ENDBRANCH   1   5
BRANCH   1  14
ATOM     14  N   UNL     1       3.522   5.760  18.876  0.00  0.00    +0.000 N 
ATOM     15  C   UNL     1       4.823   5.323  18.853  0.00  0.00    +0.000 C 
ATOM     16  O   UNL     1       5.516   5.262  19.865  0.00  0.00    +0.000 OA
ATOM     17  H   UNL     1       2.980   5.693  18.024  0.00  0.00    +0.000 HD
BRANCH  15  18
ATOM     18  C   UNL     1       5.273   4.872  17.560  0.00  0.00    +0.000 A 
ATOM     19  C   UNL     1       6.167   5.428  16.661  0.00  0.00    +0.000 A 
ATOM     20 CL   UNL     1       7.080   6.857  16.817  0.00  0.00    +0.000 Cl
ATOM     21  C   UNL     1       6.195   4.558  15.546  0.00  0.00    +0.000 A 
ATOM     22  N   UNL     1       5.378   3.515  15.726  0.00  0.00    +0.000 NA
ATOM     23  N   UNL     1       4.849   3.713  16.951  0.00  0.00    +0.000 N 
ATOM     24  C   UNL     1       3.871   2.771  17.447  0.00  0.00    +0.000 C 
BRANCH  21  25
ATOM     25  C   UNL     1       6.984   4.678  14.285  0.00  0.00    +0.000 C 
ATOM     26  C   UNL     1       6.375   3.889  13.136  0.00  0.00    +0.000 C 
ENDBRANCH  21  25
ENDBRANCH  15  18
ENDBRANCH   1  14
BRANCH   1  27
ATOM     27  C   UNL     1       1.899   5.052  20.618  0.00  0.00    +0.000 C 
ATOM     28 CL   UNL     1       1.240   4.066  19.281  0.00  0.00    +0.000 Cl
ENDBRANCH   1  27
TORSDOF 10
ENDMDL
MODEL 4
REMARK VINA RESULT:      -7.1      1.974      2.749
REMARK  Name = 
REMARK  13 active torsions:
REMARK  status: ('A' for Active; 'I' for Inactive)
REMARK    1  A    between atoms: C_1  and  C_2
REMARK    2  A    between atoms: C_2  and  C_3
REMARK    3  A    between atoms: C_3  and  C_4
REMARK    4  A    between atoms: C_4  and  C_5
REMARK    5  A    between atoms: C_5  and  O_6
REMARK    6  A    between atoms: O_6  and  C_7
REMARK    7  A    between atoms: C_10  and  C_11
REMARK    8  A    between atoms: C_11  and  C_12
REMARK    9  A    between atoms: C_11  and  N_14
REMARK   10  A    between atoms: C_15  and  C_17
REMARK   11  A    between atoms: C_20  and  C_21
REMARK   12  A    between atoms: C_21  and  C_22
REMARK   13  A    between atoms: N_24  and  C_25
REMARK                            x       y       z     vdW  Elec       q    Type
REMARK                         _______ _______ _______ _____ _____    ______ ____
ROOT
ATOM      1  C   UNL     1       2.984   6.078  19.496  0.00  0.00    +0.000 C 
ENDROOT
BRANCH   1   5
ATOM      2  C   UNL     1       0.727   9.796  19.603  0.00  0.00    +0.000 A 
ATOM      3  C   UNL     1       0.849   8.978  20.725  0.00  0.00    +0.000 A 
ATOM      4  C   UNL     1       1.600   7.804  20.684  0.00  0.00    +0.000 A 
ATOM      5  C   UNL     1       2.247   7.410  19.508  0.00  0.00    +0.000 A 
ATOM      6  C   UNL     1       2.155   8.249  18.384  0.00  0.00    +0.000 A 
ATOM      7  C   UNL     1       1.395   9.428  18.434  0.00  0.00    +0.000 A 
BRANCH   2   8
ATOM      8  O   UNL     1      -0.012  10.955  19.548  0.00  0.00    +0.000 OA
BRANCH   8   9
ATOM      9  C   UNL     1       0.720  12.144  19.858  0.00  0.00    +0.000 C 
BRANCH   9  10
ATOM     10  C   UNL     1      -0.135  13.148  20.626  0.00  0.00    +0.000 C 
BRANCH  10  11
ATOM     11  C   UNL     1      -1.307  12.416  21.288  0.00  0.00    +0.000 C 
BRANCH  11  13
ATOM     12  C   UNL     1      -1.134  10.722  23.139  0.00  0.00    +0.000 C 
ATOM     13  C   UNL     1      -1.091  12.201  22.782  0.00  0.00    +0.000 C 
ENDBRANCH  11  13
ENDBRANCH  10  11
ENDBRANCH   9  10
ENDBRANCH   8   9
ENDBRANCH   2   8
ENDBRANCH   1   5
BRANCH   1  14
ATOM     14  N   UNL     1       3.902   5.996  18.374  0.00  0.00    +0.000 N 
ATOM     15  C   UNL     1       5.220   5.631  18.506  0.00  0.00    +0.000 C 
ATOM     16  O   UNL     1       5.726   5.375  19.595  0.00  0.00    +0.000 OA
ATOM     17  H   UNL     1       3.526   6.097  17.440  0.00  0.00    +0.000 HD
BRANCH  15  18
ATOM     18  C   UNL     1       5.926   5.500  17.256  0.00  0.00    +0.000 A 
ATOM     19  C   UNL     1       5.733   4.645  16.185  0.00  0.00    +0.000 A 
ATOM     20 CL   UNL     1       4.535   3.454  15.980  0.00  0.00    +0.000 Cl
ATOM     21  C   UNL     1       6.747   4.955  15.248  0.00  0.00    +0.000 A 
ATOM     22  N   UNL     1       7.529   5.946  15.691  0.00  0.00    +0.000 NA
ATOM     23  N   UNL     1       7.006   6.272  16.892  0.00  0.00    +0.000 N 
ATOM     24  C   UNL     1       7.652   7.300  17.676  0.00  0.00    +0.000 C 
BRANCH  21  25
ATOM     25  C   UNL     1       7.011   4.335  13.917  0.00  0.00    +0.000 C 
ATOM     26  C   UNL     1       7.767   5.265  12.979  0.00  0.00    +0.000 C 
ENDBRANCH  21  25
ENDBRANCH  15  18
ENDBRANCH   1  14
BRANCH   1  27
ATOM     27  C   UNL     1       1.982   4.910  19.514  0.00  0.00    +0.000 C 
ATOM     28 CL   UNL     1       1.585   4.363  17.859  0.00  0.00    +0.000 Cl
ENDBRANCH   1  27
TORSDOF 10
ENDMDL
MODEL 5
REMARK VINA RESULT:      -7.0      1.994      2.758
REMARK  Name = 
REMARK  13 active torsions:
REMARK  status: ('A' for Active; 'I' for Inactive)
REMARK    1  A    between atoms: C_1  and  C_2
REMARK    2  A    between atoms: C_2  and  C_3
REMARK    3  A    between atoms: C_3  and  C_4
REMARK    4  A    between atoms: C_4  and  C_5
REMARK    5  A    between atoms: C_5  and  O_6
REMARK    6  A    between atoms: O_6  and  C_7
REMARK    7  A    between atoms: C_10  and  C_11
REMARK    8  A    between atoms: C_11  and  C_12
REMARK    9  A    between atoms: C_11  and  N_14
REMARK   10  A    between atoms: C_15  and  C_17
REMARK   11  A    between atoms: C_20  and  C_21
REMARK   12  A    between atoms: C_21  and  C_22
REMARK   13  A    between atoms: N_24  and  C_25
REMARK                            x       y       z     vdW  Elec       q    Type
REMARK                         _______ _______ _______ _____ _____    ______ ____
ROOT
ATOM      1  C   UNL     1       3.063   6.055  19.675  0.00  0.00    +0.000 C 
ENDROOT
BRANCH   1   5
ATOM      2  C   UNL     1       0.840   9.794  19.567  0.00  0.00    +0.000 A 
ATOM      3  C   UNL     1       1.521   9.312  18.450  0.00  0.00    +0.000 A 
ATOM      4  C   UNL     1       2.205   8.097  18.492  0.00  0.00    +0.000 A 
ATOM      5  C   UNL     1       2.233   7.331  19.662  0.00  0.00    +0.000 A 
ATOM      6  C   UNL     1       1.519   7.797  20.780  0.00  0.00    +0.000 A 
ATOM      7  C   UNL     1       0.835   9.022  20.730  0.00  0.00    +0.000 A 
BRANCH   2   8
ATOM      8  O   UNL     1       0.163  10.990  19.622  0.00  0.00    +0.000 OA
BRANCH   8   9
ATOM      9  C   UNL     1      -0.515  11.234  20.858  0.00  0.00    +0.000 C 
BRANCH   9  10
ATOM     10  C   UNL     1      -0.008  12.503  21.538  0.00  0.00    +0.000 C 
BRANCH  10  11
ATOM     11  C   UNL     1      -1.097  13.052  22.465  0.00  0.00    +0.000 C 
BRANCH  11  13
ATOM     12  C   UNL     1      -3.274  12.307  23.481  0.00  0.00    +0.000 C 
ATOM     13  C   UNL     1      -1.814  11.951  23.240  0.00  0.00    +0.000 C 
ENDBRANCH  11  13
ENDBRANCH  10  11
ENDBRANCH   9  10
ENDBRANCH   8   9
ENDBRANCH   2   8
ENDBRANCH   1   5
BRANCH   1  14
ATOM     14  N   UNL     1       3.940   5.987  18.519  0.00  0.00    +0.000 N 
ATOM     15  C   UNL     1       5.267   5.643  18.602  0.00  0.00    +0.000 C 
ATOM     16  O   UNL     1       5.818   5.396  19.671  0.00  0.00    +0.000 OA
ATOM     17  H   UNL     1       3.527   6.082  17.600  0.00  0.00    +0.000 HD
BRANCH  15  18
ATOM     18  C   UNL     1       5.928   5.522  17.326  0.00  0.00    +0.000 A 
ATOM     19  C   UNL     1       5.679   4.695  16.245  0.00  0.00    +0.000 A 
ATOM     20 CL   UNL     1       4.447   3.536  16.057  0.00  0.00    +0.000 Cl
ATOM     21  C   UNL     1       6.668   5.001  15.281  0.00  0.00    +0.000 A 
ATOM     22  N   UNL     1       7.486   5.964  15.716  0.00  0.00    +0.000 NA
ATOM     23  N   UNL     1       7.012   6.277  16.940  0.00  0.00    +0.000 N 
ATOM     24  C   UNL     1       7.708   7.274  17.722  0.00  0.00    +0.000 C 
BRANCH  21  25
ATOM     25  C   UNL     1       6.872   4.403  13.929  0.00  0.00    +0.000 C 
ATOM     26  C   UNL     1       7.832   5.214  13.070  0.00  0.00    +0.000 C 
ENDBRANCH  21  25
ENDBRANCH  15  18
ENDBRANCH   1  14
BRANCH   1  27
ATOM     27  C   UNL     1       2.149   4.821  19.786  0.00  0.00    +0.000 C 
ATOM     28 CL   UNL     1       1.527   4.322  18.187  0.00  0.00    +0.000 Cl
ENDBRANCH   1  27
TORSDOF 10
ENDMDL
MODEL 6
REMARK VINA RESULT:      -7.0      1.561      2.130
REMARK  Name = 
REMARK  13 active torsions:
REMARK  status: ('A' for Active; 'I' for Inactive)
REMARK    1  A    between atoms: C_1  and  C_2
REMARK    2  A    between atoms: C_2  and  C_3
REMARK    3  A    between atoms: C_3  and  C_4
REMARK    4  A    between atoms: C_4  and  C_5
REMARK    5  A    between atoms: C_5  and  O_6
REMARK    6  A    between atoms: O_6  and  C_7
REMARK    7  A    between atoms: C_10  and  C_11
REMARK    8  A    between atoms: C_11  and  C_12
REMARK    9  A    between atoms: C_11  and  N_14
REMARK   10  A    between atoms: C_15  and  C_17
REMARK   11  A    between atoms: C_20  and  C_21
REMARK   12  A    between atoms: C_21  and  C_22
REMARK   13  A    between atoms: N_24  and  C_25
REMARK                            x       y       z     vdW  Elec       q    Type
REMARK                         _______ _______ _______ _____ _____    ______ ____
ROOT
ATOM      1  C   UNL     1       2.600   6.276  20.121  0.00  0.00    +0.000 C 
ENDROOT
BRANCH   1   5
ATOM      2  C   UNL     1       0.473  10.063  19.870  0.00  0.00    +0.000 A 
ATOM      3  C   UNL     1       0.495   9.310  21.043  0.00  0.00    +0.000 A 
ATOM      4  C   UNL     1       1.206   8.112  21.117  0.00  0.00    +0.000 A 
ATOM      5  C   UNL     1       1.911   7.629  20.009  0.00  0.00    +0.000 A 
ATOM      6  C   UNL     1       1.919   8.403  18.835  0.00  0.00    +0.000 A 
ATOM      7  C   UNL     1       1.200   9.606  18.770  0.00  0.00    +0.000 A 
BRANCH   2   8
ATOM      8  O   UNL     1      -0.220  11.239  19.702  0.00  0.00    +0.000 OA
BRANCH   8   9
ATOM      9  C   UNL     1      -0.465  11.596  18.339  0.00  0.00    +0.000 C 
BRANCH   9  10
ATOM     10  C   UNL     1      -1.952  11.547  18.001  0.00  0.00    +0.000 C 
BRANCH  10  11
ATOM     11  C   UNL     1      -2.396  10.086  17.870  0.00  0.00    +0.000 C 
BRANCH  11  13
ATOM     12  C   UNL     1      -2.845  10.907  15.535  0.00  0.00    +0.000 C 
ATOM     13  C   UNL     1      -3.121   9.813  16.556  0.00  0.00    +0.000 C 
ENDBRANCH  11  13
ENDBRANCH  10  11
ENDBRANCH   9  10
ENDBRANCH   8   9
ENDBRANCH   2   8
ENDBRANCH   1   5
BRANCH   1  14
ATOM     14  N   UNL     1       3.281   5.930  18.885  0.00  0.00    +0.000 N 
ATOM     15  C   UNL     1       4.553   5.414  18.848  0.00  0.00    +0.000 C 
ATOM     16  O   UNL     1       5.222   5.236  19.862  0.00  0.00    +0.000 OA
ATOM     17  H   UNL     1       2.752   5.960  18.023  0.00  0.00    +0.000 HD
BRANCH  15  18
ATOM     18  C   UNL     1       4.999   5.033  17.531  0.00  0.00    +0.000 A 
ATOM     19  C   UNL     1       6.046   5.496  16.753  0.00  0.00    +0.000 A 
ATOM     20 CL   UNL     1       7.205   6.684  17.131  0.00  0.00    +0.000 Cl
ATOM     21  C   UNL     1       5.983   4.771  15.540  0.00  0.00    +0.000 A 
ATOM     22  N   UNL     1       4.969   3.900  15.548  0.00  0.00    +0.000 NA
ATOM     23  N   UNL     1       4.402   4.060  16.762  0.00  0.00    +0.000 N 
ATOM     24  C   UNL     1       3.226   3.284  17.088  0.00  0.00    +0.000 C 
BRANCH  21  25
ATOM     25  C   UNL     1       6.869   4.872  14.343  0.00  0.00    +0.000 C 
ATOM     26  C   UNL     1       6.456   3.924  13.228  0.00  0.00    +0.000 C 
ENDBRANCH  21  25
ENDBRANCH  15  18
ENDBRANCH   1  14
BRANCH   1  27
ATOM     27  C   UNL     1       1.593   5.195  20.552  0.00  0.00    +0.000 C 
ATOM     28 CL   UNL     1       2.368   3.947  21.571  0.00  0.00    +0.000 Cl
ENDBRANCH   1  27
TORSDOF 10
ENDMDL
MODEL 7
REMARK VINA RESULT:      -6.9      2.023      2.718
REMARK  Name = 
REMARK  13 active torsions:
REMARK  status: ('A' for Active; 'I' for Inactive)
REMARK    1  A    between atoms: C_1  and  C_2
REMARK    2  A    between atoms: C_2  and  C_3
REMARK    3  A    between atoms: C_3  and  C_4
REMARK    4  A    between atoms: C_4  and  C_5
REMARK    5  A    between atoms: C_5  and  O_6
REMARK    6  A    between atoms: O_6  and  C_7
REMARK    7  A    between atoms: C_10  and  C_11
REMARK    8  A    between atoms: C_11  and  C_12
REMARK    9  A    between atoms: C_11  and  N_14
REMARK   10  A    between atoms: C_15  and  C_17
REMARK   11  A    between atoms: C_20  and  C_21
REMARK   12  A    between atoms: C_21  and  C_22
REMARK   13  A    between atoms: N_24  and  C_25
REMARK                            x       y       z     vdW  Elec       q    Type
REMARK                         _______ _______ _______ _____ _____    ______ ____
ROOT
ATOM      1  C   UNL     1       2.950   6.068  19.677  0.00  0.00    +0.000 C 
ENDROOT
BRANCH   1   5
ATOM      2  C   UNL     1       0.701   9.793  19.700  0.00  0.00    +0.000 A 
ATOM      3  C   UNL     1       0.781   8.976  20.827  0.00  0.00    +0.000 A 
ATOM      4  C   UNL     1       1.530   7.800  20.813  0.00  0.00    +0.000 A 
ATOM      5  C   UNL     1       2.217   7.402  19.662  0.00  0.00    +0.000 A 
ATOM      6  C   UNL     1       2.166   8.240  18.533  0.00  0.00    +0.000 A 
ATOM      7  C   UNL     1       1.409   9.421  18.556  0.00  0.00    +0.000 A 
BRANCH   2   8
ATOM      8  O   UNL     1      -0.033  10.953  19.617  0.00  0.00    +0.000 OA
BRANCH   8   9
ATOM      9  C   UNL     1       0.256  11.914  20.636  0.00  0.00    +0.000 C 
BRANCH   9  10
ATOM     10  C   UNL     1       0.675  13.257  20.042  0.00  0.00    +0.000 C 
BRANCH  10  11
ATOM     11  C   UNL     1       0.822  13.117  18.524  0.00  0.00    +0.000 C 
BRANCH  11  13
ATOM     12  C   UNL     1       3.127  14.008  18.987  0.00  0.00    +0.000 C 
ATOM     13  C   UNL     1       2.279  13.133  18.075  0.00  0.00    +0.000 C 
ENDBRANCH  11  13
ENDBRANCH  10  11
ENDBRANCH   9  10
ENDBRANCH   8   9
ENDBRANCH   2   8
ENDBRANCH   1   5
BRANCH   1  14
ATOM     14  N   UNL     1       3.823   5.935  18.524  0.00  0.00    +0.000 N 
ATOM     15  C   UNL     1       5.153   5.606  18.623  0.00  0.00    +0.000 C 
ATOM     16  O   UNL     1       5.710   5.429  19.703  0.00  0.00    +0.000 OA
ATOM     17  H   UNL     1       3.407   5.971  17.602  0.00  0.00    +0.000 HD
BRANCH  15  18
ATOM     18  C   UNL     1       5.811   5.413  17.354  0.00  0.00    +0.000 A 
ATOM     19  C   UNL     1       5.619   4.465  16.363  0.00  0.00    +0.000 A 
ATOM     20 CL   UNL     1       4.482   3.200  16.309  0.00  0.00    +0.000 Cl
ATOM     21  C   UNL     1       6.572   4.751  15.358  0.00  0.00    +0.000 A 
ATOM     22  N   UNL     1       7.316   5.815  15.684  0.00  0.00    +0.000 NA
ATOM     23  N   UNL     1       6.828   6.208  16.879  0.00  0.00    +0.000 N 
ATOM     24  C   UNL     1       7.449   7.329  17.549  0.00  0.00    +0.000 C 
BRANCH  21  25
ATOM     25  C   UNL     1       6.813   4.041  14.068  0.00  0.00    +0.000 C 
ATOM     26  C   UNL     1       5.574   3.996  13.186  0.00  0.00    +0.000 C 
ENDBRANCH  21  25
ENDBRANCH  15  18
ENDBRANCH   1  14
BRANCH   1  27
ATOM     27  C   UNL     1       1.947   4.906  19.784  0.00  0.00    +0.000 C 
ATOM     28 CL   UNL     1       1.565   4.221  18.178  0.00  0.00    +0.000 Cl
ENDBRANCH   1  27
TORSDOF 10
ENDMDL
MODEL 8
REMARK VINA RESULT:      -6.8      1.906      2.407
REMARK  Name = 
REMARK  13 active torsions:
REMARK  status: ('A' for Active; 'I' for Inactive)
REMARK    1  A    between atoms: C_1  and  C_2
REMARK    2  A    between atoms: C_2  and  C_3
REMARK    3  A    between atoms: C_3  and  C_4
REMARK    4  A    between atoms: C_4  and  C_5
REMARK    5  A    between atoms: C_5  and  O_6
REMARK    6  A    between atoms: O_6  and  C_7
REMARK    7  A    between atoms: C_10  and  C_11
REMARK    8  A    between atoms: C_11  and  C_12
REMARK    9  A    between atoms: C_11  and  N_14
REMARK   10  A    between atoms: C_15  and  C_17
REMARK   11  A    between atoms: C_20  and  C_21
REMARK   12  A    between atoms: C_21  and  C_22
REMARK   13  A    between atoms: N_24  and  C_25
REMARK                            x       y       z     vdW  Elec       q    Type
REMARK                         _______ _______ _______ _____ _____    ______ ____
ROOT
ATOM      1  C   UNL     1       2.985   6.002  19.729  0.00  0.00    +0.000 C 
ENDROOT
BRANCH   1   5
ATOM      2  C   UNL     1       0.891   9.813  19.578  0.00  0.00    +0.000 A 
ATOM      3  C   UNL     1       1.562   9.299  18.469  0.00  0.00    +0.000 A 
ATOM      4  C   UNL     1       2.204   8.062  18.524  0.00  0.00    +0.000 A 
ATOM      5  C   UNL     1       2.199   7.305  19.700  0.00  0.00    +0.000 A 
ATOM      6  C   UNL     1       1.494   7.804  20.810  0.00  0.00    +0.000 A 
ATOM      7  C   UNL     1       0.852   9.050  20.746  0.00  0.00    +0.000 A 
BRANCH   2   8
ATOM      8  O   UNL     1       0.255  11.032  19.619  0.00  0.00    +0.000 OA
BRANCH   8   9
ATOM      9  C   UNL     1       1.126  12.151  19.807  0.00  0.00    +0.000 C 
BRANCH   9  10
ATOM     10  C   UNL     1       1.130  13.072  18.589  0.00  0.00    +0.000 C 
BRANCH  10  11
ATOM     11  C   UNL     1      -0.236  13.754  18.463  0.00  0.00    +0.000 C 
BRANCH  11  13
ATOM     12  C   UNL     1       1.207  15.780  18.828  0.00  0.00    +0.000 C 
ATOM     13  C   UNL     1      -0.203  15.213  18.904  0.00  0.00    +0.000 C 
ENDBRANCH  11  13
ENDBRANCH  10  11
ENDBRANCH   9  10
ENDBRANCH   8   9
ENDBRANCH   2   8
ENDBRANCH   1   5
BRANCH   1  14
ATOM     14  N   UNL     1       3.841   5.879  18.562  0.00  0.00    +0.000 N 
ATOM     15  C   UNL     1       5.177   5.569  18.640  0.00  0.00    +0.000 C 
ATOM     16  O   UNL     1       5.753   5.401  19.712  0.00  0.00    +0.000 OA
ATOM     17  H   UNL     1       3.410   5.908  17.647  0.00  0.00    +0.000 HD
BRANCH  15  18
ATOM     18  C   UNL     1       5.817   5.382  17.362  0.00  0.00    +0.000 A 
ATOM     19  C   UNL     1       5.611   4.441  16.368  0.00  0.00    +0.000 A 
ATOM     20 CL   UNL     1       4.472   3.178  16.321  0.00  0.00    +0.000 Cl
ATOM     21  C   UNL     1       6.551   4.733  15.351  0.00  0.00    +0.000 A 
ATOM     22  N   UNL     1       7.299   5.793  15.674  0.00  0.00    +0.000 NA
ATOM     23  N   UNL     1       6.829   6.180  16.878  0.00  0.00    +0.000 N 
ATOM     24  C   UNL     1       7.460   7.295  17.546  0.00  0.00    +0.000 C 
BRANCH  21  25
ATOM     25  C   UNL     1       6.772   4.031  14.053  0.00  0.00    +0.000 C 
ATOM     26  C   UNL     1       5.514   3.964  13.202  0.00  0.00    +0.000 C 
ENDBRANCH  21  25
ENDBRANCH  15  18
ENDBRANCH   1  14
BRANCH   1  27
ATOM     27  C   UNL     1       2.031   4.803  19.879  0.00  0.00    +0.000 C 
ATOM     28 CL   UNL     1       2.183   4.043  21.489  0.00  0.00    +0.000 Cl
ENDBRANCH   1  27
TORSDOF 10
ENDMDL
MODEL 9
REMARK VINA RESULT:      -6.8      1.476      1.831
REMARK  Name = 
REMARK  13 active torsions:
REMARK  status: ('A' for Active; 'I' for Inactive)
REMARK    1  A    between atoms: C_1  and  C_2
REMARK    2  A    between atoms: C_2  and  C_3
REMARK    3  A    between atoms: C_3  and  C_4
REMARK    4  A    between atoms: C_4  and  C_5
REMARK    5  A    between atoms: C_5  and  O_6
REMARK    6  A    between atoms: O_6  and  C_7
REMARK    7  A    between atoms: C_10  and  C_11
REMARK    8  A    between atoms: C_11  and  C_12
REMARK    9  A    between atoms: C_11  and  N_14
REMARK   10  A    between atoms: C_15  and  C_17
REMARK   11  A    between atoms: C_20  and  C_21
REMARK   12  A    between atoms: C_21  and  C_22
REMARK   13  A    between atoms: N_24  and  C_25
REMARK                            x       y       z     vdW  Elec       q    Type
REMARK                         _______ _______ _______ _____ _____    ______ ____
ROOT
ATOM      1  C   UNL     1       3.046   5.997  19.665  0.00  0.00    +0.000 C 
ENDROOT
BRANCH   1   5
ATOM      2  C   UNL     1       0.856   9.756  19.588  0.00  0.00    +0.000 A 
ATOM      3  C   UNL     1       1.513   9.265  18.460  0.00  0.00    +0.000 A 
ATOM      4  C   UNL     1       2.186   8.044  18.492  0.00  0.00    +0.000 A 
ATOM      5  C   UNL     1       2.228   7.280  19.664  0.00  0.00    +0.000 A 
ATOM      6  C   UNL     1       1.539   7.756  20.794  0.00  0.00    +0.000 A 
ATOM      7  C   UNL     1       0.865   8.987  20.753  0.00  0.00    +0.000 A 
BRANCH   2   8
ATOM      8  O   UNL     1       0.192  10.959  19.653  0.00  0.00    +0.000 OA
BRANCH   8   9
ATOM      9  C   UNL     1      -1.206  10.883  19.359  0.00  0.00    +0.000 C 
BRANCH   9  10
ATOM     10  C   UNL     1      -1.889  12.239  19.514  0.00  0.00    +0.000 C 
BRANCH  10  11
ATOM     11  C   UNL     1      -3.381  12.096  19.199  0.00  0.00    +0.000 C 
BRANCH  11  13
ATOM     12  C   UNL     1      -5.680  12.212  20.214  0.00  0.00    +0.000 C 
ATOM     13  C   UNL     1      -4.265  12.772  20.242  0.00  0.00    +0.000 C 
ENDBRANCH  11  13
ENDBRANCH  10  11
ENDBRANCH   9  10
ENDBRANCH   8   9
ENDBRANCH   2   8
ENDBRANCH   1   5
BRANCH   1  14
ATOM     14  N   UNL     1       3.920   5.930  18.507  0.00  0.00    +0.000 N 
ATOM     15  C   UNL     1       5.253   5.609  18.590  0.00  0.00    +0.000 C 
ATOM     16  O   UNL     1       5.812   5.385  19.660  0.00  0.00    +0.000 OA
ATOM     17  H   UNL     1       3.503   6.007  17.588  0.00  0.00    +0.000 HD
BRANCH  15  18
ATOM     18  C   UNL     1       5.912   5.486  17.313  0.00  0.00    +0.000 A 
ATOM     19  C   UNL     1       5.689   4.627  16.251  0.00  0.00    +0.000 A 
ATOM     20 CL   UNL     1       4.498   3.421  16.094  0.00  0.00    +0.000 Cl
ATOM     21  C   UNL     1       6.662   4.948  15.276  0.00  0.00    +0.000 A 
ATOM     22  N   UNL     1       7.448   5.949  15.687  0.00  0.00    +0.000 NA
ATOM     23  N   UNL     1       6.968   6.270  16.907  0.00  0.00    +0.000 N 
ATOM     24  C   UNL     1       7.631   7.307  17.664  0.00  0.00    +0.000 C 
BRANCH  21  25
ATOM     25  C   UNL     1       6.882   4.329  13.936  0.00  0.00    +0.000 C 
ATOM     26  C   UNL     1       7.800   5.160  13.052  0.00  0.00    +0.000 C 
ENDBRANCH  21  25
ENDBRANCH  15  18
ENDBRANCH   1  14
BRANCH   1  27
ATOM     27  C   UNL     1       2.121   4.771  19.767  0.00  0.00    +0.000 C 
ATOM     28 CL   UNL     1       1.565   4.235  18.155  0.00  0.00    +0.000 Cl
ENDBRANCH   1  27
TORSDOF 10
ENDMDL
