MODEL 1
REMARK VINA RESULT:      -7.0      0.000      0.000
REMARK  Name = 
REMARK  8 active torsions:
REMARK  status: ('A' for Active; 'I' for Inactive)
REMARK    1  A    between atoms: C_1  and  O_2
REMARK    2  A    between atoms: O_2  and  C_3
REMARK    3  A    between atoms: C_6  and  C_7
REMARK    4  A    between atoms: C_8  and  C_9
REMARK    5  A    between atoms: C_11  and  C_12
REMARK    6  A    between atoms: C_15  and  C_16
REMARK    7  A    between atoms: C_22  and  C_23
REMARK    8  A    between atoms: N_30  and  C_31
REMARK                            x       y       z     vdW  Elec       q    Type
REMARK                         _______ _______ _______ _____ _____    ______ ____
ROOT
ATOM      1  C   UNL     1      -2.458  14.676  21.617  0.00  0.00    +0.000 A 
ATOM      2  C   UNL     1      -1.157  14.997  21.113  0.00  0.00    +0.000 A 
ATOM      3  C   UNL     1      -0.576  14.261  20.078  0.00  0.00    +0.000 A 
ATOM      4  N   UNL     1      -1.252  13.293  19.445  0.00  0.00    +0.000 NA
ATOM      5  C   UNL     1      -2.504  13.039  19.873  0.00  0.00    +0.000 A 
ATOM      6  C   UNL     1      -3.170  13.635  20.939  0.00  0.00    +0.000 A 
ATOM      7  C   UNL     1      -4.453  12.952  20.960  0.00  0.00    +0.000 A 
ATOM      8  N   UNL     1      -4.607  12.195  19.859  0.00  0.00    +0.000 NA
ATOM      9  N   UNL     1      -3.397  12.183  19.253  0.00  0.00    +0.000 N 
ENDROOT
BRANCH   3  10
ATOM     10  C   UNL     1       0.799  14.467  19.539  0.00  0.00    +0.000 A 
ATOM     11  C   UNL     1       1.835  13.532  19.714  0.00  0.00    +0.000 A 
ATOM     12  C   UNL     1       3.127  13.763  19.230  0.00  0.00    +0.000 A 
ATOM     13  C   UNL     1       3.413  14.913  18.497  0.00  0.00    +0.000 A 
ATOM     14  C   UNL     1       4.780  15.134  17.926  0.00  0.00    +0.000 C 
ATOM     15  C   UNL     1       2.391  15.839  18.274  0.00  0.00    +0.000 A 
ATOM     16  C   UNL     1       1.108  15.621  18.793  0.00  0.00    +0.000 A 
ENDBRANCH   3  10
BRANCH   1  20
ATOM     17  C   UNL     1      -4.253  16.891  24.862  0.00  0.00    +0.000 A 
ATOM     18  C   UNL     1      -4.524  17.223  23.540  0.00  0.00    +0.000 A 
ATOM     19  C   UNL     1      -3.882  16.557  22.492  0.00  0.00    +0.000 A 
ATOM     20  C   UNL     1      -3.064  15.446  22.728  0.00  0.00    +0.000 A 
ATOM     21  C   UNL     1      -2.820  15.115  24.075  0.00  0.00    +0.000 A 
ATOM     22  C   UNL     1      -3.356  15.864  25.127  0.00  0.00    +0.000 A 
BRANCH  17  24
ATOM     23  C   UNL     1      -5.791  18.629  25.291  0.00  0.00    +0.000 C 
ATOM     24  O   UNL     1      -4.896  17.647  25.798  0.00  0.00    +0.000 OA
ENDBRANCH  17  24
ENDBRANCH   1  20
BRANCH   7  25
ATOM     25  C   UNL     1      -5.577  13.034  21.909  0.00  0.00    +0.000 A 
ATOM     26  C   UNL     1      -5.431  12.792  23.278  0.00  0.00    +0.000 A 
ATOM     27  C   UNL     1      -6.486  13.055  24.157  0.00  0.00    +0.000 A 
ATOM     28  C   UNL     1      -7.699  13.464  23.632  0.00  0.00    +0.000 A 
ATOM     29  N   UNL     1      -7.915  13.622  22.311  0.00  0.00    +0.000 NA
ATOM     30  C   UNL     1      -6.854  13.406  21.485  0.00  0.00    +0.000 A 
ENDBRANCH   7  25
BRANCH   9  31
ATOM     31  C   UNL     1      -3.161  11.422  18.073  0.00  0.00    +0.000 A 
ATOM     32  C   UNL     1      -2.094  10.515  18.027  0.00  0.00    +0.000 A 
ATOM     33  C   UNL     1      -1.933   9.695  16.905  0.00  0.00    +0.000 A 
ATOM     34  C   UNL     1      -2.798   9.808  15.816  0.00  0.00    +0.000 A 
ATOM     35  C   UNL     1      -3.833  10.738  15.843  0.00  0.00    +0.000 A 
ATOM     36  C   UNL     1      -4.021  11.536  16.970  0.00  0.00    +0.000 A 
ENDBRANCH   9  31
BRANCH   2  37
ATOM     37  C   UNL     1      -0.458  16.139  21.612  0.00  0.00    +0.000 C 
ATOM     38  N   UNL     1       0.070  17.111  21.978  0.00  0.00    +0.000 NA
ENDBRANCH   2  37
TORSDOF 6
ENDMDL
MODEL 2
REMARK VINA RESULT:      -6.9      2.591      3.434
REMARK  Name = 
REMARK  8 active torsions:
REMARK  status: ('A' for Active; 'I' for Inactive)
REMARK    1  A    between atoms: C_1  and  O_2
REMARK    2  A    between atoms: O_2  and  C_3
REMARK    3  A    between atoms: C_6  and  C_7
REMARK    4  A    between atoms: C_8  and  C_9
REMARK    5  A    between atoms: C_11  and  C_12
REMARK    6  A    between atoms: C_15  and  C_16
REMARK    7  A    between atoms: C_22  and  C_23
REMARK    8  A    between atoms: N_30  and  C_31
REMARK                            x       y       z     vdW  Elec       q    Type
REMARK                         _______ _______ _______ _____ _____    ______ ____
ROOT
ATOM      1  C   UNL     1      -0.028  14.485  22.264  0.00  0.00    +0.000 A 
ATOM      2  C   UNL     1       1.297  14.919  21.938  0.00  0.00    +0.000 A 
ATOM      3  C   UNL     1       2.221  14.054  21.347  0.00  0.00    +0.000 A 
ATOM      4  N   UNL     1       1.873  12.817  20.966  0.00  0.00    +0.000 NA
ATOM      5  C   UNL     1       0.605  12.434  21.207  0.00  0.00    +0.000 A 
ATOM      6  C   UNL     1      -0.387  13.160  21.860  0.00  0.00    +0.000 A 
ATOM      7  C   UNL     1      -1.521  12.250  21.867  0.00  0.00    +0.000 A 
ATOM      8  N   UNL     1      -1.281  11.184  21.082  0.00  0.00    +0.000 NA
ATOM      9  N   UNL     1       0.031  11.258  20.758  0.00  0.00    +0.000 N 
ENDROOT
BRANCH   3  10
ATOM     10  C   UNL     1       3.641  14.387  21.042  0.00  0.00    +0.000 A 
ATOM     11  C   UNL     1       4.054  14.904  19.801  0.00  0.00    +0.000 A 
ATOM     12  C   UNL     1       5.398  15.176  19.525  0.00  0.00    +0.000 A 
ATOM     13  C   UNL     1       6.372  15.000  20.506  0.00  0.00    +0.000 A 
ATOM     14  C   UNL     1       7.803  15.348  20.232  0.00  0.00    +0.000 C 
ATOM     15  C   UNL     1       5.982  14.526  21.761  0.00  0.00    +0.000 A 
ATOM     16  C   UNL     1       4.640  14.220  22.021  0.00  0.00    +0.000 A 
ENDBRANCH   3  10
BRANCH   1  20
ATOM     17  C   UNL     1      -2.885  17.116  24.155  0.00  0.00    +0.000 A 
ATOM     18  C   UNL     1      -2.853  16.978  22.772  0.00  0.00    +0.000 A 
ATOM     19  C   UNL     1      -1.878  16.188  22.157  0.00  0.00    +0.000 A 
ATOM     20  C   UNL     1      -0.999  15.399  22.909  0.00  0.00    +0.000 A 
ATOM     21  C   UNL     1      -1.063  15.539  24.309  0.00  0.00    +0.000 A 
ATOM     22  C   UNL     1      -1.949  16.431  24.921  0.00  0.00    +0.000 A 
BRANCH  17  24
ATOM     23  C   UNL     1      -5.076  17.347  25.002  0.00  0.00    +0.000 C 
ATOM     24  O   UNL     1      -3.845  17.958  24.636  0.00  0.00    +0.000 OA
ENDBRANCH  17  24
ENDBRANCH   1  20
BRANCH   7  25
ATOM     25  C   UNL     1      -2.847  12.361  22.500  0.00  0.00    +0.000 A 
ATOM     26  C   UNL     1      -3.029  12.348  23.885  0.00  0.00    +0.000 A 
ATOM     27  C   UNL     1      -4.282  12.634  24.435  0.00  0.00    +0.000 A 
ATOM     28  C   UNL     1      -5.350  12.834  23.580  0.00  0.00    +0.000 A 
ATOM     29  N   UNL     1      -5.243  12.766  22.238  0.00  0.00    +0.000 NA
ATOM     30  C   UNL     1      -4.000  12.534  21.732  0.00  0.00    +0.000 A 
ENDBRANCH   7  25
BRANCH   9  31
ATOM     31  C   UNL     1       0.665  10.250  19.977  0.00  0.00    +0.000 A 
ATOM     32  C   UNL     1       0.910  10.471  18.615  0.00  0.00    +0.000 A 
ATOM     33  C   UNL     1       1.627   9.521  17.880  0.00  0.00    +0.000 A 
ATOM     34  C   UNL     1       2.057   8.338  18.482  0.00  0.00    +0.000 A 
ATOM     35  C   UNL     1       1.777   8.098  19.824  0.00  0.00    +0.000 A 
ATOM     36  C   UNL     1       1.093   9.055  20.573  0.00  0.00    +0.000 A 
ENDBRANCH   9  31
BRANCH   2  37
ATOM     37  C   UNL     1       1.674  16.282  22.141  0.00  0.00    +0.000 C 
ATOM     38  N   UNL     1       1.965  17.406  22.239  0.00  0.00    +0.000 NA
ENDBRANCH   2  37
TORSDOF 6
ENDMDL
MODEL 3
REMARK VINA RESULT:      -6.8      2.607      3.431
REMARK  Name = 
REMARK  8 active torsions:
REMARK  status: ('A' for Active; 'I' for Inactive)
REMARK    1  A    between atoms: C_1  and  O_2
REMARK    2  A    between atoms: O_2  and  C_3
REMARK    3  A    between atoms: C_6  and  C_7
REMARK    4  A    between atoms: C_8  and  C_9
REMARK    5  A    between atoms: C_11  and  C_12
REMARK    6  A    between atoms: C_15  and  C_16
REMARK    7  A    between atoms: C_22  and  C_23
REMARK    8  A    between atoms: N_30  and  C_31
REMARK                            x       y       z     vdW  Elec       q    Type
REMARK                         _______ _______ _______ _____ _____    ______ ____
ROOT
ATOM      1  C   UNL     1      -0.003  14.509  22.254  0.00  0.00    +0.000 A 
ATOM      2  C   UNL     1       1.324  14.956  21.952  0.00  0.00    +0.000 A 
ATOM      3  C   UNL     1       2.270  14.098  21.385  0.00  0.00    +0.000 A 
ATOM      4  N   UNL     1       1.945  12.855  21.006  0.00  0.00    +0.000 NA
ATOM      5  C   UNL     1       0.676  12.458  21.224  0.00  0.00    +0.000 A 
ATOM      6  C   UNL     1      -0.338  13.176  21.851  0.00  0.00    +0.000 A 
ATOM      7  C   UNL     1      -1.460  12.253  21.842  0.00  0.00    +0.000 A 
ATOM      8  N   UNL     1      -1.192  11.185  21.069  0.00  0.00    +0.000 NA
ATOM      9  N   UNL     1       0.125  11.272  20.772  0.00  0.00    +0.000 N 
ENDROOT
BRANCH   3  10
ATOM     10  C   UNL     1       3.692  14.445  21.108  0.00  0.00    +0.000 A 
ATOM     11  C   UNL     1       4.712  14.313  22.068  0.00  0.00    +0.000 A 
ATOM     12  C   UNL     1       6.034  14.679  21.796  0.00  0.00    +0.000 A 
ATOM     13  C   UNL     1       6.396  15.132  20.529  0.00  0.00    +0.000 A 
ATOM     14  C   UNL     1       7.823  15.467  20.218  0.00  0.00    +0.000 C 
ATOM     15  C   UNL     1       5.411  15.234  19.545  0.00  0.00    +0.000 A 
ATOM     16  C   UNL     1       4.080  14.902  19.833  0.00  0.00    +0.000 A 
ENDBRANCH   3  10
BRANCH   1  20
ATOM     17  C   UNL     1      -2.877  17.187  24.048  0.00  0.00    +0.000 A 
ATOM     18  C   UNL     1      -1.985  16.470  24.837  0.00  0.00    +0.000 A 
ATOM     19  C   UNL     1      -1.109  15.545  24.261  0.00  0.00    +0.000 A 
ATOM     20  C   UNL     1      -0.997  15.415  22.872  0.00  0.00    +0.000 A 
ATOM     21  C   UNL     1      -1.897  16.167  22.092  0.00  0.00    +0.000 A 
ATOM     22  C   UNL     1      -2.864  16.992  22.672  0.00  0.00    +0.000 A 
BRANCH  17  24
ATOM     23  C   UNL     1      -4.950  17.440  25.149  0.00  0.00    +0.000 C 
ATOM     24  O   UNL     1      -3.721  18.017  24.727  0.00  0.00    +0.000 OA
ENDBRANCH  17  24
ENDBRANCH   1  20
BRANCH   7  25
ATOM     25  C   UNL     1      -2.801  12.354  22.446  0.00  0.00    +0.000 A 
ATOM     26  C   UNL     1      -3.012  12.334  23.827  0.00  0.00    +0.000 A 
ATOM     27  C   UNL     1      -4.278  12.610  24.351  0.00  0.00    +0.000 A 
ATOM     28  C   UNL     1      -5.330  12.805  23.474  0.00  0.00    +0.000 A 
ATOM     29  N   UNL     1      -5.193  12.743  22.134  0.00  0.00    +0.000 NA
ATOM     30  C   UNL     1      -3.938  12.522  21.654  0.00  0.00    +0.000 A 
ENDBRANCH   7  25
BRANCH   9  31
ATOM     31  C   UNL     1       0.787  10.267  20.010  0.00  0.00    +0.000 A 
ATOM     32  C   UNL     1       1.187   9.074  20.624  0.00  0.00    +0.000 A 
ATOM     33  C   UNL     1       1.739   8.049  19.848  0.00  0.00    +0.000 A 
ATOM     34  C   UNL     1       1.936   8.228  18.478  0.00  0.00    +0.000 A 
ATOM     35  C   UNL     1       1.578   9.429  17.874  0.00  0.00    +0.000 A 
ATOM     36  C   UNL     1       0.996  10.442  18.634  0.00  0.00    +0.000 A 
ENDBRANCH   9  31
BRANCH   2  37
ATOM     37  C   UNL     1       1.681  16.325  22.153  0.00  0.00    +0.000 C 
ATOM     38  N   UNL     1       2.039  17.420  22.327  0.00  0.00    +0.000 NA
ENDBRANCH   2  37
TORSDOF 6
ENDMDL
MODEL 4
REMARK VINA RESULT:      -6.8      2.422      3.514
REMARK  Name = 
REMARK  8 active torsions:
REMARK  status: ('A' for Active; 'I' for Inactive)
REMARK    1  A    between atoms: C_1  and  O_2
REMARK    2  A    between atoms: O_2  and  C_3
REMARK    3  A    between atoms: C_6  and  C_7
REMARK    4  A    between atoms: C_8  and  C_9
REMARK    5  A    between atoms: C_11  and  C_12
REMARK    6  A    between atoms: C_15  and  C_16
REMARK    7  A    between atoms: C_22  and  C_23
REMARK    8  A    between atoms: N_30  and  C_31
REMARK                            x       y       z     vdW  Elec       q    Type
REMARK                         _______ _______ _______ _____ _____    ______ ____
ROOT
ATOM      1  C   UNL     1      -0.010  14.600  21.164  0.00  0.00    +0.000 A 
ATOM      2  C   UNL     1       1.247  15.036  20.634  0.00  0.00    +0.000 A 
ATOM      3  C   UNL     1       2.190  14.123  20.154  0.00  0.00    +0.000 A 
ATOM      4  N   UNL     1       1.916  12.815  20.074  0.00  0.00    +0.000 NA
ATOM      5  C   UNL     1       0.705  12.413  20.505  0.00  0.00    +0.000 A 
ATOM      6  C   UNL     1      -0.290  13.199  21.080  0.00  0.00    +0.000 A 
ATOM      7  C   UNL     1      -1.342  12.242  21.382  0.00  0.00    +0.000 A 
ATOM      8  N   UNL     1      -1.078  11.050  20.818  0.00  0.00    +0.000 NA
ATOM      9  N   UNL     1       0.195  11.135  20.366  0.00  0.00    +0.000 N 
ENDROOT
BRANCH   3  10
ATOM     10  C   UNL     1       3.551  14.472  19.658  0.00  0.00    +0.000 A 
ATOM     11  C   UNL     1       4.621  14.782  20.517  0.00  0.00    +0.000 A 
ATOM     12  C   UNL     1       5.881  15.140  20.028  0.00  0.00    +0.000 A 
ATOM     13  C   UNL     1       6.135  15.140  18.657  0.00  0.00    +0.000 A 
ATOM     14  C   UNL     1       7.500  15.465  18.134  0.00  0.00    +0.000 C 
ATOM     15  C   UNL     1       5.101  14.797  17.783  0.00  0.00    +0.000 A 
ATOM     16  C   UNL     1       3.829  14.474  18.277  0.00  0.00    +0.000 A 
ENDBRANCH   3  10
BRANCH   1  20
ATOM     17  C   UNL     1      -2.872  17.457  22.681  0.00  0.00    +0.000 A 
ATOM     18  C   UNL     1      -1.898  16.917  23.513  0.00  0.00    +0.000 A 
ATOM     19  C   UNL     1      -1.023  15.935  23.041  0.00  0.00    +0.000 A 
ATOM     20  C   UNL     1      -0.999  15.568  21.690  0.00  0.00    +0.000 A 
ATOM     21  C   UNL     1      -1.982  16.143  20.862  0.00  0.00    +0.000 A 
ATOM     22  C   UNL     1      -2.944  17.026  21.363  0.00  0.00    +0.000 A 
BRANCH  17  24
ATOM     23  C   UNL     1      -4.381  17.919  24.437  0.00  0.00    +0.000 C 
ATOM     24  O   UNL     1      -3.704  18.365  23.269  0.00  0.00    +0.000 OA
ENDBRANCH  17  24
ENDBRANCH   1  20
BRANCH   7  25
ATOM     25  C   UNL     1      -2.621  12.404  22.096  0.00  0.00    +0.000 A 
ATOM     26  C   UNL     1      -2.752  12.195  23.471  0.00  0.00    +0.000 A 
ATOM     27  C   UNL     1      -3.940  12.532  24.126  0.00  0.00    +0.000 A 
ATOM     28  C   UNL     1      -5.008  12.983  23.371  0.00  0.00    +0.000 A 
ATOM     29  N   UNL     1      -4.959  13.114  22.030  0.00  0.00    +0.000 NA
ATOM     30  C   UNL     1      -3.773  12.825  21.428  0.00  0.00    +0.000 A 
ENDBRANCH   7  25
BRANCH   9  31
ATOM     31  C   UNL     1       0.847  10.025  19.758  0.00  0.00    +0.000 A 
ATOM     32  C   UNL     1       1.168  10.062  18.395  0.00  0.00    +0.000 A 
ATOM     33  C   UNL     1       1.902   9.014  17.829  0.00  0.00    +0.000 A 
ATOM     34  C   UNL     1       2.273   7.913  18.602  0.00  0.00    +0.000 A 
ATOM     35  C   UNL     1       1.918   7.854  19.946  0.00  0.00    +0.000 A 
ATOM     36  C   UNL     1       1.216   8.910  20.526  0.00  0.00    +0.000 A 
ENDBRANCH   9  31
BRANCH   2  37
ATOM     37  C   UNL     1       1.527  16.432  20.512  0.00  0.00    +0.000 C 
ATOM     38  N   UNL     1       1.824  17.554  20.418  0.00  0.00    +0.000 NA
ENDBRANCH   2  37
TORSDOF 6
ENDMDL
MODEL 5
REMARK VINA RESULT:      -6.8      2.445      3.459
REMARK  Name = 
REMARK  8 active torsions:
REMARK  status: ('A' for Active; 'I' for Inactive)
REMARK    1  A    between atoms: C_1  and  O_2
REMARK    2  A    between atoms: O_2  and  C_3
REMARK    3  A    between atoms: C_6  and  C_7
REMARK    4  A    between atoms: C_8  and  C_9
REMARK    5  A    between atoms: C_11  and  C_12
REMARK    6  A    between atoms: C_15  and  C_16
REMARK    7  A    between atoms: C_22  and  C_23
REMARK    8  A    between atoms: N_30  and  C_31
REMARK                            x       y       z     vdW  Elec       q    Type
REMARK                         _______ _______ _______ _____ _____    ______ ____
ROOT
ATOM      1  C   UNL     1       0.031  14.615  21.076  0.00  0.00    +0.000 A 
ATOM      2  C   UNL     1       1.289  15.062  20.557  0.00  0.00    +0.000 A 
ATOM      3  C   UNL     1       2.255  14.157  20.111  0.00  0.00    +0.000 A 
ATOM      4  N   UNL     1       2.005  12.842  20.053  0.00  0.00    +0.000 NA
ATOM      5  C   UNL     1       0.794  12.428  20.473  0.00  0.00    +0.000 A 
ATOM      6  C   UNL     1      -0.224  13.208  21.016  0.00  0.00    +0.000 A 
ATOM      7  C   UNL     1      -1.264  12.239  21.320  0.00  0.00    +0.000 A 
ATOM      8  N   UNL     1      -0.971  11.040  20.784  0.00  0.00    +0.000 NA
ATOM      9  N   UNL     1       0.308  11.139  20.352  0.00  0.00    +0.000 N 
ENDROOT
BRANCH   3  10
ATOM     10  C   UNL     1       3.618  14.519  19.630  0.00  0.00    +0.000 A 
ATOM     11  C   UNL     1       4.675  14.840  20.501  0.00  0.00    +0.000 A 
ATOM     12  C   UNL     1       5.937  15.211  20.026  0.00  0.00    +0.000 A 
ATOM     13  C   UNL     1       6.206  15.213  18.658  0.00  0.00    +0.000 A 
ATOM     14  C   UNL     1       7.574  15.551  18.150  0.00  0.00    +0.000 C 
ATOM     15  C   UNL     1       5.185  14.858  17.772  0.00  0.00    +0.000 A 
ATOM     16  C   UNL     1       3.912  14.522  18.252  0.00  0.00    +0.000 A 
ENDBRANCH   3  10
BRANCH   1  20
ATOM     17  C   UNL     1      -2.947  17.386  22.526  0.00  0.00    +0.000 A 
ATOM     18  C   UNL     1      -2.992  16.915  21.220  0.00  0.00    +0.000 A 
ATOM     19  C   UNL     1      -1.984  16.080  20.728  0.00  0.00    +0.000 A 
ATOM     20  C   UNL     1      -0.983  15.576  21.566  0.00  0.00    +0.000 A 
ATOM     21  C   UNL     1      -0.969  16.052  22.892  0.00  0.00    +0.000 A 
ATOM     22  C   UNL     1      -1.899  16.991  23.348  0.00  0.00    +0.000 A 
BRANCH  17  24
ATOM     23  C   UNL     1      -4.587  17.972  24.120  0.00  0.00    +0.000 C 
ATOM     24  O   UNL     1      -3.955  18.238  22.875  0.00  0.00    +0.000 OA
ENDBRANCH  17  24
ENDBRANCH   1  20
BRANCH   7  25
ATOM     25  C   UNL     1      -2.557  12.393  22.009  0.00  0.00    +0.000 A 
ATOM     26  C   UNL     1      -2.704  12.226  23.389  0.00  0.00    +0.000 A 
ATOM     27  C   UNL     1      -3.909  12.555  24.016  0.00  0.00    +0.000 A 
ATOM     28  C   UNL     1      -4.976  12.955  23.231  0.00  0.00    +0.000 A 
ATOM     29  N   UNL     1      -4.910  13.043  21.887  0.00  0.00    +0.000 NA
ATOM     30  C   UNL     1      -3.708  12.763  21.311  0.00  0.00    +0.000 A 
ENDBRANCH   7  25
BRANCH   9  31
ATOM     31  C   UNL     1       0.989  10.028  19.776  0.00  0.00    +0.000 A 
ATOM     32  C   UNL     1       1.313   8.919  20.567  0.00  0.00    +0.000 A 
ATOM     33  C   UNL     1       1.885   7.789  19.972  0.00  0.00    +0.000 A 
ATOM     34  C   UNL     1       2.177   7.780  18.607  0.00  0.00    +0.000 A 
ATOM     35  C   UNL     1       1.894   8.898  17.828  0.00  0.00    +0.000 A 
ATOM     36  C   UNL     1       1.293  10.015  18.407  0.00  0.00    +0.000 A 
ENDBRANCH   9  31
BRANCH   2  37
ATOM     37  C   UNL     1       1.547  16.460  20.412  0.00  0.00    +0.000 C 
ATOM     38  N   UNL     1       1.818  17.583  20.260  0.00  0.00    +0.000 NA
ENDBRANCH   2  37
TORSDOF 6
ENDMDL
MODEL 6
REMARK VINA RESULT:      -6.8      2.610      3.641
REMARK  Name = 
REMARK  8 active torsions:
REMARK  status: ('A' for Active; 'I' for Inactive)
REMARK    1  A    between atoms: C_1  and  O_2
REMARK    2  A    between atoms: O_2  and  C_3
REMARK    3  A    between atoms: C_6  and  C_7
REMARK    4  A    between atoms: C_8  and  C_9
REMARK    5  A    between atoms: C_11  and  C_12
REMARK    6  A    between atoms: C_15  and  C_16
REMARK    7  A    between atoms: C_22  and  C_23
REMARK    8  A    between atoms: N_30  and  C_31
REMARK                            x       y       z     vdW  Elec       q    Type
REMARK                         _______ _______ _______ _____ _____    ______ ____
ROOT
ATOM      1  C   UNL     1      -0.024  14.733  20.965  0.00  0.00    +0.000 A 
ATOM      2  C   UNL     1       1.247  15.145  20.448  0.00  0.00    +0.000 A 
ATOM      3  C   UNL     1       2.215  14.211  20.070  0.00  0.00    +0.000 A 
ATOM      4  N   UNL     1       1.957  12.896  20.077  0.00  0.00    +0.000 NA
ATOM      5  C   UNL     1       0.735  12.513  20.495  0.00  0.00    +0.000 A 
ATOM      6  C   UNL     1      -0.287  13.326  20.975  0.00  0.00    +0.000 A 
ATOM      7  C   UNL     1      -1.340  12.381  21.310  0.00  0.00    +0.000 A 
ATOM      8  N   UNL     1      -1.044  11.154  20.845  0.00  0.00    +0.000 NA
ATOM      9  N   UNL     1       0.244  11.221  20.434  0.00  0.00    +0.000 N 
ENDROOT
BRANCH   3  10
ATOM     10  C   UNL     1       3.590  14.538  19.597  0.00  0.00    +0.000 A 
ATOM     11  C   UNL     1       4.651  14.825  20.475  0.00  0.00    +0.000 A 
ATOM     12  C   UNL     1       5.925  15.165  20.008  0.00  0.00    +0.000 A 
ATOM     13  C   UNL     1       6.200  15.168  18.641  0.00  0.00    +0.000 A 
ATOM     14  C   UNL     1       7.579  15.472  18.141  0.00  0.00    +0.000 C 
ATOM     15  C   UNL     1       5.174  14.847  17.749  0.00  0.00    +0.000 A 
ATOM     16  C   UNL     1       3.890  14.543  18.221  0.00  0.00    +0.000 A 
ENDBRANCH   3  10
BRANCH   1  20
ATOM     17  C   UNL     1      -2.966  17.658  22.167  0.00  0.00    +0.000 A 
ATOM     18  C   UNL     1      -2.043  17.162  23.081  0.00  0.00    +0.000 A 
ATOM     19  C   UNL     1      -1.143  16.158  22.710  0.00  0.00    +0.000 A 
ATOM     20  C   UNL     1      -1.041  15.725  21.383  0.00  0.00    +0.000 A 
ATOM     21  C   UNL     1      -1.972  16.257  20.471  0.00  0.00    +0.000 A 
ATOM     22  C   UNL     1      -2.960  17.162  20.869  0.00  0.00    +0.000 A 
BRANCH  17  24
ATOM     23  C   UNL     1      -5.177  18.170  22.816  0.00  0.00    +0.000 C 
ATOM     24  O   UNL     1      -3.829  18.594  22.659  0.00  0.00    +0.000 OA
ENDBRANCH  17  24
ENDBRANCH   1  20
BRANCH   7  25
ATOM     25  C   UNL     1      -2.645  12.579  21.965  0.00  0.00    +0.000 A 
ATOM     26  C   UNL     1      -3.738  13.161  21.315  0.00  0.00    +0.000 A 
ATOM     27  C   UNL     1      -4.998  13.164  21.920  0.00  0.00    +0.000 A 
ATOM     28  C   UNL     1      -5.117  12.668  23.206  0.00  0.00    +0.000 A 
ATOM     29  N   UNL     1      -4.074  12.180  23.907  0.00  0.00    +0.000 NA
ATOM     30  C   UNL     1      -2.870  12.146  23.273  0.00  0.00    +0.000 A 
ENDBRANCH   7  25
BRANCH   9  31
ATOM     31  C   UNL     1       0.927  10.077  19.932  0.00  0.00    +0.000 A 
ATOM     32  C   UNL     1       1.200   8.997  20.780  0.00  0.00    +0.000 A 
ATOM     33  C   UNL     1       1.776   7.835  20.255  0.00  0.00    +0.000 A 
ATOM     34  C   UNL     1       2.122   7.765  18.905  0.00  0.00    +0.000 A 
ATOM     35  C   UNL     1       1.891   8.854  18.070  0.00  0.00    +0.000 A 
ATOM     36  C   UNL     1       1.286  10.003  18.578  0.00  0.00    +0.000 A 
ENDBRANCH   9  31
BRANCH   2  37
ATOM     37  C   UNL     1       1.517  16.531  20.233  0.00  0.00    +0.000 C 
ATOM     38  N   UNL     1       1.807  17.646  20.063  0.00  0.00    +0.000 NA
ENDBRANCH   2  37
TORSDOF 6
ENDMDL
MODEL 7
REMARK VINA RESULT:      -6.7      0.182      1.108
REMARK  Name = 
REMARK  8 active torsions:
REMARK  status: ('A' for Active; 'I' for Inactive)
REMARK    1  A    between atoms: C_1  and  O_2
REMARK    2  A    between atoms: O_2  and  C_3
REMARK    3  A    between atoms: C_6  and  C_7
REMARK    4  A    between atoms: C_8  and  C_9
REMARK    5  A    between atoms: C_11  and  C_12
REMARK    6  A    between atoms: C_15  and  C_16
REMARK    7  A    between atoms: C_22  and  C_23
REMARK    8  A    between atoms: N_30  and  C_31
REMARK                            x       y       z     vdW  Elec       q    Type
REMARK                         _______ _______ _______ _____ _____    ______ ____
ROOT
ATOM      1  C   UNL     1      -2.413  14.622  21.522  0.00  0.00    +0.000 A 
ATOM      2  C   UNL     1      -1.107  14.942  21.027  0.00  0.00    +0.000 A 
ATOM      3  C   UNL     1      -0.519  14.202  19.998  0.00  0.00    +0.000 A 
ATOM      4  N   UNL     1      -1.191  13.234  19.362  0.00  0.00    +0.000 NA
ATOM      5  C   UNL     1      -2.447  12.982  19.780  0.00  0.00    +0.000 A 
ATOM      6  C   UNL     1      -3.121  13.581  20.841  0.00  0.00    +0.000 A 
ATOM      7  C   UNL     1      -4.404  12.900  20.852  0.00  0.00    +0.000 A 
ATOM      8  N   UNL     1      -4.551  12.140  19.751  0.00  0.00    +0.000 NA
ATOM      9  N   UNL     1      -3.336  12.126  19.155  0.00  0.00    +0.000 N 
ENDROOT
BRANCH   3  10
ATOM     10  C   UNL     1       0.860  14.406  19.470  0.00  0.00    +0.000 A 
ATOM     11  C   UNL     1       1.183  15.421  18.551  0.00  0.00    +0.000 A 
ATOM     12  C   UNL     1       2.476  15.572  18.042  0.00  0.00    +0.000 A 
ATOM     13  C   UNL     1       3.511  14.749  18.484  0.00  0.00    +0.000 A 
ATOM     14  C   UNL     1       4.910  14.948  17.986  0.00  0.00    +0.000 C 
ATOM     15  C   UNL     1       3.226  13.760  19.428  0.00  0.00    +0.000 A 
ATOM     16  C   UNL     1       1.920  13.589  19.907  0.00  0.00    +0.000 A 
ENDBRANCH   3  10
BRANCH   1  20
ATOM     17  C   UNL     1      -4.172  16.908  24.737  0.00  0.00    +0.000 A 
ATOM     18  C   UNL     1      -3.320  15.844  25.006  0.00  0.00    +0.000 A 
ATOM     19  C   UNL     1      -2.814  15.056  23.968  0.00  0.00    +0.000 A 
ATOM     20  C   UNL     1      -3.026  15.395  22.626  0.00  0.00    +0.000 A 
ATOM     21  C   UNL     1      -3.877  16.490  22.378  0.00  0.00    +0.000 A 
ATOM     22  C   UNL     1      -4.491  17.197  23.416  0.00  0.00    +0.000 A 
BRANCH  17  24
ATOM     23  C   UNL     1      -5.672  18.521  25.587  0.00  0.00    +0.000 C 
ATOM     24  O   UNL     1      -4.647  17.568  25.834  0.00  0.00    +0.000 OA
ENDBRANCH  17  24
ENDBRANCH   1  20
BRANCH   7  25
ATOM     25  C   UNL     1      -5.536  12.984  21.792  0.00  0.00    +0.000 A 
ATOM     26  C   UNL     1      -5.377  12.897  23.178  0.00  0.00    +0.000 A 
ATOM     27  C   UNL     1      -6.455  13.160  24.030  0.00  0.00    +0.000 A 
ATOM     28  C   UNL     1      -7.695  13.410  23.470  0.00  0.00    +0.000 A 
ATOM     29  N   UNL     1      -7.916  13.415  22.141  0.00  0.00    +0.000 NA
ATOM     30  C   UNL     1      -6.838  13.204  21.337  0.00  0.00    +0.000 A 
ENDBRANCH   7  25
BRANCH   9  31
ATOM     31  C   UNL     1      -3.091  11.362  17.978  0.00  0.00    +0.000 A 
ATOM     32  C   UNL     1      -2.047  10.429  17.954  0.00  0.00    +0.000 A 
ATOM     33  C   UNL     1      -1.880   9.608  16.834  0.00  0.00    +0.000 A 
ATOM     34  C   UNL     1      -2.717   9.746  15.725  0.00  0.00    +0.000 A 
ATOM     35  C   UNL     1      -3.728  10.701  15.731  0.00  0.00    +0.000 A 
ATOM     36  C   UNL     1      -3.922  11.500  16.857  0.00  0.00    +0.000 A 
ENDBRANCH   9  31
BRANCH   2  37
ATOM     37  C   UNL     1      -0.411  16.084  21.529  0.00  0.00    +0.000 C 
ATOM     38  N   UNL     1       0.211  16.997  21.898  0.00  0.00    +0.000 NA
ENDBRANCH   2  37
TORSDOF 6
ENDMDL
MODEL 8
REMARK VINA RESULT:      -6.6      0.489      1.107
REMARK  Name = 
REMARK  8 active torsions:
REMARK  status: ('A' for Active; 'I' for Inactive)
REMARK    1  A    between atoms: C_1  and  O_2
REMARK    2  A    between atoms: O_2  and  C_3
REMARK    3  A    between atoms: C_6  and  C_7
REMARK    4  A    between atoms: C_8  and  C_9
REMARK    5  A    between atoms: C_11  and  C_12
REMARK    6  A    between atoms: C_15  and  C_16
REMARK    7  A    between atoms: C_22  and  C_23
REMARK    8  A    between atoms: N_30  and  C_31
REMARK                            x       y       z     vdW  Elec       q    Type
REMARK                         _______ _______ _______ _____ _____    ______ ____
ROOT
ATOM      1  C   UNL     1      -2.465  14.734  21.567  0.00  0.00    +0.000 A 
ATOM      2  C   UNL     1      -1.154  15.060  21.091  0.00  0.00    +0.000 A 
ATOM      3  C   UNL     1      -0.537  14.309  20.087  0.00  0.00    +0.000 A 
ATOM      4  N   UNL     1      -1.186  13.321  19.456  0.00  0.00    +0.000 NA
ATOM      5  C   UNL     1      -2.447  13.062  19.855  0.00  0.00    +0.000 A 
ATOM      6  C   UNL     1      -3.147  13.672  20.892  0.00  0.00    +0.000 A 
ATOM      7  C   UNL     1      -4.423  12.975  20.892  0.00  0.00    +0.000 A 
ATOM      8  N   UNL     1      -4.540  12.194  19.802  0.00  0.00    +0.000 NA
ATOM      9  N   UNL     1      -3.313  12.184  19.229  0.00  0.00    +0.000 N 
ENDROOT
BRANCH   3  10
ATOM     10  C   UNL     1       0.848  14.520  19.581  0.00  0.00    +0.000 A 
ATOM     11  C   UNL     1       1.911  13.648  19.879  0.00  0.00    +0.000 A 
ATOM     12  C   UNL     1       3.211  13.885  19.422  0.00  0.00    +0.000 A 
ATOM     13  C   UNL     1       3.483  14.974  18.595  0.00  0.00    +0.000 A 
ATOM     14  C   UNL     1       4.863  15.195  18.056  0.00  0.00    +0.000 C 
ATOM     15  C   UNL     1       2.438  15.833  18.251  0.00  0.00    +0.000 A 
ATOM     16  C   UNL     1       1.144  15.612  18.741  0.00  0.00    +0.000 A 
ENDBRANCH   3  10
BRANCH   1  20
ATOM     17  C   UNL     1      -4.309  17.054  24.709  0.00  0.00    +0.000 A 
ATOM     18  C   UNL     1      -3.517  15.952  25.011  0.00  0.00    +0.000 A 
ATOM     19  C   UNL     1      -2.986  15.156  23.992  0.00  0.00    +0.000 A 
ATOM     20  C   UNL     1      -3.108  15.519  22.645  0.00  0.00    +0.000 A 
ATOM     21  C   UNL     1      -3.898  16.650  22.365  0.00  0.00    +0.000 A 
ATOM     22  C   UNL     1      -4.540  17.371  23.376  0.00  0.00    +0.000 A 
BRANCH  17  24
ATOM     23  C   UNL     1      -5.886  18.617  25.510  0.00  0.00    +0.000 C 
ATOM     24  O   UNL     1      -4.818  17.720  25.786  0.00  0.00    +0.000 OA
ENDBRANCH  17  24
ENDBRANCH   1  20
BRANCH   7  25
ATOM     25  C   UNL     1      -5.573  13.063  21.809  0.00  0.00    +0.000 A 
ATOM     26  C   UNL     1      -6.790  13.645  21.444  0.00  0.00    +0.000 A 
ATOM     27  C   UNL     1      -7.901  13.545  22.286  0.00  0.00    +0.000 A 
ATOM     28  C   UNL     1      -7.743  12.944  23.522  0.00  0.00    +0.000 A 
ATOM     29  N   UNL     1      -6.567  12.449  23.955  0.00  0.00    +0.000 NA
ATOM     30  C   UNL     1      -5.516  12.518  23.093  0.00  0.00    +0.000 A 
ENDBRANCH   7  25
BRANCH   9  31
ATOM     31  C   UNL     1      -3.038  11.402  18.071  0.00  0.00    +0.000 A 
ATOM     32  C   UNL     1      -1.942  10.529  18.061  0.00  0.00    +0.000 A 
ATOM     33  C   UNL     1      -1.740   9.687  16.962  0.00  0.00    +0.000 A 
ATOM     34  C   UNL     1      -2.595   9.746  15.860  0.00  0.00    +0.000 A 
ATOM     35  C   UNL     1      -3.658  10.643  15.851  0.00  0.00    +0.000 A 
ATOM     36  C   UNL     1      -3.886  11.462  16.956  0.00  0.00    +0.000 A 
ENDBRANCH   9  31
BRANCH   2  37
ATOM     37  C   UNL     1      -0.481  16.219  21.585  0.00  0.00    +0.000 C 
ATOM     38  N   UNL     1       0.127  17.126  21.990  0.00  0.00    +0.000 NA
ENDBRANCH   2  37
TORSDOF 6
ENDMDL
MODEL 9
REMARK VINA RESULT:      -6.5      0.618      1.168
REMARK  Name = 
REMARK  8 active torsions:
REMARK  status: ('A' for Active; 'I' for Inactive)
REMARK    1  A    between atoms: C_1  and  O_2
REMARK    2  A    between atoms: O_2  and  C_3
REMARK    3  A    between atoms: C_6  and  C_7
REMARK    4  A    between atoms: C_8  and  C_9
REMARK    5  A    between atoms: C_11  and  C_12
REMARK    6  A    between atoms: C_15  and  C_16
REMARK    7  A    between atoms: C_22  and  C_23
REMARK    8  A    between atoms: N_30  and  C_31
REMARK                            x       y       z     vdW  Elec       q    Type
REMARK                         _______ _______ _______ _____ _____    ______ ____
ROOT
ATOM      1  C   UNL     1      -2.487  14.421  21.459  0.00  0.00    +0.000 A 
ATOM      2  C   UNL     1      -1.184  14.723  20.947  0.00  0.00    +0.000 A 
ATOM      3  C   UNL     1      -0.631  13.996  19.890  0.00  0.00    +0.000 A 
ATOM      4  N   UNL     1      -1.336  13.057  19.245  0.00  0.00    +0.000 NA
ATOM      5  C   UNL     1      -2.590  12.823  19.681  0.00  0.00    +0.000 A 
ATOM      6  C   UNL     1      -3.230  13.411  20.768  0.00  0.00    +0.000 A 
ATOM      7  C   UNL     1      -4.528  12.758  20.788  0.00  0.00    +0.000 A 
ATOM      8  N   UNL     1      -4.712  12.028  19.673  0.00  0.00    +0.000 NA
ATOM      9  N   UNL     1      -3.508  12.001  19.053  0.00  0.00    +0.000 N 
ENDROOT
BRANCH   3  10
ATOM     10  C   UNL     1       0.742  14.182  19.341  0.00  0.00    +0.000 A 
ATOM     11  C   UNL     1       1.636  13.114  19.143  0.00  0.00    +0.000 A 
ATOM     12  C   UNL     1       2.932  13.317  18.659  0.00  0.00    +0.000 A 
ATOM     13  C   UNL     1       3.360  14.593  18.295  0.00  0.00    +0.000 A 
ATOM     14  C   UNL     1       4.728  14.803  17.720  0.00  0.00    +0.000 C 
ATOM     15  C   UNL     1       2.478  15.665  18.443  0.00  0.00    +0.000 A 
ATOM     16  C   UNL     1       1.192  15.462  18.963  0.00  0.00    +0.000 A 
ENDBRANCH   3  10
BRANCH   1  20
ATOM     17  C   UNL     1      -4.186  16.602  24.778  0.00  0.00    +0.000 A 
ATOM     18  C   UNL     1      -4.736  16.702  23.506  0.00  0.00    +0.000 A 
ATOM     19  C   UNL     1      -4.139  16.059  22.418  0.00  0.00    +0.000 A 
ATOM     20  C   UNL     1      -3.063  15.181  22.593  0.00  0.00    +0.000 A 
ATOM     21  C   UNL     1      -2.534  15.079  23.894  0.00  0.00    +0.000 A 
ATOM     22  C   UNL     1      -3.047  15.826  24.958  0.00  0.00    +0.000 A 
BRANCH  17  24
ATOM     23  C   UNL     1      -5.230  18.630  25.382  0.00  0.00    +0.000 C 
ATOM     24  O   UNL     1      -4.823  17.319  25.749  0.00  0.00    +0.000 OA
ENDBRANCH  17  24
ENDBRANCH   1  20
BRANCH   7  25
ATOM     25  C   UNL     1      -5.640  12.845  21.751  0.00  0.00    +0.000 A 
ATOM     26  C   UNL     1      -6.829  13.526  21.475  0.00  0.00    +0.000 A 
ATOM     27  C   UNL     1      -7.916  13.429  22.348  0.00  0.00    +0.000 A 
ATOM     28  C   UNL     1      -7.756  12.727  23.530  0.00  0.00    +0.000 A 
ATOM     29  N   UNL     1      -6.600  12.130  23.882  0.00  0.00    +0.000 NA
ATOM     30  C   UNL     1      -5.575  12.201  22.989  0.00  0.00    +0.000 A 
ENDBRANCH   7  25
BRANCH   9  31
ATOM     31  C   UNL     1      -3.303  11.260  17.855  0.00  0.00    +0.000 A 
ATOM     32  C   UNL     1      -4.108  11.501  16.735  0.00  0.00    +0.000 A 
ATOM     33  C   UNL     1      -3.831  10.845  15.531  0.00  0.00    +0.000 A 
ATOM     34  C   UNL     1      -2.789   9.920  15.453  0.00  0.00    +0.000 A 
ATOM     35  C   UNL     1      -2.014   9.648  16.577  0.00  0.00    +0.000 A 
ATOM     36  C   UNL     1      -2.263  10.322  17.771  0.00  0.00    +0.000 A 
ENDBRANCH   9  31
BRANCH   2  37
ATOM     37  C   UNL     1      -0.454  15.838  21.462  0.00  0.00    +0.000 C 
ATOM     38  N   UNL     1       0.127  16.724  21.948  0.00  0.00    +0.000 NA
ENDBRANCH   2  37
TORSDOF 6
ENDMDL
