MODEL 1
REMARK VINA RESULT:      -9.1      0.000      0.000
REMARK  Name = 
REMARK  10 active torsions:
REMARK  status: ('A' for Active; 'I' for Inactive)
REMARK    1  A    between atoms: C_1  and  C_2
REMARK    2  A    between atoms: N_6  and  C_7
REMARK    3  A    between atoms: C_12  and  C_13
REMARK    4  A    between atoms: C_13  and  O_15
REMARK    5  A    between atoms: O_15  and  C_16
REMARK    6  A    between atoms: C_16  and  C_17
REMARK    7  A    between atoms: N_21  and  C_22
REMARK    8  A    between atoms: C_22  and  C_23
REMARK    9  A    between atoms: C_23  and  C_24
REMARK   10  A    between atoms: C_24  and  C_25
REMARK                            x       y       z     vdW  Elec       q    Type
REMARK                         _______ _______ _______ _____ _____    ______ ____
ROOT
ATOM      1  O   UNL     1       2.120   7.922  17.656  0.00  0.00    +0.000 OA
ENDROOT
BRANCH   1   2
ATOM      2  C   UNL     1       2.833   7.038  18.409  0.00  0.00    +0.000 C 
ATOM      3  O   UNL     1       2.735   6.920  19.620  0.00  0.00    +0.000 OA
BRANCH   2   9
ATOM      4  C   UNL     1       3.700   4.724  17.644  0.00  0.00    +0.000 A 
ATOM      5  C   UNL     1       4.585   4.009  16.810  0.00  0.00    +0.000 A 
ATOM      6  C   UNL     1       5.447   4.675  15.937  0.00  0.00    +0.000 A 
ATOM      7  C   UNL     1       5.458   6.064  15.904  0.00  0.00    +0.000 A 
ATOM      8  C   UNL     1       4.599   6.782  16.732  0.00  0.00    +0.000 A 
ATOM      9  C   UNL     1       3.704   6.134  17.604  0.00  0.00    +0.000 A 
BRANCH   4  15
ATOM     10  C   UNL     1       1.908   3.012  21.664  0.00  0.00    +0.000 C 
ATOM     11  C   UNL     1       2.005   2.652  20.190  0.00  0.00    +0.000 C 
ATOM     12  C   UNL     1       0.840   3.211  19.385  0.00  0.00    +0.000 C 
ATOM     13  C   UNL     1       1.488   3.841  18.192  0.00  0.00    +0.000 C 
ATOM     14  O   UNL     1       0.890   4.137  17.168  0.00  0.00    +0.000 OA
ATOM     15  N   UNL     1       2.822   3.994  18.462  0.00  0.00    +0.000 N 
ATOM     16  C   UNL     1       3.224   3.279  19.561  0.00  0.00    +0.000 C 
ATOM     17  O   UNL     1       4.359   3.147  19.999  0.00  0.00    +0.000 OA
ENDBRANCH   4  15
ENDBRANCH   2   9
ENDBRANCH   1   2
BRANCH   1  18
ATOM     18  C   UNL     1       2.114   9.280  18.164  0.00  0.00    +0.000 C 
BRANCH  18  19
ATOM     19  C   UNL     1       0.805   9.697  18.872  0.00  0.00    +0.000 C 
ATOM     20  C   UNL     1       0.944  11.122  19.436  0.00  0.00    +0.000 C 
ATOM     21  C   UNL     1      -0.381  11.631  19.993  0.00  0.00    +0.000 C 
ATOM     22  C   UNL     1      -1.476  11.542  18.938  0.00  0.00    +0.000 C 
ATOM     23  N   UNL     1      -1.648  10.157  18.477  0.00  0.00    +0.000 NA
ATOM     24  C   UNL     1      -0.397   9.606  17.914  0.00  0.00    +0.000 C 
BRANCH  23  25
ATOM     25  C   UNL     1      -2.759  10.109  17.508  0.00  0.00    +0.000 C 
BRANCH  25  26
ATOM     26  C   UNL     1      -3.425  11.458  17.241  0.00  0.00    +0.000 C 
BRANCH  26  27
ATOM     27  C   UNL     1      -4.947  11.363  17.096  0.00  0.00    +0.000 C 
BRANCH  27  28
ATOM     28  C   UNL     1      -5.570  11.416  18.468  0.00  0.00    +0.000 A 
ATOM     29  C   UNL     1      -6.699  10.637  18.756  0.00  0.00    +0.000 A 
ATOM     30  C   UNL     1      -7.364  10.787  19.970  0.00  0.00    +0.000 A 
ATOM     31  C   UNL     1      -6.904  11.713  20.907  0.00  0.00    +0.000 A 
ATOM     32  C   UNL     1      -5.770  12.477  20.636  0.00  0.00    +0.000 A 
ATOM     33  C   UNL     1      -5.102  12.329  19.422  0.00  0.00    +0.000 A 
ENDBRANCH  27  28
ENDBRANCH  26  27
ENDBRANCH  25  26
ENDBRANCH  23  25
ENDBRANCH  18  19
ENDBRANCH   1  18
TORSDOF 9
ENDMDL
MODEL 2
REMARK VINA RESULT:      -8.7      3.261      4.782
REMARK  Name = 
REMARK  10 active torsions:
REMARK  status: ('A' for Active; 'I' for Inactive)
REMARK    1  A    between atoms: C_1  and  C_2
REMARK    2  A    between atoms: N_6  and  C_7
REMARK    3  A    between atoms: C_12  and  C_13
REMARK    4  A    between atoms: C_13  and  O_15
REMARK    5  A    between atoms: O_15  and  C_16
REMARK    6  A    between atoms: C_16  and  C_17
REMARK    7  A    between atoms: N_21  and  C_22
REMARK    8  A    between atoms: C_22  and  C_23
REMARK    9  A    between atoms: C_23  and  C_24
REMARK   10  A    between atoms: C_24  and  C_25
REMARK                            x       y       z     vdW  Elec       q    Type
REMARK                         _______ _______ _______ _____ _____    ______ ____
ROOT
ATOM      1  O   UNL     1       2.313   7.992  18.003  0.00  0.00    +0.000 OA
ENDROOT
BRANCH   1   2
ATOM      2  C   UNL     1       2.953   6.949  18.602  0.00  0.00    +0.000 C 
ATOM      3  O   UNL     1       2.856   6.661  19.784  0.00  0.00    +0.000 OA
BRANCH   2   9
ATOM      4  C   UNL     1       3.704   4.696  17.577  0.00  0.00    +0.000 A 
ATOM      5  C   UNL     1       4.501   4.041  16.614  0.00  0.00    +0.000 A 
ATOM      6  C   UNL     1       5.302   4.767  15.729  0.00  0.00    +0.000 A 
ATOM      7  C   UNL     1       5.339   6.154  15.811  0.00  0.00    +0.000 A 
ATOM      8  C   UNL     1       4.567   6.811  16.766  0.00  0.00    +0.000 A 
ATOM      9  C   UNL     1       3.734   6.104  17.654  0.00  0.00    +0.000 A 
BRANCH   4  15
ATOM     10  C   UNL     1       2.148   2.769  21.597  0.00  0.00    +0.000 C 
ATOM     11  C   UNL     1       2.179   2.477  20.106  0.00  0.00    +0.000 C 
ATOM     12  C   UNL     1       0.964   3.047  19.386  0.00  0.00    +0.000 C 
ATOM     13  C   UNL     1       1.539   3.743  18.192  0.00  0.00    +0.000 C 
ATOM     14  O   UNL     1       0.885   4.072  17.213  0.00  0.00    +0.000 OA
ATOM     15  N   UNL     1       2.882   3.912  18.403  0.00  0.00    +0.000 N 
ATOM     16  C   UNL     1       3.353   3.157  19.447  0.00  0.00    +0.000 C 
ATOM     17  O   UNL     1       4.510   3.030  19.822  0.00  0.00    +0.000 OA
ENDBRANCH   4  15
ENDBRANCH   2   9
ENDBRANCH   1   2
BRANCH   1  18
ATOM     18  C   UNL     1       1.420   8.731  18.873  0.00  0.00    +0.000 C 
BRANCH  18  19
ATOM     19  C   UNL     1       0.977  10.106  18.324  0.00  0.00    +0.000 C 
ATOM     20  C   UNL     1      -0.314  10.562  19.027  0.00  0.00    +0.000 C 
ATOM     21  C   UNL     1      -0.688  11.987  18.633  0.00  0.00    +0.000 C 
ATOM     22  C   UNL     1       0.470  12.939  18.899  0.00  0.00    +0.000 C 
ATOM     23  N   UNL     1       1.667  12.531  18.150  0.00  0.00    +0.000 NA
ATOM     24  C   UNL     1       2.089  11.157  18.495  0.00  0.00    +0.000 C 
BRANCH  23  25
ATOM     25  C   UNL     1       2.739  13.515  18.387  0.00  0.00    +0.000 C 
BRANCH  25  26
ATOM     26  C   UNL     1       2.264  14.837  18.988  0.00  0.00    +0.000 C 
BRANCH  26  27
ATOM     27  C   UNL     1       2.795  16.066  18.245  0.00  0.00    +0.000 C 
BRANCH  27  28
ATOM     28  C   UNL     1       1.631  16.952  17.878  0.00  0.00    +0.000 A 
ATOM     29  C   UNL     1       0.389  16.772  18.501  0.00  0.00    +0.000 A 
ATOM     30  C   UNL     1      -0.725  17.488  18.068  0.00  0.00    +0.000 A 
ATOM     31  C   UNL     1      -0.605  18.390  17.012  0.00  0.00    +0.000 A 
ATOM     32  C   UNL     1       0.632  18.590  16.400  0.00  0.00    +0.000 A 
ATOM     33  C   UNL     1       1.748  17.876  16.832  0.00  0.00    +0.000 A 
ENDBRANCH  27  28
ENDBRANCH  26  27
ENDBRANCH  25  26
ENDBRANCH  23  25
ENDBRANCH  18  19
ENDBRANCH   1  18
TORSDOF 9
ENDMDL
MODEL 3
REMARK VINA RESULT:      -8.6      1.623      2.281
REMARK  Name = 
REMARK  10 active torsions:
REMARK  status: ('A' for Active; 'I' for Inactive)
REMARK    1  A    between atoms: C_1  and  C_2
REMARK    2  A    between atoms: N_6  and  C_7
REMARK    3  A    between atoms: C_12  and  C_13
REMARK    4  A    between atoms: C_13  and  O_15
REMARK    5  A    between atoms: O_15  and  C_16
REMARK    6  A    between atoms: C_16  and  C_17
REMARK    7  A    between atoms: N_21  and  C_22
REMARK    8  A    between atoms: C_22  and  C_23
REMARK    9  A    between atoms: C_23  and  C_24
REMARK   10  A    between atoms: C_24  and  C_25
REMARK                            x       y       z     vdW  Elec       q    Type
REMARK                         _______ _______ _______ _____ _____    ______ ____
ROOT
ATOM      1  O   UNL     1       2.480   7.797  17.592  0.00  0.00    +0.000 OA
ENDROOT
BRANCH   1   2
ATOM      2  C   UNL     1       3.181   6.858  18.286  0.00  0.00    +0.000 C 
ATOM      3  O   UNL     1       3.143   6.717  19.498  0.00  0.00    +0.000 OA
BRANCH   2   9
ATOM      4  C   UNL     1       3.904   4.518  17.454  0.00  0.00    +0.000 A 
ATOM      5  C   UNL     1       4.697   3.775  16.553  0.00  0.00    +0.000 A 
ATOM      6  C   UNL     1       5.513   4.415  15.618  0.00  0.00    +0.000 A 
ATOM      7  C   UNL     1       5.571   5.803  15.586  0.00  0.00    +0.000 A 
ATOM      8  C   UNL     1       4.804   6.547  16.479  0.00  0.00    +0.000 A 
ATOM      9  C   UNL     1       3.955   5.927  17.416  0.00  0.00    +0.000 A 
BRANCH   4  15
ATOM     10  C   UNL     1       2.357   2.864  21.598  0.00  0.00    +0.000 C 
ATOM     11  C   UNL     1       2.336   2.501  20.122  0.00  0.00    +0.000 C 
ATOM     12  C   UNL     1       1.133   3.096  19.403  0.00  0.00    +0.000 C 
ATOM     13  C   UNL     1       1.711   3.705  18.164  0.00  0.00    +0.000 C 
ATOM     14  O   UNL     1       1.050   4.019  17.185  0.00  0.00    +0.000 OA
ATOM     15  N   UNL     1       3.066   3.816  18.336  0.00  0.00    +0.000 N 
ATOM     16  C   UNL     1       3.525   3.089  19.404  0.00  0.00    +0.000 C 
ATOM     17  O   UNL     1       4.684   2.922  19.759  0.00  0.00    +0.000 OA
ENDBRANCH   4  15
ENDBRANCH   2   9
ENDBRANCH   1   2
BRANCH   1  18
ATOM     18  C   UNL     1       2.259   9.038  18.311  0.00  0.00    +0.000 C 
BRANCH  18  19
ATOM     19  C   UNL     1       0.921   9.107  19.080  0.00  0.00    +0.000 C 
ATOM     20  C   UNL     1       1.187   9.120  20.596  0.00  0.00    +0.000 C 
ATOM     21  C   UNL     1      -0.097   9.357  21.385  0.00  0.00    +0.000 C 
ATOM     22  C   UNL     1      -0.785  10.633  20.917  0.00  0.00    +0.000 C 
ATOM     23  N   UNL     1      -1.105  10.561  19.485  0.00  0.00    +0.000 NA
ATOM     24  C   UNL     1       0.103  10.342  18.662  0.00  0.00    +0.000 C 
BRANCH  23  25
ATOM     25  C   UNL     1      -1.826  11.787  19.094  0.00  0.00    +0.000 C 
BRANCH  25  26
ATOM     26  C   UNL     1      -2.202  12.700  20.260  0.00  0.00    +0.000 C 
BRANCH  26  27
ATOM     27  C   UNL     1      -3.703  12.994  20.339  0.00  0.00    +0.000 C 
BRANCH  27  28
ATOM     28  C   UNL     1      -4.133  12.940  21.783  0.00  0.00    +0.000 A 
ATOM     29  C   UNL     1      -3.191  12.673  22.785  0.00  0.00    +0.000 A 
ATOM     30  C   UNL     1      -3.602  12.480  24.102  0.00  0.00    +0.000 A 
ATOM     31  C   UNL     1      -4.956  12.555  24.427  0.00  0.00    +0.000 A 
ATOM     32  C   UNL     1      -5.898  12.840  23.439  0.00  0.00    +0.000 A 
ATOM     33  C   UNL     1      -5.489  13.035  22.121  0.00  0.00    +0.000 A 
ENDBRANCH  27  28
ENDBRANCH  26  27
ENDBRANCH  25  26
ENDBRANCH  23  25
ENDBRANCH  18  19
ENDBRANCH   1  18
TORSDOF 9
ENDMDL
MODEL 4
REMARK VINA RESULT:      -8.6      1.729      2.331
REMARK  Name = 
REMARK  10 active torsions:
REMARK  status: ('A' for Active; 'I' for Inactive)
REMARK    1  A    between atoms: C_1  and  C_2
REMARK    2  A    between atoms: N_6  and  C_7
REMARK    3  A    between atoms: C_12  and  C_13
REMARK    4  A    between atoms: C_13  and  O_15
REMARK    5  A    between atoms: O_15  and  C_16
REMARK    6  A    between atoms: C_16  and  C_17
REMARK    7  A    between atoms: N_21  and  C_22
REMARK    8  A    between atoms: C_22  and  C_23
REMARK    9  A    between atoms: C_23  and  C_24
REMARK   10  A    between atoms: C_24  and  C_25
REMARK                            x       y       z     vdW  Elec       q    Type
REMARK                         _______ _______ _______ _____ _____    ______ ____
ROOT
ATOM      1  O   UNL     1       1.898   7.894  18.075  0.00  0.00    +0.000 OA
ENDROOT
BRANCH   1   2
ATOM      2  C   UNL     1       2.692   6.990  18.715  0.00  0.00    +0.000 C 
ATOM      3  O   UNL     1       2.664   6.767  19.915  0.00  0.00    +0.000 OA
BRANCH   2   9
ATOM      4  C   UNL     1       3.613   4.797  17.698  0.00  0.00    +0.000 A 
ATOM      5  C   UNL     1       4.490   4.201  16.766  0.00  0.00    +0.000 A 
ATOM      6  C   UNL     1       5.291   4.983  15.932  0.00  0.00    +0.000 A 
ATOM      7  C   UNL     1       5.249   6.369  16.034  0.00  0.00    +0.000 A 
ATOM      8  C   UNL     1       4.398   6.968  16.959  0.00  0.00    +0.000 A 
ATOM      9  C   UNL     1       3.563   6.203  17.795  0.00  0.00    +0.000 A 
BRANCH   4  15
ATOM     10  C   UNL     1       2.010   2.679  21.602  0.00  0.00    +0.000 C 
ATOM     11  C   UNL     1       2.094   2.441  20.103  0.00  0.00    +0.000 C 
ATOM     12  C   UNL     1       0.882   2.993  19.367  0.00  0.00    +0.000 C 
ATOM     13  C   UNL     1       1.466   3.749  18.215  0.00  0.00    +0.000 C 
ATOM     14  O   UNL     1       0.829   4.089  17.228  0.00  0.00    +0.000 OA
ATOM     15  N   UNL     1       2.796   3.957  18.472  0.00  0.00    +0.000 N 
ATOM     16  C   UNL     1       3.262   3.183  19.503  0.00  0.00    +0.000 C 
ATOM     17  O   UNL     1       4.412   3.083  19.909  0.00  0.00    +0.000 OA
ENDBRANCH   4  15
ENDBRANCH   2   9
ENDBRANCH   1   2
BRANCH   1  18
ATOM     18  C   UNL     1       1.851   9.202  18.698  0.00  0.00    +0.000 C 
BRANCH  18  19
ATOM     19  C   UNL     1       0.592   9.463  19.554  0.00  0.00    +0.000 C 
ATOM     20  C   UNL     1       0.971   9.511  21.045  0.00  0.00    +0.000 C 
ATOM     21  C   UNL     1      -0.213   9.933  21.908  0.00  0.00    +0.000 C 
ATOM     22  C   UNL     1      -0.784  11.259  21.424  0.00  0.00    +0.000 C 
ATOM     23  N   UNL     1      -1.217  11.164  20.023  0.00  0.00    +0.000 NA
ATOM     24  C   UNL     1      -0.108  10.767  19.130  0.00  0.00    +0.000 C 
BRANCH  23  25
ATOM     25  C   UNL     1      -1.820  12.448  19.619  0.00  0.00    +0.000 C 
BRANCH  25  26
ATOM     26  C   UNL     1      -3.276  12.626  20.047  0.00  0.00    +0.000 C 
BRANCH  26  27
ATOM     27  C   UNL     1      -3.474  13.752  21.067  0.00  0.00    +0.000 C 
BRANCH  27  28
ATOM     28  C   UNL     1      -4.218  13.203  22.258  0.00  0.00    +0.000 A 
ATOM     29  C   UNL     1      -5.620  13.188  22.262  0.00  0.00    +0.000 A 
ATOM     30  C   UNL     1      -6.314  12.817  23.411  0.00  0.00    +0.000 A 
ATOM     31  C   UNL     1      -5.615  12.457  24.562  0.00  0.00    +0.000 A 
ATOM     32  C   UNL     1      -4.220  12.451  24.560  0.00  0.00    +0.000 A 
ATOM     33  C   UNL     1      -3.523  12.820  23.411  0.00  0.00    +0.000 A 
ENDBRANCH  27  28
ENDBRANCH  26  27
ENDBRANCH  25  26
ENDBRANCH  23  25
ENDBRANCH  18  19
ENDBRANCH   1  18
TORSDOF 9
ENDMDL
MODEL 5
REMARK VINA RESULT:      -8.6      1.453      2.481
REMARK  Name = 
REMARK  10 active torsions:
REMARK  status: ('A' for Active; 'I' for Inactive)
REMARK    1  A    between atoms: C_1  and  C_2
REMARK    2  A    between atoms: N_6  and  C_7
REMARK    3  A    between atoms: C_12  and  C_13
REMARK    4  A    between atoms: C_13  and  O_15
REMARK    5  A    between atoms: O_15  and  C_16
REMARK    6  A    between atoms: C_16  and  C_17
REMARK    7  A    between atoms: N_21  and  C_22
REMARK    8  A    between atoms: C_22  and  C_23
REMARK    9  A    between atoms: C_23  and  C_24
REMARK   10  A    between atoms: C_24  and  C_25
REMARK                            x       y       z     vdW  Elec       q    Type
REMARK                         _______ _______ _______ _____ _____    ______ ____
ROOT
ATOM      1  O   UNL     1       2.300   7.283  17.984  0.00  0.00    +0.000 OA
ENDROOT
BRANCH   1   2
ATOM      2  C   UNL     1       3.446   6.690  18.420  0.00  0.00    +0.000 C 
ATOM      3  O   UNL     1       3.912   6.819  19.541  0.00  0.00    +0.000 OA
BRANCH   2   9
ATOM      4  C   UNL     1       3.888   4.372  17.363  0.00  0.00    +0.000 A 
ATOM      5  C   UNL     1       4.535   3.639  16.345  0.00  0.00    +0.000 A 
ATOM      6  C   UNL     1       5.325   4.281  15.388  0.00  0.00    +0.000 A 
ATOM      7  C   UNL     1       5.503   5.657  15.451  0.00  0.00    +0.000 A 
ATOM      8  C   UNL     1       4.881   6.390  16.459  0.00  0.00    +0.000 A 
ATOM      9  C   UNL     1       4.060   5.770  17.421  0.00  0.00    +0.000 A 
BRANCH   4  15
ATOM     10  C   UNL     1       2.446   2.694  21.535  0.00  0.00    +0.000 C 
ATOM     11  C   UNL     1       2.370   2.350  20.056  0.00  0.00    +0.000 C 
ATOM     12  C   UNL     1       1.155   2.976  19.384  0.00  0.00    +0.000 C 
ATOM     13  C   UNL     1       1.704   3.590  18.134  0.00  0.00    +0.000 C 
ATOM     14  O   UNL     1       1.017   3.928  17.181  0.00  0.00    +0.000 OA
ATOM     15  N   UNL     1       3.066   3.674  18.263  0.00  0.00    +0.000 N 
ATOM     16  C   UNL     1       3.545   2.925  19.307  0.00  0.00    +0.000 C 
ATOM     17  O   UNL     1       4.712   2.733  19.621  0.00  0.00    +0.000 OA
ENDBRANCH   4  15
ENDBRANCH   2   9
ENDBRANCH   1   2
BRANCH   1  18
ATOM     18  C   UNL     1       2.199   8.698  18.287  0.00  0.00    +0.000 C 
BRANCH  18  19
ATOM     19  C   UNL     1       1.060   9.068  19.263  0.00  0.00    +0.000 C 
ATOM     20  C   UNL     1       1.344   8.469  20.653  0.00  0.00    +0.000 C 
ATOM     21  C   UNL     1       0.330   8.952  21.685  0.00  0.00    +0.000 C 
ATOM     22  C   UNL     1       0.284  10.474  21.720  0.00  0.00    +0.000 C 
ATOM     23  N   UNL     1      -0.072  11.019  20.403  0.00  0.00    +0.000 NA
ATOM     24  C   UNL     1       0.882  10.594  19.356  0.00  0.00    +0.000 C 
BRANCH  23  25
ATOM     25  C   UNL     1      -0.168  12.487  20.502  0.00  0.00    +0.000 C 
BRANCH  25  26
ATOM     26  C   UNL     1      -1.309  13.103  19.694  0.00  0.00    +0.000 C 
BRANCH  26  27
ATOM     27  C   UNL     1      -2.635  12.352  19.850  0.00  0.00    +0.000 C 
BRANCH  27  28
ATOM     28  C   UNL     1      -3.101  11.904  18.488  0.00  0.00    +0.000 A 
ATOM     29  C   UNL     1      -4.470  11.746  18.232  0.00  0.00    +0.000 A 
ATOM     30  C   UNL     1      -4.900  11.197  17.026  0.00  0.00    +0.000 A 
ATOM     31  C   UNL     1      -3.967  10.805  16.067  0.00  0.00    +0.000 A 
ATOM     32  C   UNL     1      -2.604  10.976  16.306  0.00  0.00    +0.000 A 
ATOM     33  C   UNL     1      -2.171  11.526  17.511  0.00  0.00    +0.000 A 
ENDBRANCH  27  28
ENDBRANCH  26  27
ENDBRANCH  25  26
ENDBRANCH  23  25
ENDBRANCH  18  19
ENDBRANCH   1  18
TORSDOF 9
ENDMDL
MODEL 6
REMARK VINA RESULT:      -8.5      0.661      1.060
REMARK  Name = 
REMARK  10 active torsions:
REMARK  status: ('A' for Active; 'I' for Inactive)
REMARK    1  A    between atoms: C_1  and  C_2
REMARK    2  A    between atoms: N_6  and  C_7
REMARK    3  A    between atoms: C_12  and  C_13
REMARK    4  A    between atoms: C_13  and  O_15
REMARK    5  A    between atoms: O_15  and  C_16
REMARK    6  A    between atoms: C_16  and  C_17
REMARK    7  A    between atoms: N_21  and  C_22
REMARK    8  A    between atoms: C_22  and  C_23
REMARK    9  A    between atoms: C_23  and  C_24
REMARK   10  A    between atoms: C_24  and  C_25
REMARK                            x       y       z     vdW  Elec       q    Type
REMARK                         _______ _______ _______ _____ _____    ______ ____
ROOT
ATOM      1  O   UNL     1       2.709   8.305  18.476  0.00  0.00    +0.000 OA
ENDROOT
BRANCH   1   2
ATOM      2  C   UNL     1       2.800   6.990  18.817  0.00  0.00    +0.000 C 
ATOM      3  O   UNL     1       2.218   6.473  19.758  0.00  0.00    +0.000 OA
BRANCH   2   9
ATOM      4  C   UNL     1       3.601   4.778  17.741  0.00  0.00    +0.000 A 
ATOM      5  C   UNL     1       4.435   4.161  16.785  0.00  0.00    +0.000 A 
ATOM      6  C   UNL     1       5.261   4.922  15.954  0.00  0.00    +0.000 A 
ATOM      7  C   UNL     1       5.286   6.305  16.085  0.00  0.00    +0.000 A 
ATOM      8  C   UNL     1       4.477   6.924  17.035  0.00  0.00    +0.000 A 
ATOM      9  C   UNL     1       3.619   6.182  17.868  0.00  0.00    +0.000 A 
BRANCH   4  15
ATOM     10  C   UNL     1       1.885   2.745  21.643  0.00  0.00    +0.000 C 
ATOM     11  C   UNL     1       1.999   2.481  20.151  0.00  0.00    +0.000 C 
ATOM     12  C   UNL     1       0.810   3.036  19.378  0.00  0.00    +0.000 C 
ATOM     13  C   UNL     1       1.429   3.766  18.228  0.00  0.00    +0.000 C 
ATOM     14  O   UNL     1       0.819   4.098  17.222  0.00  0.00    +0.000 OA
ATOM     15  N   UNL     1       2.756   3.961  18.511  0.00  0.00    +0.000 N 
ATOM     16  C   UNL     1       3.189   3.198  19.565  0.00  0.00    +0.000 C 
ATOM     17  O   UNL     1       4.329   3.090  19.997  0.00  0.00    +0.000 OA
ENDBRANCH   4  15
ENDBRANCH   2   9
ENDBRANCH   1   2
BRANCH   1  18
ATOM     18  C   UNL     1       1.512   8.656  17.736  0.00  0.00    +0.000 C 
BRANCH  18  19
ATOM     19  C   UNL     1       0.583   9.662  18.453  0.00  0.00    +0.000 C 
ATOM     20  C   UNL     1       1.342  10.972  18.732  0.00  0.00    +0.000 C 
ATOM     21  C   UNL     1       0.413  12.046  19.285  0.00  0.00    +0.000 C 
ATOM     22  C   UNL     1      -0.772  12.264  18.352  0.00  0.00    +0.000 C 
ATOM     23  N   UNL     1      -1.530  11.018  18.169  0.00  0.00    +0.000 NA
ATOM     24  C   UNL     1      -0.685   9.935  17.624  0.00  0.00    +0.000 C 
BRANCH  23  25
ATOM     25  C   UNL     1      -2.700  11.291  17.314  0.00  0.00    +0.000 C 
BRANCH  25  26
ATOM     26  C   UNL     1      -4.000  10.649  17.795  0.00  0.00    +0.000 C 
BRANCH  26  27
ATOM     27  C   UNL     1      -5.228  11.542  17.592  0.00  0.00    +0.000 C 
BRANCH  27  28
ATOM     28  C   UNL     1      -5.825  11.859  18.940  0.00  0.00    +0.000 A 
ATOM     29  C   UNL     1      -5.036  12.450  19.936  0.00  0.00    +0.000 A 
ATOM     30  C   UNL     1      -5.538  12.614  21.225  0.00  0.00    +0.000 A 
ATOM     31  C   UNL     1      -6.832  12.191  21.527  0.00  0.00    +0.000 A 
ATOM     32  C   UNL     1      -7.631  11.620  20.537  0.00  0.00    +0.000 A 
ATOM     33  C   UNL     1      -7.131  11.456  19.246  0.00  0.00    +0.000 A 
ENDBRANCH  27  28
ENDBRANCH  26  27
ENDBRANCH  25  26
ENDBRANCH  23  25
ENDBRANCH  18  19
ENDBRANCH   1  18
TORSDOF 9
ENDMDL
MODEL 7
REMARK VINA RESULT:      -8.4      0.921      1.137
REMARK  Name = 
REMARK  10 active torsions:
REMARK  status: ('A' for Active; 'I' for Inactive)
REMARK    1  A    between atoms: C_1  and  C_2
REMARK    2  A    between atoms: N_6  and  C_7
REMARK    3  A    between atoms: C_12  and  C_13
REMARK    4  A    between atoms: C_13  and  O_15
REMARK    5  A    between atoms: O_15  and  C_16
REMARK    6  A    between atoms: C_16  and  C_17
REMARK    7  A    between atoms: N_21  and  C_22
REMARK    8  A    between atoms: C_22  and  C_23
REMARK    9  A    between atoms: C_23  and  C_24
REMARK   10  A    between atoms: C_24  and  C_25
REMARK                            x       y       z     vdW  Elec       q    Type
REMARK                         _______ _______ _______ _____ _____    ______ ____
ROOT
ATOM      1  O   UNL     1       1.761   7.721  17.897  0.00  0.00    +0.000 OA
ENDROOT
BRANCH   1   2
ATOM      2  C   UNL     1       2.675   6.983  18.586  0.00  0.00    +0.000 C 
ATOM      3  O   UNL     1       2.730   6.906  19.804  0.00  0.00    +0.000 OA
BRANCH   2   9
ATOM      4  C   UNL     1       3.649   4.770  17.667  0.00  0.00    +0.000 A 
ATOM      5  C   UNL     1       4.553   4.156  16.773  0.00  0.00    +0.000 A 
ATOM      6  C   UNL     1       5.357   4.921  15.925  0.00  0.00    +0.000 A 
ATOM      7  C   UNL     1       5.291   6.308  15.976  0.00  0.00    +0.000 A 
ATOM      8  C   UNL     1       4.413   6.926  16.863  0.00  0.00    +0.000 A 
ATOM      9  C   UNL     1       3.575   6.178  17.712  0.00  0.00    +0.000 A 
BRANCH   4  15
ATOM     10  C   UNL     1       2.062   2.706  21.606  0.00  0.00    +0.000 C 
ATOM     11  C   UNL     1       2.131   2.452  20.109  0.00  0.00    +0.000 C 
ATOM     12  C   UNL     1       0.917   3.007  19.377  0.00  0.00    +0.000 C 
ATOM     13  C   UNL     1       1.498   3.747  18.213  0.00  0.00    +0.000 C 
ATOM     14  O   UNL     1       0.855   4.083  17.228  0.00  0.00    +0.000 OA
ATOM     15  N   UNL     1       2.831   3.945  18.456  0.00  0.00    +0.000 N 
ATOM     16  C   UNL     1       3.300   3.177  19.491  0.00  0.00    +0.000 C 
ATOM     17  O   UNL     1       4.452   3.071  19.888  0.00  0.00    +0.000 OA
ENDBRANCH   4  15
ENDBRANCH   2   9
ENDBRANCH   1   2
BRANCH   1  18
ATOM     18  C   UNL     1       2.073   9.134  17.803  0.00  0.00    +0.000 C 
BRANCH  18  19
ATOM     19  C   UNL     1       1.176  10.051  18.664  0.00  0.00    +0.000 C 
ATOM     20  C   UNL     1       1.924  11.352  19.003  0.00  0.00    +0.000 C 
ATOM     21  C   UNL     1       1.013  12.351  19.707  0.00  0.00    +0.000 C 
ATOM     22  C   UNL     1      -0.237  12.615  18.878  0.00  0.00    +0.000 C 
ATOM     23  N   UNL     1      -0.980  11.369  18.640  0.00  0.00    +0.000 NA
ATOM     24  C   UNL     1      -0.152  10.359  17.948  0.00  0.00    +0.000 C 
BRANCH  23  25
ATOM     25  C   UNL     1      -2.212  11.683  17.891  0.00  0.00    +0.000 C 
BRANCH  25  26
ATOM     26  C   UNL     1      -3.173  10.506  17.734  0.00  0.00    +0.000 C 
BRANCH  26  27
ATOM     27  C   UNL     1      -4.321  10.788  16.759  0.00  0.00    +0.000 C 
BRANCH  27  28
ATOM     28  C   UNL     1      -5.425  11.497  17.502  0.00  0.00    +0.000 A 
ATOM     29  C   UNL     1      -5.979  10.920  18.653  0.00  0.00    +0.000 A 
ATOM     30  C   UNL     1      -7.092  11.495  19.261  0.00  0.00    +0.000 A 
ATOM     31  C   UNL     1      -7.659  12.651  18.725  0.00  0.00    +0.000 A 
ATOM     32  C   UNL     1      -7.103  13.242  17.592  0.00  0.00    +0.000 A 
ATOM     33  C   UNL     1      -5.988  12.669  16.982  0.00  0.00    +0.000 A 
ENDBRANCH  27  28
ENDBRANCH  26  27
ENDBRANCH  25  26
ENDBRANCH  23  25
ENDBRANCH  18  19
ENDBRANCH   1  18
TORSDOF 9
ENDMDL
MODEL 8
REMARK VINA RESULT:      -8.4      3.470     10.105
REMARK  Name = 
REMARK  10 active torsions:
REMARK  status: ('A' for Active; 'I' for Inactive)
REMARK    1  A    between atoms: C_1  and  C_2
REMARK    2  A    between atoms: N_6  and  C_7
REMARK    3  A    between atoms: C_12  and  C_13
REMARK    4  A    between atoms: C_13  and  O_15
REMARK    5  A    between atoms: O_15  and  C_16
REMARK    6  A    between atoms: C_16  and  C_17
REMARK    7  A    between atoms: N_21  and  C_22
REMARK    8  A    between atoms: C_22  and  C_23
REMARK    9  A    between atoms: C_23  and  C_24
REMARK   10  A    between atoms: C_24  and  C_25
REMARK                            x       y       z     vdW  Elec       q    Type
REMARK                         _______ _______ _______ _____ _____    ______ ____
ROOT
ATOM      1  O   UNL     1       1.836   8.383  20.448  0.00  0.00    +0.000 OA
ENDROOT
BRANCH   1   2
ATOM      2  C   UNL     1       1.098   9.444  20.018  0.00  0.00    +0.000 C 
ATOM      3  O   UNL     1       1.003   9.799  18.854  0.00  0.00    +0.000 OA
BRANCH   2   9
ATOM      4  C   UNL     1       0.023  11.483  21.192  0.00  0.00    +0.000 A 
ATOM      5  C   UNL     1      -0.739  11.955  22.282  0.00  0.00    +0.000 A 
ATOM      6  C   UNL     1      -1.219  11.077  23.257  0.00  0.00    +0.000 A 
ATOM      7  C   UNL     1      -0.922   9.723  23.173  0.00  0.00    +0.000 A 
ATOM      8  C   UNL     1      -0.160   9.247  22.110  0.00  0.00    +0.000 A 
ATOM      9  C   UNL     1       0.317  10.107  21.102  0.00  0.00    +0.000 A 
BRANCH   4  15
ATOM     10  C   UNL     1       3.010  13.718  18.298  0.00  0.00    +0.000 C 
ATOM     11  C   UNL     1       1.714  13.972  19.050  0.00  0.00    +0.000 C 
ATOM     12  C   UNL     1       0.490  13.598  18.224  0.00  0.00    +0.000 C 
ATOM     13  C   UNL     1      -0.353  12.793  19.163  0.00  0.00    +0.000 C 
ATOM     14  O   UNL     1      -1.539  12.558  18.985  0.00  0.00    +0.000 OA
ATOM     15  N   UNL     1       0.432  12.408  20.218  0.00  0.00    +0.000 N 
ATOM     16  C   UNL     1       1.618  13.095  20.273  0.00  0.00    +0.000 C 
ATOM     17  O   UNL     1       2.483  13.035  21.136  0.00  0.00    +0.000 OA
ENDBRANCH   4  15
ENDBRANCH   2   9
ENDBRANCH   1   2
BRANCH   1  18
ATOM     18  C   UNL     1       2.204   7.443  19.407  0.00  0.00    +0.000 C 
BRANCH  18  19
ATOM     19  C   UNL     1       2.622   6.046  19.919  0.00  0.00    +0.000 C 
ATOM     20  C   UNL     1       1.396   5.301  20.476  0.00  0.00    +0.000 C 
ATOM     21  C   UNL     1       1.737   3.859  20.835  0.00  0.00    +0.000 C 
ATOM     22  C   UNL     1       2.345   3.138  19.640  0.00  0.00    +0.000 C 
ATOM     23  N   UNL     1       3.563   3.820  19.180  0.00  0.00    +0.000 NA
ATOM     24  C   UNL     1       3.297   5.225  18.805  0.00  0.00    +0.000 C 
BRANCH  23  25
ATOM     25  C   UNL     1       4.151   3.052  18.067  0.00  0.00    +0.000 C 
BRANCH  25  26
ATOM     26  C   UNL     1       4.203   3.803  16.737  0.00  0.00    +0.000 C 
BRANCH  26  27
ATOM     27  C   UNL     1       5.625   3.972  16.192  0.00  0.00    +0.000 C 
BRANCH  27  28
ATOM     28  C   UNL     1       6.332   5.031  17.000  0.00  0.00    +0.000 A 
ATOM     29  C   UNL     1       6.224   6.379  16.636  0.00  0.00    +0.000 A 
ATOM     30  C   UNL     1       6.986   7.346  17.288  0.00  0.00    +0.000 A 
ATOM     31  C   UNL     1       7.859   6.973  18.309  0.00  0.00    +0.000 A 
ATOM     32  C   UNL     1       7.957   5.635  18.691  0.00  0.00    +0.000 A 
ATOM     33  C   UNL     1       7.195   4.666  18.041  0.00  0.00    +0.000 A 
ENDBRANCH  27  28
ENDBRANCH  26  27
ENDBRANCH  25  26
ENDBRANCH  23  25
ENDBRANCH  18  19
ENDBRANCH   1  18
TORSDOF 9
ENDMDL
MODEL 9
REMARK VINA RESULT:      -8.4      2.462      4.757
REMARK  Name = 
REMARK  10 active torsions:
REMARK  status: ('A' for Active; 'I' for Inactive)
REMARK    1  A    between atoms: C_1  and  C_2
REMARK    2  A    between atoms: N_6  and  C_7
REMARK    3  A    between atoms: C_12  and  C_13
REMARK    4  A    between atoms: C_13  and  O_15
REMARK    5  A    between atoms: O_15  and  C_16
REMARK    6  A    between atoms: C_16  and  C_17
REMARK    7  A    between atoms: N_21  and  C_22
REMARK    8  A    between atoms: C_22  and  C_23
REMARK    9  A    between atoms: C_23  and  C_24
REMARK   10  A    between atoms: C_24  and  C_25
REMARK                            x       y       z     vdW  Elec       q    Type
REMARK                         _______ _______ _______ _____ _____    ______ ____
ROOT
ATOM      1  O   UNL     1       1.865   7.693  17.984  0.00  0.00    +0.000 OA
ENDROOT
BRANCH   1   2
ATOM      2  C   UNL     1       2.744   6.907  18.666  0.00  0.00    +0.000 C 
ATOM      3  O   UNL     1       2.793   6.814  19.883  0.00  0.00    +0.000 OA
BRANCH   2   9
ATOM      4  C   UNL     1       3.615   4.665  17.716  0.00  0.00    +0.000 A 
ATOM      5  C   UNL     1       4.494   4.022  16.818  0.00  0.00    +0.000 A 
ATOM      6  C   UNL     1       5.340   4.760  15.987  0.00  0.00    +0.000 A 
ATOM      7  C   UNL     1       5.341   6.147  16.061  0.00  0.00    +0.000 A 
ATOM      8  C   UNL     1       4.489   6.793  16.953  0.00  0.00    +0.000 A 
ATOM      9  C   UNL     1       3.610   6.074  17.784  0.00  0.00    +0.000 A 
BRANCH   4  15
ATOM     10  C   UNL     1       1.878   2.651  21.618  0.00  0.00    +0.000 C 
ATOM     11  C   UNL     1       1.967   2.398  20.122  0.00  0.00    +0.000 C 
ATOM     12  C   UNL     1       0.788   2.998  19.368  0.00  0.00    +0.000 C 
ATOM     13  C   UNL     1       1.418   3.719  18.217  0.00  0.00    +0.000 C 
ATOM     14  O   UNL     1       0.808   4.079  17.221  0.00  0.00    +0.000 OA
ATOM     15  N   UNL     1       2.753   3.868  18.487  0.00  0.00    +0.000 N 
ATOM     16  C   UNL     1       3.173   3.082  19.529  0.00  0.00    +0.000 C 
ATOM     17  O   UNL     1       4.313   2.934  19.948  0.00  0.00    +0.000 OA
ENDBRANCH   4  15
ENDBRANCH   2   9
ENDBRANCH   1   2
BRANCH   1  18
ATOM     18  C   UNL     1       2.285   9.072  17.827  0.00  0.00    +0.000 C 
BRANCH  18  19
ATOM     19  C   UNL     1       1.161  10.114  18.025  0.00  0.00    +0.000 C 
ATOM     20  C   UNL     1      -0.214   9.440  17.873  0.00  0.00    +0.000 C 
ATOM     21  C   UNL     1      -1.346  10.398  18.227  0.00  0.00    +0.000 C 
ATOM     22  C   UNL     1      -1.147  10.970  19.624  0.00  0.00    +0.000 C 
ATOM     23  N   UNL     1       0.135  11.683  19.721  0.00  0.00    +0.000 NA
ATOM     24  C   UNL     1       1.278  10.803  19.397  0.00  0.00    +0.000 C 
BRANCH  23  25
ATOM     25  C   UNL     1       0.255  12.273  21.067  0.00  0.00    +0.000 C 
BRANCH  25  26
ATOM     26  C   UNL     1       0.767  13.713  21.083  0.00  0.00    +0.000 C 
BRANCH  26  27
ATOM     27  C   UNL     1       0.317  14.530  19.869  0.00  0.00    +0.000 C 
BRANCH  27  28
ATOM     28  C   UNL     1       1.538  15.038  19.146  0.00  0.00    +0.000 A 
ATOM     29  C   UNL     1       1.545  16.330  18.603  0.00  0.00    +0.000 A 
ATOM     30  C   UNL     1       2.610  16.754  17.812  0.00  0.00    +0.000 A 
ATOM     31  C   UNL     1       3.677  15.893  17.561  0.00  0.00    +0.000 A 
ATOM     32  C   UNL     1       3.688  14.613  18.113  0.00  0.00    +0.000 A 
ATOM     33  C   UNL     1       2.624  14.186  18.905  0.00  0.00    +0.000 A 
ENDBRANCH  27  28
ENDBRANCH  26  27
ENDBRANCH  25  26
ENDBRANCH  23  25
ENDBRANCH  18  19
ENDBRANCH   1  18
TORSDOF 9
ENDMDL
