MODEL 1
REMARK VINA RESULT:      -8.0      0.000      0.000
REMARK  Name = 
REMARK  14 active torsions:
REMARK  status: ('A' for Active; 'I' for Inactive)
REMARK    1  A    between atoms: C_1  and  C_2
REMARK    2  A    between atoms: C_2  and  O_3
REMARK    3  A    between atoms: O_3  and  C_4
REMARK    4  A    between atoms: C_7  and  N_8
REMARK    5  A    between atoms: N_8  and  C_9
REMARK    6  A    between atoms: N_8  and  S_22
REMARK    7  A    between atoms: C_9  and  C_10
REMARK    8  A    between atoms: N_12  and  C_13
REMARK    9  A    between atoms: C_13  and  C_14
REMARK   10  A    between atoms: C_14  and  C_15
REMARK   11  A    between atoms: C_18  and  C_19
REMARK   12  A    between atoms: S_22  and  C_25
REMARK   13  A    between atoms: C_26  and  C_27
REMARK   14  A    between atoms: C_30  and  C_31
REMARK                            x       y       z     vdW  Elec       q    Type
REMARK                         _______ _______ _______ _____ _____    ______ ____
ROOT
ATOM      1  N   UNL     1       3.347   6.786  17.420  0.00  0.00    +0.000 N 
ENDROOT
BRANCH   1   5
ATOM      2  C   UNL     1       1.265   4.018  19.901  0.00  0.00    +0.000 A 
ATOM      3  C   UNL     1       1.844   5.169  20.438  0.00  0.00    +0.000 A 
ATOM      4  C   UNL     1       2.499   6.098  19.626  0.00  0.00    +0.000 A 
ATOM      5  C   UNL     1       2.607   5.876  18.254  0.00  0.00    +0.000 A 
ATOM      6  C   UNL     1       2.047   4.712  17.712  0.00  0.00    +0.000 A 
ATOM      7  C   UNL     1       1.362   3.789  18.528  0.00  0.00    +0.000 A 
BRANCH   2   8
ATOM      8  O   UNL     1       0.719   3.180  20.829  0.00  0.00    +0.000 OA
BRANCH   8  10
ATOM      9  C   UNL     1       2.821   2.246  21.413  0.00  0.00    +0.000 C 
ATOM     10  C   UNL     1       1.514   2.807  21.954  0.00  0.00    +0.000 C 
ENDBRANCH   8  10
ENDBRANCH   2   8
ENDBRANCH   1   5
BRANCH   1  11
ATOM     11  S   UNL     1       4.825   6.195  16.758  0.00  0.00    +0.000 S 
ATOM     12  O   UNL     1       4.559   4.874  16.219  0.00  0.00    +0.000 OA
ATOM     13  O   UNL     1       5.384   7.226  15.904  0.00  0.00    +0.000 OA
BRANCH  11  14
ATOM     14  C   UNL     1       6.057   5.916  17.934  0.00  0.00    +0.000 A 
ATOM     15  C   UNL     1       6.159   4.945  18.975  0.00  0.00    +0.000 A 
ATOM     16  C   UNL     1       5.311   3.808  19.405  0.00  0.00    +0.000 C 
ATOM     17  N   UNL     1       7.265   5.157  19.709  0.00  0.00    +0.000 NA
ATOM     18  O   UNL     1       7.871   6.271  19.189  0.00  0.00    +0.000 OA
ATOM     19  C   UNL     1       7.154   6.730  18.136  0.00  0.00    +0.000 A 
ATOM     20  C   UNL     1       7.672   7.960  17.511  0.00  0.00    +0.000 C 
ENDBRANCH  11  14
ENDBRANCH   1  11
BRANCH   1  21
ATOM     21  C   UNL     1       3.416   8.220  17.780  0.00  0.00    +0.000 C 
BRANCH  21  22
ATOM     22  C   UNL     1       2.175   9.087  17.740  0.00  0.00    +0.000 C 
ATOM     23  O   UNL     1       1.150   8.684  17.190  0.00  0.00    +0.000 OA
ATOM     24  N   UNL     1       2.210  10.280  18.440  0.00  0.00    +0.000 N 
ATOM     25  H   UNL     1       3.109  10.694  18.662  0.00  0.00    +0.000 HD
BRANCH  24  26
ATOM     26  C   UNL     1       0.981  11.054  18.583  0.00  0.00    +0.000 C 
BRANCH  26  27
ATOM     27  C   UNL     1      -0.109  10.383  19.423  0.00  0.00    +0.000 C 
BRANCH  27  28
ATOM     28  C   UNL     1      -1.497  10.709  18.908  0.00  0.00    +0.000 A 
ATOM     29  C   UNL     1      -2.216  11.801  19.414  0.00  0.00    +0.000 A 
ATOM     30  C   UNL     1      -3.506  12.088  18.946  0.00  0.00    +0.000 A 
ATOM     31  C   UNL     1      -4.103  11.290  17.970  0.00  0.00    +0.000 A 
ATOM     32  C   UNL     1      -5.483  11.582  17.458  0.00  0.00    +0.000 C 
ATOM     33  C   UNL     1      -3.390  10.202  17.464  0.00  0.00    +0.000 A 
ATOM     34  C   UNL     1      -2.102   9.911  17.930  0.00  0.00    +0.000 A 
ENDBRANCH  27  28
ENDBRANCH  26  27
ENDBRANCH  24  26
ENDBRANCH  21  22
ENDBRANCH   1  21
TORSDOF 10
ENDMDL
MODEL 2
REMARK VINA RESULT:      -7.9      4.706      8.546
REMARK  Name = 
REMARK  14 active torsions:
REMARK  status: ('A' for Active; 'I' for Inactive)
REMARK    1  A    between atoms: C_1  and  C_2
REMARK    2  A    between atoms: C_2  and  O_3
REMARK    3  A    between atoms: O_3  and  C_4
REMARK    4  A    between atoms: C_7  and  N_8
REMARK    5  A    between atoms: N_8  and  C_9
REMARK    6  A    between atoms: N_8  and  S_22
REMARK    7  A    between atoms: C_9  and  C_10
REMARK    8  A    between atoms: N_12  and  C_13
REMARK    9  A    between atoms: C_13  and  C_14
REMARK   10  A    between atoms: C_14  and  C_15
REMARK   11  A    between atoms: C_18  and  C_19
REMARK   12  A    between atoms: S_22  and  C_25
REMARK   13  A    between atoms: C_26  and  C_27
REMARK   14  A    between atoms: C_30  and  C_31
REMARK                            x       y       z     vdW  Elec       q    Type
REMARK                         _______ _______ _______ _____ _____    ______ ____
ROOT
ATOM      1  N   UNL     1       6.200   4.895  17.798  0.00  0.00    +0.000 N 
ENDROOT
BRANCH   1   5
ATOM      2  C   UNL     1       6.188   3.866  13.663  0.00  0.00    +0.000 A 
ATOM      3  C   UNL     1       7.178   4.695  14.194  0.00  0.00    +0.000 A 
ATOM      4  C   UNL     1       7.208   5.009  15.555  0.00  0.00    +0.000 A 
ATOM      5  C   UNL     1       6.225   4.515  16.410  0.00  0.00    +0.000 A 
ATOM      6  C   UNL     1       5.215   3.701  15.880  0.00  0.00    +0.000 A 
ATOM      7  C   UNL     1       5.202   3.361  14.511  0.00  0.00    +0.000 A 
BRANCH   2   8
ATOM      8  O   UNL     1       6.257   3.705  12.310  0.00  0.00    +0.000 OA
BRANCH   8  10
ATOM      9  C   UNL     1       6.605   1.684  11.119  0.00  0.00    +0.000 C 
ATOM     10  C   UNL     1       5.560   2.609  11.723  0.00  0.00    +0.000 C 
ENDBRANCH   8  10
ENDBRANCH   2   8
ENDBRANCH   1   5
BRANCH   1  11
ATOM     11  S   UNL     1       4.660   5.303  18.457  0.00  0.00    +0.000 S 
ATOM     12  O   UNL     1       4.882   5.792  19.804  0.00  0.00    +0.000 OA
ATOM     13  O   UNL     1       3.958   6.130  17.493  0.00  0.00    +0.000 OA
BRANCH  11  14
ATOM     14  C   UNL     1       3.613   3.949  18.681  0.00  0.00    +0.000 A 
ATOM     15  C   UNL     1       3.839   2.680  19.293  0.00  0.00    +0.000 A 
ATOM     16  C   UNL     1       4.993   2.069  19.996  0.00  0.00    +0.000 C 
ATOM     17  N   UNL     1       2.755   1.896  19.164  0.00  0.00    +0.000 NA
ATOM     18  O   UNL     1       1.835   2.617  18.448  0.00  0.00    +0.000 OA
ATOM     19  C   UNL     1       2.343   3.837  18.153  0.00  0.00    +0.000 A 
ATOM     20  C   UNL     1       1.470   4.701  17.338  0.00  0.00    +0.000 C 
ENDBRANCH  11  14
ENDBRANCH   1  11
BRANCH   1  21
ATOM     21  C   UNL     1       7.295   5.723  18.350  0.00  0.00    +0.000 C 
BRANCH  21  22
ATOM     22  C   UNL     1       7.483   7.156  17.900  0.00  0.00    +0.000 C 
ATOM     23  O   UNL     1       6.761   7.635  17.023  0.00  0.00    +0.000 OA
ATOM     24  N   UNL     1       8.406   7.924  18.588  0.00  0.00    +0.000 N 
ATOM     25  H   UNL     1       9.139   7.460  19.113  0.00  0.00    +0.000 HD
BRANCH  24  26
ATOM     26  C   UNL     1       8.483   9.355  18.312  0.00  0.00    +0.000 C 
BRANCH  26  27
ATOM     27  C   UNL     1       9.291  10.166  19.330  0.00  0.00    +0.000 C 
BRANCH  27  28
ATOM     28  C   UNL     1       9.756  11.488  18.754  0.00  0.00    +0.000 A 
ATOM     29  C   UNL     1       9.221  12.701  19.210  0.00  0.00    +0.000 A 
ATOM     30  C   UNL     1       9.643  13.921  18.662  0.00  0.00    +0.000 A 
ATOM     31  C   UNL     1      10.601  13.952  17.648  0.00  0.00    +0.000 A 
ATOM     32  C   UNL     1      11.064  15.249  17.050  0.00  0.00    +0.000 C 
ATOM     33  C   UNL     1      11.136  12.746  17.192  0.00  0.00    +0.000 A 
ATOM     34  C   UNL     1      10.716  11.527  17.735  0.00  0.00    +0.000 A 
ENDBRANCH  27  28
ENDBRANCH  26  27
ENDBRANCH  24  26
ENDBRANCH  21  22
ENDBRANCH   1  21
TORSDOF 10
ENDMDL
MODEL 3
REMARK VINA RESULT:      -7.9      3.002      5.625
REMARK  Name = 
REMARK  14 active torsions:
REMARK  status: ('A' for Active; 'I' for Inactive)
REMARK    1  A    between atoms: C_1  and  C_2
REMARK    2  A    between atoms: C_2  and  O_3
REMARK    3  A    between atoms: O_3  and  C_4
REMARK    4  A    between atoms: C_7  and  N_8
REMARK    5  A    between atoms: N_8  and  C_9
REMARK    6  A    between atoms: N_8  and  S_22
REMARK    7  A    between atoms: C_9  and  C_10
REMARK    8  A    between atoms: N_12  and  C_13
REMARK    9  A    between atoms: C_13  and  C_14
REMARK   10  A    between atoms: C_14  and  C_15
REMARK   11  A    between atoms: C_18  and  C_19
REMARK   12  A    between atoms: S_22  and  C_25
REMARK   13  A    between atoms: C_26  and  C_27
REMARK   14  A    between atoms: C_30  and  C_31
REMARK                            x       y       z     vdW  Elec       q    Type
REMARK                         _______ _______ _______ _____ _____    ______ ____
ROOT
ATOM      1  N   UNL     1       4.977   4.151  18.276  0.00  0.00    +0.000 N 
ENDROOT
BRANCH   1   5
ATOM      2  C   UNL     1       6.783   4.766  14.467  0.00  0.00    +0.000 A 
ATOM      3  C   UNL     1       7.547   4.785  15.636  0.00  0.00    +0.000 A 
ATOM      4  C   UNL     1       6.967   4.551  16.885  0.00  0.00    +0.000 A 
ATOM      5  C   UNL     1       5.597   4.315  16.989  0.00  0.00    +0.000 A 
ATOM      6  C   UNL     1       4.821   4.318  15.822  0.00  0.00    +0.000 A 
ATOM      7  C   UNL     1       5.412   4.526  14.559  0.00  0.00    +0.000 A 
BRANCH   2   8
ATOM      8  O   UNL     1       7.481   5.076  13.337  0.00  0.00    +0.000 OA
BRANCH   8  10
ATOM      9  C   UNL     1       7.142   3.212  11.909  0.00  0.00    +0.000 C 
ATOM     10  C   UNL     1       6.924   4.708  12.076  0.00  0.00    +0.000 C 
ENDBRANCH   8  10
ENDBRANCH   2   8
ENDBRANCH   1   5
BRANCH   1  11
ATOM     11  S   UNL     1       3.552   3.181  18.325  0.00  0.00    +0.000 S 
ATOM     12  O   UNL     1       2.472   3.971  17.763  0.00  0.00    +0.000 OA
ATOM     13  O   UNL     1       3.867   1.882  17.762  0.00  0.00    +0.000 OA
BRANCH  11  14
ATOM     14  C   UNL     1       3.005   2.820  19.922  0.00  0.00    +0.000 A 
ATOM     15  C   UNL     1       1.823   3.210  20.620  0.00  0.00    +0.000 A 
ATOM     16  C   UNL     1       0.625   4.000  20.250  0.00  0.00    +0.000 C 
ATOM     17  N   UNL     1       1.855   2.761  21.887  0.00  0.00    +0.000 NA
ATOM     18  O   UNL     1       3.052   2.112  22.041  0.00  0.00    +0.000 OA
ATOM     19  C   UNL     1       3.743   2.149  20.876  0.00  0.00    +0.000 A 
ATOM     20  C   UNL     1       5.079   1.527  20.918  0.00  0.00    +0.000 C 
ENDBRANCH  11  14
ENDBRANCH   1  11
BRANCH   1  21
ATOM     21  C   UNL     1       4.923   5.292  19.216  0.00  0.00    +0.000 C 
BRANCH  21  22
ATOM     22  C   UNL     1       3.882   6.379  19.053  0.00  0.00    +0.000 C 
ATOM     23  O   UNL     1       3.764   6.974  17.981  0.00  0.00    +0.000 OA
ATOM     24  N   UNL     1       3.008   6.586  20.106  0.00  0.00    +0.000 N 
ATOM     25  H   UNL     1       3.274   6.276  21.034  0.00  0.00    +0.000 HD
BRANCH  24  26
ATOM     26  C   UNL     1       1.876   7.489  19.920  0.00  0.00    +0.000 C 
BRANCH  26  27
ATOM     27  C   UNL     1       1.386   8.179  21.195  0.00  0.00    +0.000 C 
BRANCH  27  28
ATOM     28  C   UNL     1       0.527   9.389  20.886  0.00  0.00    +0.000 A 
ATOM     29  C   UNL     1      -0.117  10.098  21.909  0.00  0.00    +0.000 A 
ATOM     30  C   UNL     1      -0.924  11.206  21.615  0.00  0.00    +0.000 A 
ATOM     31  C   UNL     1      -1.107  11.623  20.297  0.00  0.00    +0.000 A 
ATOM     32  C   UNL     1      -1.968  12.807  19.964  0.00  0.00    +0.000 C 
ATOM     33  C   UNL     1      -0.467  10.920  19.275  0.00  0.00    +0.000 A 
ATOM     34  C   UNL     1       0.338   9.812  19.564  0.00  0.00    +0.000 A 
ENDBRANCH  27  28
ENDBRANCH  26  27
ENDBRANCH  24  26
ENDBRANCH  21  22
ENDBRANCH   1  21
TORSDOF 10
ENDMDL
MODEL 4
REMARK VINA RESULT:      -7.9      1.507      2.362
REMARK  Name = 
REMARK  14 active torsions:
REMARK  status: ('A' for Active; 'I' for Inactive)
REMARK    1  A    between atoms: C_1  and  C_2
REMARK    2  A    between atoms: C_2  and  O_3
REMARK    3  A    between atoms: O_3  and  C_4
REMARK    4  A    between atoms: C_7  and  N_8
REMARK    5  A    between atoms: N_8  and  C_9
REMARK    6  A    between atoms: N_8  and  S_22
REMARK    7  A    between atoms: C_9  and  C_10
REMARK    8  A    between atoms: N_12  and  C_13
REMARK    9  A    between atoms: C_13  and  C_14
REMARK   10  A    between atoms: C_14  and  C_15
REMARK   11  A    between atoms: C_18  and  C_19
REMARK   12  A    between atoms: S_22  and  C_25
REMARK   13  A    between atoms: C_26  and  C_27
REMARK   14  A    between atoms: C_30  and  C_31
REMARK                            x       y       z     vdW  Elec       q    Type
REMARK                         _______ _______ _______ _____ _____    ______ ____
ROOT
ATOM      1  N   UNL     1       3.227   6.708  17.467  0.00  0.00    +0.000 N 
ENDROOT
BRANCH   1   5
ATOM      2  C   UNL     1       1.210   3.920  19.980  0.00  0.00    +0.000 A 
ATOM      3  C   UNL     1       1.837   5.047  20.516  0.00  0.00    +0.000 A 
ATOM      4  C   UNL     1       2.472   5.982  19.695  0.00  0.00    +0.000 A 
ATOM      5  C   UNL     1       2.509   5.792  18.314  0.00  0.00    +0.000 A 
ATOM      6  C   UNL     1       1.901   4.652  17.773  0.00  0.00    +0.000 A 
ATOM      7  C   UNL     1       1.237   3.723  18.599  0.00  0.00    +0.000 A 
BRANCH   2   8
ATOM      8  O   UNL     1       0.692   3.070  20.913  0.00  0.00    +0.000 OA
BRANCH   8  10
ATOM      9  C   UNL     1       2.833   2.220  21.480  0.00  0.00    +0.000 C 
ATOM     10  C   UNL     1       1.506   2.718  22.031  0.00  0.00    +0.000 C 
ENDBRANCH   8  10
ENDBRANCH   2   8
ENDBRANCH   1   5
BRANCH   1  11
ATOM     11  S   UNL     1       4.706   6.134  16.793  0.00  0.00    +0.000 S 
ATOM     12  O   UNL     1       4.471   4.783  16.319  0.00  0.00    +0.000 OA
ATOM     13  O   UNL     1       5.211   7.143  15.881  0.00  0.00    +0.000 OA
BRANCH  11  14
ATOM     14  C   UNL     1       5.976   5.947  17.948  0.00  0.00    +0.000 A 
ATOM     15  C   UNL     1       7.188   6.676  18.137  0.00  0.00    +0.000 A 
ATOM     16  C   UNL     1       7.784   7.865  17.482  0.00  0.00    +0.000 C 
ATOM     17  N   UNL     1       7.924   6.120  19.114  0.00  0.00    +0.000 NA
ATOM     18  O   UNL     1       7.232   5.018  19.545  0.00  0.00    +0.000 OA
ATOM     19  C   UNL     1       6.074   4.907  18.850  0.00  0.00    +0.000 A 
ATOM     20  C   UNL     1       5.253   3.729  19.182  0.00  0.00    +0.000 C 
ENDBRANCH  11  14
ENDBRANCH   1  11
BRANCH   1  21
ATOM     21  C   UNL     1       3.278   8.144  17.818  0.00  0.00    +0.000 C 
BRANCH  21  22
ATOM     22  C   UNL     1       2.011   8.905  18.148  0.00  0.00    +0.000 C 
ATOM     23  O   UNL     1       1.109   9.005  17.315  0.00  0.00    +0.000 OA
ATOM     24  N   UNL     1       1.868   9.370  19.443  0.00  0.00    +0.000 N 
ATOM     25  H   UNL     1       2.695   9.495  20.016  0.00  0.00    +0.000 HD
BRANCH  24  26
ATOM     26  C   UNL     1       0.588   9.941  19.853  0.00  0.00    +0.000 C 
BRANCH  26  27
ATOM     27  C   UNL     1       0.687  11.081  20.870  0.00  0.00    +0.000 C 
BRANCH  27  28
ATOM     28  C   UNL     1      -0.680  11.597  21.272  0.00  0.00    +0.000 A 
ATOM     29  C   UNL     1      -1.117  11.527  22.602  0.00  0.00    +0.000 A 
ATOM     30  C   UNL     1      -2.389  11.990  22.964  0.00  0.00    +0.000 A 
ATOM     31  C   UNL     1      -3.250  12.527  22.007  0.00  0.00    +0.000 A 
ATOM     32  C   UNL     1      -4.615  13.028  22.377  0.00  0.00    +0.000 C 
ATOM     33  C   UNL     1      -2.819  12.600  20.681  0.00  0.00    +0.000 A 
ATOM     34  C   UNL     1      -1.550  12.136  20.315  0.00  0.00    +0.000 A 
ENDBRANCH  27  28
ENDBRANCH  26  27
ENDBRANCH  24  26
ENDBRANCH  21  22
ENDBRANCH   1  21
TORSDOF 10
ENDMDL
MODEL 5
REMARK VINA RESULT:      -7.8      2.960      5.662
REMARK  Name = 
REMARK  14 active torsions:
REMARK  status: ('A' for Active; 'I' for Inactive)
REMARK    1  A    between atoms: C_1  and  C_2
REMARK    2  A    between atoms: C_2  and  O_3
REMARK    3  A    between atoms: O_3  and  C_4
REMARK    4  A    between atoms: C_7  and  N_8
REMARK    5  A    between atoms: N_8  and  C_9
REMARK    6  A    between atoms: N_8  and  S_22
REMARK    7  A    between atoms: C_9  and  C_10
REMARK    8  A    between atoms: N_12  and  C_13
REMARK    9  A    between atoms: C_13  and  C_14
REMARK   10  A    between atoms: C_14  and  C_15
REMARK   11  A    between atoms: C_18  and  C_19
REMARK   12  A    between atoms: S_22  and  C_25
REMARK   13  A    between atoms: C_26  and  C_27
REMARK   14  A    between atoms: C_30  and  C_31
REMARK                            x       y       z     vdW  Elec       q    Type
REMARK                         _______ _______ _______ _____ _____    ______ ____
ROOT
ATOM      1  N   UNL     1       3.587   4.741  17.823  0.00  0.00    +0.000 N 
ENDROOT
BRANCH   1   5
ATOM      2  C   UNL     1       6.873   5.163  15.144  0.00  0.00    +0.000 A 
ATOM      3  C   UNL     1       6.858   5.827  16.372  0.00  0.00    +0.000 A 
ATOM      4  C   UNL     1       5.799   5.667  17.270  0.00  0.00    +0.000 A 
ATOM      5  C   UNL     1       4.718   4.851  16.940  0.00  0.00    +0.000 A 
ATOM      6  C   UNL     1       4.717   4.200  15.700  0.00  0.00    +0.000 A 
ATOM      7  C   UNL     1       5.799   4.339  14.806  0.00  0.00    +0.000 A 
BRANCH   2   8
ATOM      8  O   UNL     1       7.942   5.472  14.354  0.00  0.00    +0.000 OA
BRANCH   8  10
ATOM      9  C   UNL     1       8.408   6.195  12.144  0.00  0.00    +0.000 C 
ATOM     10  C   UNL     1       7.929   5.031  12.998  0.00  0.00    +0.000 C 
ENDBRANCH   8  10
ENDBRANCH   2   8
ENDBRANCH   1   5
BRANCH   1  11
ATOM     11  S   UNL     1       3.040   3.144  18.176  0.00  0.00    +0.000 S 
ATOM     12  O   UNL     1       1.734   2.989  17.563  0.00  0.00    +0.000 OA
ATOM     13  O   UNL     1       4.107   2.216  17.850  0.00  0.00    +0.000 OA
BRANCH  11  14
ATOM     14  C   UNL     1       2.740   2.860  19.852  0.00  0.00    +0.000 A 
ATOM     15  C   UNL     1       1.652   3.248  20.689  0.00  0.00    +0.000 A 
ATOM     16  C   UNL     1       0.378   3.968  20.451  0.00  0.00    +0.000 C 
ATOM     17  N   UNL     1       1.882   2.879  21.961  0.00  0.00    +0.000 NA
ATOM     18  O   UNL     1       3.118   2.287  21.978  0.00  0.00    +0.000 OA
ATOM     19  C   UNL     1       3.636   2.278  20.726  0.00  0.00    +0.000 A 
ATOM     20  C   UNL     1       4.991   1.711  20.610  0.00  0.00    +0.000 C 
ENDBRANCH  11  14
ENDBRANCH   1  11
BRANCH   1  21
ATOM     21  C   UNL     1       2.478   5.714  17.719  0.00  0.00    +0.000 C 
BRANCH  21  22
ATOM     22  C   UNL     1       2.419   6.919  18.633  0.00  0.00    +0.000 C 
ATOM     23  O   UNL     1       2.475   8.059  18.168  0.00  0.00    +0.000 OA
ATOM     24  N   UNL     1       2.186   6.687  19.977  0.00  0.00    +0.000 N 
ATOM     25  H   UNL     1       2.390   5.771  20.362  0.00  0.00    +0.000 HD
BRANCH  24  26
ATOM     26  C   UNL     1       1.936   7.823  20.859  0.00  0.00    +0.000 C 
BRANCH  26  27
ATOM     27  C   UNL     1       0.585   7.796  21.579  0.00  0.00    +0.000 C 
BRANCH  27  28
ATOM     28  C   UNL     1      -0.040   9.174  21.656  0.00  0.00    +0.000 A 
ATOM     29  C   UNL     1      -0.232   9.945  20.501  0.00  0.00    +0.000 A 
ATOM     30  C   UNL     1      -0.795  11.226  20.580  0.00  0.00    +0.000 A 
ATOM     31  C   UNL     1      -1.172  11.763  21.811  0.00  0.00    +0.000 A 
ATOM     32  C   UNL     1      -1.776  13.133  21.914  0.00  0.00    +0.000 C 
ATOM     33  C   UNL     1      -0.983  10.999  22.963  0.00  0.00    +0.000 A 
ATOM     34  C   UNL     1      -0.419   9.720  22.889  0.00  0.00    +0.000 A 
ENDBRANCH  27  28
ENDBRANCH  26  27
ENDBRANCH  24  26
ENDBRANCH  21  22
ENDBRANCH   1  21
TORSDOF 10
ENDMDL
MODEL 6
REMARK VINA RESULT:      -7.7      2.912      7.663
REMARK  Name = 
REMARK  14 active torsions:
REMARK  status: ('A' for Active; 'I' for Inactive)
REMARK    1  A    between atoms: C_1  and  C_2
REMARK    2  A    between atoms: C_2  and  O_3
REMARK    3  A    between atoms: O_3  and  C_4
REMARK    4  A    between atoms: C_7  and  N_8
REMARK    5  A    between atoms: N_8  and  C_9
REMARK    6  A    between atoms: N_8  and  S_22
REMARK    7  A    between atoms: C_9  and  C_10
REMARK    8  A    between atoms: N_12  and  C_13
REMARK    9  A    between atoms: C_13  and  C_14
REMARK   10  A    between atoms: C_14  and  C_15
REMARK   11  A    between atoms: C_18  and  C_19
REMARK   12  A    between atoms: S_22  and  C_25
REMARK   13  A    between atoms: C_26  and  C_27
REMARK   14  A    between atoms: C_30  and  C_31
REMARK                            x       y       z     vdW  Elec       q    Type
REMARK                         _______ _______ _______ _____ _____    ______ ____
ROOT
ATOM      1  N   UNL     1       4.136   5.722  17.239  0.00  0.00    +0.000 N 
ENDROOT
BRANCH   1   5
ATOM      2  C   UNL     1       1.716   8.412  19.488  0.00  0.00    +0.000 A 
ATOM      3  C   UNL     1       2.202   7.234  20.059  0.00  0.00    +0.000 A 
ATOM      4  C   UNL     1       3.023   6.363  19.338  0.00  0.00    +0.000 A 
ATOM      5  C   UNL     1       3.356   6.649  18.015  0.00  0.00    +0.000 A 
ATOM      6  C   UNL     1       2.854   7.819  17.429  0.00  0.00    +0.000 A 
ATOM      7  C   UNL     1       2.048   8.710  18.166  0.00  0.00    +0.000 A 
BRANCH   2   8
ATOM      8  O   UNL     1       0.877   9.122  20.297  0.00  0.00    +0.000 OA
BRANCH   8  10
ATOM      9  C   UNL     1      -0.790  10.587  19.460  0.00  0.00    +0.000 C 
ATOM     10  C   UNL     1       0.635  10.492  19.983  0.00  0.00    +0.000 C 
ENDBRANCH   8  10
ENDBRANCH   2   8
ENDBRANCH   1   5
BRANCH   1  11
ATOM     11  S   UNL     1       4.567   4.242  18.012  0.00  0.00    +0.000 S 
ATOM     12  O   UNL     1       5.106   3.362  16.993  0.00  0.00    +0.000 OA
ATOM     13  O   UNL     1       5.357   4.557  19.188  0.00  0.00    +0.000 OA
BRANCH  11  14
ATOM     14  C   UNL     1       3.221   3.363  18.641  0.00  0.00    +0.000 A 
ATOM     15  C   UNL     1       1.835   3.400  18.302  0.00  0.00    +0.000 A 
ATOM     16  C   UNL     1       1.045   4.135  17.286  0.00  0.00    +0.000 C 
ATOM     17  N   UNL     1       1.130   2.597  19.118  0.00  0.00    +0.000 NA
ATOM     18  O   UNL     1       2.025   2.061  20.007  0.00  0.00    +0.000 OA
ATOM     19  C   UNL     1       3.270   2.518  19.731  0.00  0.00    +0.000 A 
ATOM     20  C   UNL     1       4.327   2.055  20.649  0.00  0.00    +0.000 C 
ENDBRANCH  11  14
ENDBRANCH   1  11
BRANCH   1  21
ATOM     21  C   UNL     1       5.200   6.229  16.344  0.00  0.00    +0.000 C 
BRANCH  21  22
ATOM     22  C   UNL     1       6.571   6.569  16.888  0.00  0.00    +0.000 C 
ATOM     23  O   UNL     1       7.544   5.864  16.613  0.00  0.00    +0.000 OA
ATOM     24  N   UNL     1       6.699   7.750  17.598  0.00  0.00    +0.000 N 
ATOM     25  H   UNL     1       5.873   8.167  18.014  0.00  0.00    +0.000 HD
BRANCH  24  26
ATOM     26  C   UNL     1       8.032   8.207  17.977  0.00  0.00    +0.000 C 
BRANCH  26  27
ATOM     27  C   UNL     1       8.471   9.524  17.330  0.00  0.00    +0.000 C 
BRANCH  27  28
ATOM     28  C   UNL     1       8.870  10.555  18.367  0.00  0.00    +0.000 A 
ATOM     29  C   UNL     1       8.878  11.922  18.060  0.00  0.00    +0.000 A 
ATOM     30  C   UNL     1       9.265  12.870  19.017  0.00  0.00    +0.000 A 
ATOM     31  C   UNL     1       9.656  12.471  20.296  0.00  0.00    +0.000 A 
ATOM     32  C   UNL     1      10.073  13.472  21.333  0.00  0.00    +0.000 C 
ATOM     33  C   UNL     1       9.649  11.110  20.606  0.00  0.00    +0.000 A 
ATOM     34  C   UNL     1       9.265  10.161  19.652  0.00  0.00    +0.000 A 
ENDBRANCH  27  28
ENDBRANCH  26  27
ENDBRANCH  24  26
ENDBRANCH  21  22
ENDBRANCH   1  21
TORSDOF 10
ENDMDL
MODEL 7
REMARK VINA RESULT:      -7.7      3.155      7.428
REMARK  Name = 
REMARK  14 active torsions:
REMARK  status: ('A' for Active; 'I' for Inactive)
REMARK    1  A    between atoms: C_1  and  C_2
REMARK    2  A    between atoms: C_2  and  O_3
REMARK    3  A    between atoms: O_3  and  C_4
REMARK    4  A    between atoms: C_7  and  N_8
REMARK    5  A    between atoms: N_8  and  C_9
REMARK    6  A    between atoms: N_8  and  S_22
REMARK    7  A    between atoms: C_9  and  C_10
REMARK    8  A    between atoms: N_12  and  C_13
REMARK    9  A    between atoms: C_13  and  C_14
REMARK   10  A    between atoms: C_14  and  C_15
REMARK   11  A    between atoms: C_18  and  C_19
REMARK   12  A    between atoms: S_22  and  C_25
REMARK   13  A    between atoms: C_26  and  C_27
REMARK   14  A    between atoms: C_30  and  C_31
REMARK                            x       y       z     vdW  Elec       q    Type
REMARK                         _______ _______ _______ _____ _____    ______ ____
ROOT
ATOM      1  N   UNL     1       3.678   5.307  17.792  0.00  0.00    +0.000 N 
ENDROOT
BRANCH   1   5
ATOM      2  C   UNL     1       1.570   8.343  19.912  0.00  0.00    +0.000 A 
ATOM      3  C   UNL     1       1.889   8.499  18.562  0.00  0.00    +0.000 A 
ATOM      4  C   UNL     1       2.550   7.494  17.852  0.00  0.00    +0.000 A 
ATOM      5  C   UNL     1       2.928   6.315  18.493  0.00  0.00    +0.000 A 
ATOM      6  C   UNL     1       2.631   6.162  19.854  0.00  0.00    +0.000 A 
ATOM      7  C   UNL     1       1.939   7.165  20.563  0.00  0.00    +0.000 A 
BRANCH   2   8
ATOM      8  O   UNL     1       0.984   9.436  20.479  0.00  0.00    +0.000 OA
BRANCH   8  10
ATOM      9  C   UNL     1      -0.328   9.607  22.448  0.00  0.00    +0.000 C 
ATOM     10  C   UNL     1       1.088   9.603  21.892  0.00  0.00    +0.000 C 
ENDBRANCH   8  10
ENDBRANCH   2   8
ENDBRANCH   1   5
BRANCH   1  11
ATOM     11  S   UNL     1       2.996   3.723  17.761  0.00  0.00    +0.000 S 
ATOM     12  O   UNL     1       1.682   3.830  17.156  0.00  0.00    +0.000 OA
ATOM     13  O   UNL     1       3.979   2.816  17.201  0.00  0.00    +0.000 OA
BRANCH  11  14
ATOM     14  C   UNL     1       2.673   3.069  19.326  0.00  0.00    +0.000 A 
ATOM     15  C   UNL     1       1.464   2.993  20.080  0.00  0.00    +0.000 A 
ATOM     16  C   UNL     1       0.058   3.379  19.809  0.00  0.00    +0.000 C 
ATOM     17  N   UNL     1       1.700   2.472  21.297  0.00  0.00    +0.000 NA
ATOM     18  O   UNL     1       3.049   2.238  21.365  0.00  0.00    +0.000 OA
ATOM     19  C   UNL     1       3.634   2.596  20.197  0.00  0.00    +0.000 A 
ATOM     20  C   UNL     1       5.099   2.441  20.154  0.00  0.00    +0.000 C 
ENDBRANCH  11  14
ENDBRANCH   1  11
BRANCH   1  21
ATOM     21  C   UNL     1       5.154   5.291  17.889  0.00  0.00    +0.000 C 
BRANCH  21  22
ATOM     22  C   UNL     1       5.977   6.432  17.331  0.00  0.00    +0.000 C 
ATOM     23  O   UNL     1       5.675   6.951  16.255  0.00  0.00    +0.000 OA
ATOM     24  N   UNL     1       6.994   6.931  18.125  0.00  0.00    +0.000 N 
ATOM     25  H   UNL     1       7.374   6.348  18.863  0.00  0.00    +0.000 HD
BRANCH  24  26
ATOM     26  C   UNL     1       7.687   8.146  17.708  0.00  0.00    +0.000 C 
BRANCH  26  27
ATOM     27  C   UNL     1       8.812   8.601  18.643  0.00  0.00    +0.000 C 
BRANCH  27  28
ATOM     28  C   UNL     1       8.902  10.111  18.721  0.00  0.00    +0.000 A 
ATOM     29  C   UNL     1       8.500  10.916  17.646  0.00  0.00    +0.000 A 
ATOM     30  C   UNL     1       8.602  12.312  17.718  0.00  0.00    +0.000 A 
ATOM     31  C   UNL     1       9.110  12.930  18.860  0.00  0.00    +0.000 A 
ATOM     32  C   UNL     1       9.226  14.424  18.954  0.00  0.00    +0.000 C 
ATOM     33  C   UNL     1       9.511  12.133  19.934  0.00  0.00    +0.000 A 
ATOM     34  C   UNL     1       9.412  10.739  19.865  0.00  0.00    +0.000 A 
ENDBRANCH  27  28
ENDBRANCH  26  27
ENDBRANCH  24  26
ENDBRANCH  21  22
ENDBRANCH   1  21
TORSDOF 10
ENDMDL
MODEL 8
REMARK VINA RESULT:      -7.7      1.827      3.551
REMARK  Name = 
REMARK  14 active torsions:
REMARK  status: ('A' for Active; 'I' for Inactive)
REMARK    1  A    between atoms: C_1  and  C_2
REMARK    2  A    between atoms: C_2  and  O_3
REMARK    3  A    between atoms: O_3  and  C_4
REMARK    4  A    between atoms: C_7  and  N_8
REMARK    5  A    between atoms: N_8  and  C_9
REMARK    6  A    between atoms: N_8  and  S_22
REMARK    7  A    between atoms: C_9  and  C_10
REMARK    8  A    between atoms: N_12  and  C_13
REMARK    9  A    between atoms: C_13  and  C_14
REMARK   10  A    between atoms: C_14  and  C_15
REMARK   11  A    between atoms: C_18  and  C_19
REMARK   12  A    between atoms: S_22  and  C_25
REMARK   13  A    between atoms: C_26  and  C_27
REMARK   14  A    between atoms: C_30  and  C_31
REMARK                            x       y       z     vdW  Elec       q    Type
REMARK                         _______ _______ _______ _____ _____    ______ ____
ROOT
ATOM      1  N   UNL     1       3.214   6.689  17.448  0.00  0.00    +0.000 N 
ENDROOT
BRANCH   1   5
ATOM      2  C   UNL     1       1.235   3.875  19.961  0.00  0.00    +0.000 A 
ATOM      3  C   UNL     1       1.857   5.004  20.498  0.00  0.00    +0.000 A 
ATOM      4  C   UNL     1       2.479   5.948  19.678  0.00  0.00    +0.000 A 
ATOM      5  C   UNL     1       2.509   5.764  18.296  0.00  0.00    +0.000 A 
ATOM      6  C   UNL     1       1.907   4.621  17.753  0.00  0.00    +0.000 A 
ATOM      7  C   UNL     1       1.255   3.683  18.580  0.00  0.00    +0.000 A 
BRANCH   2   8
ATOM      8  O   UNL     1       0.730   3.017  20.895  0.00  0.00    +0.000 OA
BRANCH   8  10
ATOM      9  C   UNL     1       2.857   2.155  21.494  0.00  0.00    +0.000 C 
ATOM     10  C   UNL     1       1.538   2.696  22.025  0.00  0.00    +0.000 C 
ENDBRANCH   8  10
ENDBRANCH   2   8
ENDBRANCH   1   5
BRANCH   1  11
ATOM     11  S   UNL     1       4.708   6.139  16.785  0.00  0.00    +0.000 S 
ATOM     12  O   UNL     1       4.496   4.787  16.304  0.00  0.00    +0.000 OA
ATOM     13  O   UNL     1       5.205   7.159  15.881  0.00  0.00    +0.000 OA
BRANCH  11  14
ATOM     14  C   UNL     1       5.970   5.966  17.949  0.00  0.00    +0.000 A 
ATOM     15  C   UNL     1       7.176   6.703  18.143  0.00  0.00    +0.000 A 
ATOM     16  C   UNL     1       7.771   7.890  17.484  0.00  0.00    +0.000 C 
ATOM     17  N   UNL     1       7.909   6.156  19.129  0.00  0.00    +0.000 NA
ATOM     18  O   UNL     1       7.219   5.054  19.561  0.00  0.00    +0.000 OA
ATOM     19  C   UNL     1       6.067   4.932  18.859  0.00  0.00    +0.000 A 
ATOM     20  C   UNL     1       5.250   3.752  19.192  0.00  0.00    +0.000 C 
ENDBRANCH  11  14
ENDBRANCH   1  11
BRANCH   1  21
ATOM     21  C   UNL     1       3.237   8.127  17.793  0.00  0.00    +0.000 C 
BRANCH  21  22
ATOM     22  C   UNL     1       1.948   8.891  18.008  0.00  0.00    +0.000 C 
ATOM     23  O   UNL     1       1.068   8.885  17.145  0.00  0.00    +0.000 OA
ATOM     24  N   UNL     1       1.760   9.488  19.242  0.00  0.00    +0.000 N 
ATOM     25  H   UNL     1       2.568   9.689  19.820  0.00  0.00    +0.000 HD
BRANCH  24  26
ATOM     26  C   UNL     1       0.459  10.071  19.556  0.00  0.00    +0.000 C 
BRANCH  26  27
ATOM     27  C   UNL     1       0.200  11.444  18.931  0.00  0.00    +0.000 C 
BRANCH  27  28
ATOM     28  C   UNL     1       1.332  12.412  19.208  0.00  0.00    +0.000 A 
ATOM     29  C   UNL     1       1.611  12.842  20.513  0.00  0.00    +0.000 A 
ATOM     30  C   UNL     1       2.649  13.750  20.762  0.00  0.00    +0.000 A 
ATOM     31  C   UNL     1       3.424  14.250  19.715  0.00  0.00    +0.000 A 
ATOM     32  C   UNL     1       4.539  15.223  19.963  0.00  0.00    +0.000 C 
ATOM     33  C   UNL     1       3.150  13.823  18.414  0.00  0.00    +0.000 A 
ATOM     34  C   UNL     1       2.113  12.918  18.161  0.00  0.00    +0.000 A 
ENDBRANCH  27  28
ENDBRANCH  26  27
ENDBRANCH  24  26
ENDBRANCH  21  22
ENDBRANCH   1  21
TORSDOF 10
ENDMDL
MODEL 9
REMARK VINA RESULT:      -7.7      2.844      7.431
REMARK  Name = 
REMARK  14 active torsions:
REMARK  status: ('A' for Active; 'I' for Inactive)
REMARK    1  A    between atoms: C_1  and  C_2
REMARK    2  A    between atoms: C_2  and  O_3
REMARK    3  A    between atoms: O_3  and  C_4
REMARK    4  A    between atoms: C_7  and  N_8
REMARK    5  A    between atoms: N_8  and  C_9
REMARK    6  A    between atoms: N_8  and  S_22
REMARK    7  A    between atoms: C_9  and  C_10
REMARK    8  A    between atoms: N_12  and  C_13
REMARK    9  A    between atoms: C_13  and  C_14
REMARK   10  A    between atoms: C_14  and  C_15
REMARK   11  A    between atoms: C_18  and  C_19
REMARK   12  A    between atoms: S_22  and  C_25
REMARK   13  A    between atoms: C_26  and  C_27
REMARK   14  A    between atoms: C_30  and  C_31
REMARK                            x       y       z     vdW  Elec       q    Type
REMARK                         _______ _______ _______ _____ _____    ______ ____
ROOT
ATOM      1  N   UNL     1       3.663   5.057  17.658  0.00  0.00    +0.000 N 
ENDROOT
BRANCH   1   5
ATOM      2  C   UNL     1       1.831   8.485  19.403  0.00  0.00    +0.000 A 
ATOM      3  C   UNL     1       2.249   7.413  20.194  0.00  0.00    +0.000 A 
ATOM      4  C   UNL     1       2.880   6.300  19.633  0.00  0.00    +0.000 A 
ATOM      5  C   UNL     1       3.084   6.231  18.256  0.00  0.00    +0.000 A 
ATOM      6  C   UNL     1       2.647   7.294  17.454  0.00  0.00    +0.000 A 
ATOM      7  C   UNL     1       2.036   8.429  18.024  0.00  0.00    +0.000 A 
BRANCH   2   8
ATOM      8  O   UNL     1       1.175   9.465  20.089  0.00  0.00    +0.000 OA
BRANCH   8  10
ATOM      9  C   UNL     1      -0.226   9.011  21.948  0.00  0.00    +0.000 C 
ATOM     10  C   UNL     1      -0.188   9.244  20.445  0.00  0.00    +0.000 C 
ENDBRANCH   8  10
ENDBRANCH   2   8
ENDBRANCH   1   5
BRANCH   1  11
ATOM     11  S   UNL     1       2.837   3.568  17.932  0.00  0.00    +0.000 S 
ATOM     12  O   UNL     1       1.465   3.748  17.498  0.00  0.00    +0.000 OA
ATOM     13  O   UNL     1       3.638   2.495  17.373  0.00  0.00    +0.000 OA
BRANCH  11  14
ATOM     14  C   UNL     1       2.686   3.147  19.600  0.00  0.00    +0.000 A 
ATOM     15  C   UNL     1       1.671   3.450  20.556  0.00  0.00    +0.000 A 
ATOM     16  C   UNL     1       0.375   4.166  20.486  0.00  0.00    +0.000 C 
ATOM     17  N   UNL     1       2.013   2.984  21.769  0.00  0.00    +0.000 NA
ATOM     18  O   UNL     1       3.251   2.412  21.632  0.00  0.00    +0.000 OA
ATOM     19  C   UNL     1       3.659   2.512  20.344  0.00  0.00    +0.000 A 
ATOM     20  C   UNL     1       5.004   1.977  20.068  0.00  0.00    +0.000 C 
ENDBRANCH  11  14
ENDBRANCH   1  11
BRANCH   1  21
ATOM     21  C   UNL     1       5.133   4.897  17.629  0.00  0.00    +0.000 C 
BRANCH  21  22
ATOM     22  C   UNL     1       6.023   6.018  17.135  0.00  0.00    +0.000 C 
ATOM     23  O   UNL     1       6.090   6.277  15.932  0.00  0.00    +0.000 OA
ATOM     24  N   UNL     1       6.651   6.799  18.089  0.00  0.00    +0.000 N 
ATOM     25  H   UNL     1       6.781   6.426  19.023  0.00  0.00    +0.000 HD
BRANCH  24  26
ATOM     26  C   UNL     1       7.364   8.000  17.664  0.00  0.00    +0.000 C 
BRANCH  26  27
ATOM     27  C   UNL     1       8.607   8.339  18.490  0.00  0.00    +0.000 C 
BRANCH  27  28
ATOM     28  C   UNL     1       8.812   9.835  18.612  0.00  0.00    +0.000 A 
ATOM     29  C   UNL     1       8.343  10.711  17.622  0.00  0.00    +0.000 A 
ATOM     30  C   UNL     1       8.550  12.093  17.732  0.00  0.00    +0.000 A 
ATOM     31  C   UNL     1       9.231  12.626  18.826  0.00  0.00    +0.000 A 
ATOM     32  C   UNL     1       9.462  14.103  18.959  0.00  0.00    +0.000 C 
ATOM     33  C   UNL     1       9.699  11.757  19.814  0.00  0.00    +0.000 A 
ATOM     34  C   UNL     1       9.496  10.377  19.707  0.00  0.00    +0.000 A 
ENDBRANCH  27  28
ENDBRANCH  26  27
ENDBRANCH  24  26
ENDBRANCH  21  22
ENDBRANCH   1  21
TORSDOF 10
ENDMDL
