MODEL 1
REMARK VINA RESULT:      -6.8      0.000      0.000
REMARK  Name = 
REMARK  6 active torsions:
REMARK  status: ('A' for Active; 'I' for Inactive)
REMARK    1  A    between atoms: C_1  and  C_2
REMARK    2  A    between atoms: C_2  and  C_3
REMARK    3  A    between atoms: C_3  and  C_4
REMARK    4  A    between atoms: C_4  and  N_5
REMARK    5  A    between atoms: N_7  and  C_8
REMARK    6  A    between atoms: C_11  and  C_12
REMARK                            x       y       z     vdW  Elec       q    Type
REMARK                         _______ _______ _______ _____ _____    ______ ____
ROOT
ATOM      1  C   UNL     1       5.510   4.950  16.947  0.00  0.00    +0.000 A 
ATOM      2  C   UNL     1       5.627   5.304  18.302  0.00  0.00    +0.000 A 
ATOM      3  C   UNL     1       4.699   4.845  19.237  0.00  0.00    +0.000 A 
ATOM      4  C   UNL     1       3.636   4.013  18.842  0.00  0.00    +0.000 A 
ATOM      5  C   UNL     1       3.528   3.650  17.486  0.00  0.00    +0.000 A 
ATOM      6  C   UNL     1       4.453   4.123  16.547  0.00  0.00    +0.000 A 
ENDROOT
BRANCH   4   7
ATOM      7  C   UNL     1       2.634   3.543  19.828  0.00  0.00    +0.000 A 
ATOM      8  C   UNL     1       1.255   3.629  19.725  0.00  0.00    +0.000 A 
ATOM      9  N   UNL     1       0.722   3.069  20.820  0.00  0.00    +0.000 N 
ATOM     10  C   UNL     1       1.760   2.657  21.568  0.00  0.00    +0.000 A 
ATOM     11  N   UNL     1       2.949   2.927  20.988  0.00  0.00    +0.000 NA
ATOM     12  H   UNL     1      -0.295   2.974  21.040  0.00  0.00    +0.000 HD
ENDBRANCH   4   7
BRANCH   1  15
ATOM     13  N   UNL     1       7.612   5.305  13.942  0.00  0.00    +0.000 N 
ATOM     14  C   UNL     1       6.651   4.814  14.863  0.00  0.00    +0.000 C 
ATOM     15  N   UNL     1       6.435   5.427  15.975  0.00  0.00    +0.000 NA
ATOM     16  H   UNL     1       8.281   6.035  14.234  0.00  0.00    +0.000 HD
BRANCH  13  17
ATOM     17  C   UNL     1       7.614   4.846  12.568  0.00  0.00    +0.000 C 
BRANCH  17  18
ATOM     18  C   UNL     1       6.595   3.727  12.324  0.00  0.00    +0.000 C 
BRANCH  18  20
ATOM     19  C   UNL     1       6.121   1.432  11.267  0.00  0.00    +0.000 C 
ATOM     20  C   UNL     1       7.108   2.594  11.416  0.00  0.00    +0.000 C 
ENDBRANCH  18  20
ENDBRANCH  17  18
ENDBRANCH  13  17
ENDBRANCH   1  15
TORSDOF 5
ENDMDL
MODEL 2
REMARK VINA RESULT:      -6.6      0.174      1.135
REMARK  Name = 
REMARK  6 active torsions:
REMARK  status: ('A' for Active; 'I' for Inactive)
REMARK    1  A    between atoms: C_1  and  C_2
REMARK    2  A    between atoms: C_2  and  C_3
REMARK    3  A    between atoms: C_3  and  C_4
REMARK    4  A    between atoms: C_4  and  N_5
REMARK    5  A    between atoms: N_7  and  C_8
REMARK    6  A    between atoms: C_11  and  C_12
REMARK                            x       y       z     vdW  Elec       q    Type
REMARK                         _______ _______ _______ _____ _____    ______ ____
ROOT
ATOM      1  C   UNL     1       5.463   4.965  16.934  0.00  0.00    +0.000 A 
ATOM      2  C   UNL     1       4.583   3.913  16.625  0.00  0.00    +0.000 A 
ATOM      3  C   UNL     1       3.649   3.472  17.563  0.00  0.00    +0.000 A 
ATOM      4  C   UNL     1       3.565   4.078  18.829  0.00  0.00    +0.000 A 
ATOM      5  C   UNL     1       4.438   5.140  19.131  0.00  0.00    +0.000 A 
ATOM      6  C   UNL     1       5.385   5.572  18.193  0.00  0.00    +0.000 A 
ENDROOT
BRANCH   4   7
ATOM      7  C   UNL     1       2.591   3.597  19.837  0.00  0.00    +0.000 A 
ATOM      8  C   UNL     1       1.210   3.675  19.770  0.00  0.00    +0.000 A 
ATOM      9  N   UNL     1       0.708   3.106  20.875  0.00  0.00    +0.000 N 
ATOM     10  C   UNL     1       1.767   2.696  21.594  0.00  0.00    +0.000 A 
ATOM     11  N   UNL     1       2.940   2.977  20.985  0.00  0.00    +0.000 NA
ATOM     12  H   UNL     1      -0.302   3.003  21.121  0.00  0.00    +0.000 HD
ENDBRANCH   4   7
BRANCH   1  15
ATOM     13  N   UNL     1       7.625   5.302  13.969  0.00  0.00    +0.000 N 
ATOM     14  C   UNL     1       6.614   4.845  14.855  0.00  0.00    +0.000 C 
ATOM     15  N   UNL     1       6.437   5.413  15.997  0.00  0.00    +0.000 NA
ATOM     16  H   UNL     1       8.349   5.955  14.306  0.00  0.00    +0.000 HD
BRANCH  13  17
ATOM     17  C   UNL     1       7.605   4.920  12.572  0.00  0.00    +0.000 C 
BRANCH  17  18
ATOM     18  C   UNL     1       6.627   3.772  12.294  0.00  0.00    +0.000 C 
BRANCH  18  20
ATOM     19  C   UNL     1       6.326   1.426  11.287  0.00  0.00    +0.000 C 
ATOM     20  C   UNL     1       7.167   2.705  11.322  0.00  0.00    +0.000 C 
ENDBRANCH  18  20
ENDBRANCH  17  18
ENDBRANCH  13  17
ENDBRANCH   1  15
TORSDOF 5
ENDMDL
MODEL 3
REMARK VINA RESULT:      -6.5      0.907      1.194
REMARK  Name = 
REMARK  6 active torsions:
REMARK  status: ('A' for Active; 'I' for Inactive)
REMARK    1  A    between atoms: C_1  and  C_2
REMARK    2  A    between atoms: C_2  and  C_3
REMARK    3  A    between atoms: C_3  and  C_4
REMARK    4  A    between atoms: C_4  and  N_5
REMARK    5  A    between atoms: N_7  and  C_8
REMARK    6  A    between atoms: C_11  and  C_12
REMARK                            x       y       z     vdW  Elec       q    Type
REMARK                         _______ _______ _______ _____ _____    ______ ____
ROOT
ATOM      1  C   UNL     1       5.383   4.332  16.871  0.00  0.00    +0.000 A 
ATOM      2  C   UNL     1       5.837   4.359  18.201  0.00  0.00    +0.000 A 
ATOM      3  C   UNL     1       4.988   3.998  19.248  0.00  0.00    +0.000 A 
ATOM      4  C   UNL     1       3.668   3.591  18.990  0.00  0.00    +0.000 A 
ATOM      5  C   UNL     1       3.219   3.551  17.656  0.00  0.00    +0.000 A 
ATOM      6  C   UNL     1       4.068   3.928  16.608  0.00  0.00    +0.000 A 
ENDROOT
BRANCH   4   7
ATOM      7  C   UNL     1       2.755   3.229  20.100  0.00  0.00    +0.000 A 
ATOM      8  C   UNL     1       3.105   2.719  21.339  0.00  0.00    +0.000 A 
ATOM      9  N   UNL     1       1.982   2.552  22.052  0.00  0.00    +0.000 N 
ATOM     10  C   UNL     1       0.975   2.953  21.256  0.00  0.00    +0.000 A 
ATOM     11  N   UNL     1       1.413   3.379  20.052  0.00  0.00    +0.000 NA
ATOM     12  H   UNL     1       1.911   2.186  23.028  0.00  0.00    +0.000 HD
ENDBRANCH   4   7
BRANCH   1  15
ATOM     13  N   UNL     1       7.097   4.520  13.615  0.00  0.00    +0.000 N 
ATOM     14  C   UNL     1       6.207   4.127  14.648  0.00  0.00    +0.000 C 
ATOM     15  N   UNL     1       6.228   4.718  15.793  0.00  0.00    +0.000 NA
ATOM     16  H   UNL     1       7.894   5.140  13.829  0.00  0.00    +0.000 HD
BRANCH  13  17
ATOM     17  C   UNL     1       6.852   4.120  12.244  0.00  0.00    +0.000 C 
BRANCH  17  18
ATOM     18  C   UNL     1       5.556   3.315  12.092  0.00  0.00    +0.000 C 
BRANCH  18  20
ATOM     19  C   UNL     1       7.194   1.605  11.092  0.00  0.00    +0.000 C 
ATOM     20  C   UNL     1       5.762   1.886  11.556  0.00  0.00    +0.000 C 
ENDBRANCH  18  20
ENDBRANCH  17  18
ENDBRANCH  13  17
ENDBRANCH   1  15
TORSDOF 5
ENDMDL
MODEL 4
REMARK VINA RESULT:      -6.5      3.662      8.715
REMARK  Name = 
REMARK  6 active torsions:
REMARK  status: ('A' for Active; 'I' for Inactive)
REMARK    1  A    between atoms: C_1  and  C_2
REMARK    2  A    between atoms: C_2  and  C_3
REMARK    3  A    between atoms: C_3  and  C_4
REMARK    4  A    between atoms: C_4  and  N_5
REMARK    5  A    between atoms: N_7  and  C_8
REMARK    6  A    between atoms: C_11  and  C_12
REMARK                            x       y       z     vdW  Elec       q    Type
REMARK                         _______ _______ _______ _____ _____    ______ ____
ROOT
ATOM      1  C   UNL     1       3.647   5.809  18.152  0.00  0.00    +0.000 A 
ATOM      2  C   UNL     1       4.326   6.798  17.419  0.00  0.00    +0.000 A 
ATOM      3  C   UNL     1       5.070   6.456  16.289  0.00  0.00    +0.000 A 
ATOM      4  C   UNL     1       5.146   5.120  15.859  0.00  0.00    +0.000 A 
ATOM      5  C   UNL     1       4.454   4.134  16.587  0.00  0.00    +0.000 A 
ATOM      6  C   UNL     1       3.719   4.476  17.729  0.00  0.00    +0.000 A 
ENDROOT
BRANCH   4   7
ATOM      7  C   UNL     1       5.956   4.749  14.674  0.00  0.00    +0.000 A 
ATOM      8  C   UNL     1       5.708   3.722  13.779  0.00  0.00    +0.000 A 
ATOM      9  N   UNL     1       6.669   3.744  12.845  0.00  0.00    +0.000 N 
ATOM     10  C   UNL     1       7.481   4.764  13.173  0.00  0.00    +0.000 A 
ATOM     11  N   UNL     1       7.071   5.407  14.288  0.00  0.00    +0.000 NA
ATOM     12  H   UNL     1       6.762   3.098  12.029  0.00  0.00    +0.000 HD
ENDBRANCH   4   7
BRANCH   1  15
ATOM     13  N   UNL     1       1.715   7.603  20.726  0.00  0.00    +0.000 N 
ATOM     14  C   UNL     1       2.418   7.312  19.528  0.00  0.00    +0.000 C 
ATOM     15  N   UNL     1       2.900   6.136  19.319  0.00  0.00    +0.000 NA
ATOM     16  H   UNL     1       1.751   6.944  21.519  0.00  0.00    +0.000 HD
BRANCH  13  17
ATOM     17  C   UNL     1       0.879   8.783  20.819  0.00  0.00    +0.000 C 
BRANCH  17  18
ATOM     18  C   UNL     1      -0.265   8.612  21.825  0.00  0.00    +0.000 C 
BRANCH  18  20
ATOM     19  C   UNL     1      -1.061  10.702  23.091  0.00  0.00    +0.000 C 
ATOM     20  C   UNL     1      -0.131   9.486  23.086  0.00  0.00    +0.000 C 
ENDBRANCH  18  20
ENDBRANCH  17  18
ENDBRANCH  13  17
ENDBRANCH   1  15
TORSDOF 5
ENDMDL
MODEL 5
REMARK VINA RESULT:      -6.4      4.210      6.094
REMARK  Name = 
REMARK  6 active torsions:
REMARK  status: ('A' for Active; 'I' for Inactive)
REMARK    1  A    between atoms: C_1  and  C_2
REMARK    2  A    between atoms: C_2  and  C_3
REMARK    3  A    between atoms: C_3  and  C_4
REMARK    4  A    between atoms: C_4  and  N_5
REMARK    5  A    between atoms: N_7  and  C_8
REMARK    6  A    between atoms: C_11  and  C_12
REMARK                            x       y       z     vdW  Elec       q    Type
REMARK                         _______ _______ _______ _____ _____    ______ ____
ROOT
ATOM      1  C   UNL     1       6.195   6.533  17.335  0.00  0.00    +0.000 A 
ATOM      2  C   UNL     1       4.833   6.760  17.069  0.00  0.00    +0.000 A 
ATOM      3  C   UNL     1       3.887   5.767  17.325  0.00  0.00    +0.000 A 
ATOM      4  C   UNL     1       4.277   4.527  17.861  0.00  0.00    +0.000 A 
ATOM      5  C   UNL     1       5.639   4.308  18.139  0.00  0.00    +0.000 A 
ATOM      6  C   UNL     1       6.590   5.300  17.869  0.00  0.00    +0.000 A 
ENDROOT
BRANCH   4   7
ATOM      7  C   UNL     1       3.278   3.460  18.111  0.00  0.00    +0.000 A 
ATOM      8  C   UNL     1       3.502   2.094  18.139  0.00  0.00    +0.000 A 
ATOM      9  N   UNL     1       2.340   1.488  18.418  0.00  0.00    +0.000 N 
ATOM     10  C   UNL     1       1.433   2.471  18.554  0.00  0.00    +0.000 A 
ATOM     11  N   UNL     1       1.975   3.696  18.377  0.00  0.00    +0.000 NA
ATOM     12  H   UNL     1       2.178   0.461  18.511  0.00  0.00    +0.000 HD
ENDBRANCH   4   7
BRANCH   1  15
ATOM     13  N   UNL     1       8.470   9.421  17.588  0.00  0.00    +0.000 N 
ATOM     14  C   UNL     1       7.515   8.425  17.920  0.00  0.00    +0.000 C 
ATOM     15  N   UNL     1       7.177   7.527  17.061  0.00  0.00    +0.000 NA
ATOM     16  H   UNL     1       8.754   9.556  16.605  0.00  0.00    +0.000 HD
BRANCH  13  17
ATOM     17  C   UNL     1       9.110  10.201  18.628  0.00  0.00    +0.000 C 
BRANCH  17  18
ATOM     18  C   UNL     1       9.983  11.326  18.061  0.00  0.00    +0.000 C 
BRANCH  18  20
ATOM     19  C   UNL     1      11.045  11.910  20.328  0.00  0.00    +0.000 C 
ATOM     20  C   UNL     1      11.281  11.576  18.852  0.00  0.00    +0.000 C 
ENDBRANCH  18  20
ENDBRANCH  17  18
ENDBRANCH  13  17
ENDBRANCH   1  15
TORSDOF 5
ENDMDL
MODEL 6
REMARK VINA RESULT:      -6.3      1.605      7.580
REMARK  Name = 
REMARK  6 active torsions:
REMARK  status: ('A' for Active; 'I' for Inactive)
REMARK    1  A    between atoms: C_1  and  C_2
REMARK    2  A    between atoms: C_2  and  C_3
REMARK    3  A    between atoms: C_3  and  C_4
REMARK    4  A    between atoms: C_4  and  N_5
REMARK    5  A    between atoms: N_7  and  C_8
REMARK    6  A    between atoms: C_11  and  C_12
REMARK                            x       y       z     vdW  Elec       q    Type
REMARK                         _______ _______ _______ _____ _____    ______ ____
ROOT
ATOM      1  C   UNL     1       4.655   5.317  17.898  0.00  0.00    +0.000 A 
ATOM      2  C   UNL     1       4.982   4.016  17.476  0.00  0.00    +0.000 A 
ATOM      3  C   UNL     1       5.577   3.804  16.232  0.00  0.00    +0.000 A 
ATOM      4  C   UNL     1       5.868   4.886  15.384  0.00  0.00    +0.000 A 
ATOM      5  C   UNL     1       5.552   6.188  15.815  0.00  0.00    +0.000 A 
ATOM      6  C   UNL     1       4.943   6.399  17.058  0.00  0.00    +0.000 A 
ENDROOT
BRANCH   4   7
ATOM      7  C   UNL     1       6.477   4.663  14.051  0.00  0.00    +0.000 A 
ATOM      8  C   UNL     1       6.124   3.700  13.120  0.00  0.00    +0.000 A 
ATOM      9  N   UNL     1       6.908   3.855  12.044  0.00  0.00    +0.000 N 
ATOM     10  C   UNL     1       7.718   4.891  12.323  0.00  0.00    +0.000 A 
ATOM     11  N   UNL     1       7.479   5.414  13.545  0.00  0.00    +0.000 NA
ATOM     12  H   UNL     1       6.887   3.286  11.169  0.00  0.00    +0.000 HD
ENDBRANCH   4   7
BRANCH   1  15
ATOM     13  N   UNL     1       2.681   4.949  20.987  0.00  0.00    +0.000 N 
ATOM     14  C   UNL     1       3.320   4.657  19.755  0.00  0.00    +0.000 C 
ATOM     15  N   UNL     1       4.029   5.551  19.155  0.00  0.00    +0.000 NA
ATOM     16  H   UNL     1       2.612   5.925  21.315  0.00  0.00    +0.000 HD
BRANCH  13  17
ATOM     17  C   UNL     1       2.189   3.878  21.831  0.00  0.00    +0.000 C 
BRANCH  17  18
ATOM     18  C   UNL     1       1.741   2.655  21.022  0.00  0.00    +0.000 C 
BRANCH  18  20
ATOM     19  C   UNL     1       0.817   2.302  18.650  0.00  0.00    +0.000 C 
ATOM     20  C   UNL     1       0.603   2.942  20.024  0.00  0.00    +0.000 C 
ENDBRANCH  18  20
ENDBRANCH  17  18
ENDBRANCH  13  17
ENDBRANCH   1  15
TORSDOF 5
ENDMDL
MODEL 7
REMARK VINA RESULT:      -6.3      1.058      1.297
REMARK  Name = 
REMARK  6 active torsions:
REMARK  status: ('A' for Active; 'I' for Inactive)
REMARK    1  A    between atoms: C_1  and  C_2
REMARK    2  A    between atoms: C_2  and  C_3
REMARK    3  A    between atoms: C_3  and  C_4
REMARK    4  A    between atoms: C_4  and  N_5
REMARK    5  A    between atoms: N_7  and  C_8
REMARK    6  A    between atoms: C_11  and  C_12
REMARK                            x       y       z     vdW  Elec       q    Type
REMARK                         _______ _______ _______ _____ _____    ______ ____
ROOT
ATOM      1  C   UNL     1       5.736   4.593  16.830  0.00  0.00    +0.000 A 
ATOM      2  C   UNL     1       6.072   4.775  18.183  0.00  0.00    +0.000 A 
ATOM      3  C   UNL     1       5.188   4.387  19.190  0.00  0.00    +0.000 A 
ATOM      4  C   UNL     1       3.952   3.799  18.870  0.00  0.00    +0.000 A 
ATOM      5  C   UNL     1       3.624   3.605  17.516  0.00  0.00    +0.000 A 
ATOM      6  C   UNL     1       4.506   4.008  16.505  0.00  0.00    +0.000 A 
ENDROOT
BRANCH   4   7
ATOM      7  C   UNL     1       3.000   3.407  19.937  0.00  0.00    +0.000 A 
ATOM      8  C   UNL     1       3.284   2.708  21.098  0.00  0.00    +0.000 A 
ATOM      9  N   UNL     1       2.148   2.582  21.797  0.00  0.00    +0.000 N 
ATOM     10  C   UNL     1       1.196   3.193  21.069  0.00  0.00    +0.000 A 
ATOM     11  N   UNL     1       1.685   3.715  19.923  0.00  0.00    +0.000 NA
ATOM     12  H   UNL     1       2.031   2.107  22.720  0.00  0.00    +0.000 HD
ENDBRANCH   4   7
BRANCH   1  15
ATOM     13  N   UNL     1       7.476   4.929  13.600  0.00  0.00    +0.000 N 
ATOM     14  C   UNL     1       6.552   4.521  14.596  0.00  0.00    +0.000 C 
ATOM     15  N   UNL     1       6.616   5.003  15.788  0.00  0.00    +0.000 NA
ATOM     16  H   UNL     1       8.321   5.459  13.866  0.00  0.00    +0.000 HD
BRANCH  13  17
ATOM     17  C   UNL     1       7.206   4.676  12.199  0.00  0.00    +0.000 C 
BRANCH  17  18
ATOM     18  C   UNL     1       6.545   3.312  11.968  0.00  0.00    +0.000 C 
BRANCH  18  20
ATOM     19  C   UNL     1       4.179   3.396  10.967  0.00  0.00    +0.000 C 
ATOM     20  C   UNL     1       5.028   3.293  12.237  0.00  0.00    +0.000 C 
ENDBRANCH  18  20
ENDBRANCH  17  18
ENDBRANCH  13  17
ENDBRANCH   1  15
TORSDOF 5
ENDMDL
MODEL 8
REMARK VINA RESULT:      -6.3      4.929      6.602
REMARK  Name = 
REMARK  6 active torsions:
REMARK  status: ('A' for Active; 'I' for Inactive)
REMARK    1  A    between atoms: C_1  and  C_2
REMARK    2  A    between atoms: C_2  and  C_3
REMARK    3  A    between atoms: C_3  and  C_4
REMARK    4  A    between atoms: C_4  and  N_5
REMARK    5  A    between atoms: N_7  and  C_8
REMARK    6  A    between atoms: C_11  and  C_12
REMARK                            x       y       z     vdW  Elec       q    Type
REMARK                         _______ _______ _______ _____ _____    ______ ____
ROOT
ATOM      1  C   UNL     1       7.437   7.366  17.814  0.00  0.00    +0.000 A 
ATOM      2  C   UNL     1       7.806   6.403  18.768  0.00  0.00    +0.000 A 
ATOM      3  C   UNL     1       7.004   5.282  18.989  0.00  0.00    +0.000 A 
ATOM      4  C   UNL     1       5.820   5.094  18.257  0.00  0.00    +0.000 A 
ATOM      5  C   UNL     1       5.459   6.054  17.293  0.00  0.00    +0.000 A 
ATOM      6  C   UNL     1       6.257   7.184  17.081  0.00  0.00    +0.000 A 
ENDROOT
BRANCH   4   7
ATOM      7  C   UNL     1       4.952   3.917  18.507  0.00  0.00    +0.000 A 
ATOM      8  C   UNL     1       4.031   3.357  17.638  0.00  0.00    +0.000 A 
ATOM      9  N   UNL     1       3.477   2.299  18.245  0.00  0.00    +0.000 N 
ATOM     10  C   UNL     1       4.053   2.225  19.458  0.00  0.00    +0.000 A 
ATOM     11  N   UNL     1       4.967   3.201  19.651  0.00  0.00    +0.000 NA
ATOM     12  H   UNL     1       2.748   1.663  17.851  0.00  0.00    +0.000 HD
ENDBRANCH   4   7
BRANCH   1  15
ATOM     13  N   UNL     1       9.316  10.505  18.256  0.00  0.00    +0.000 N 
ATOM     14  C   UNL     1       8.556   9.339  18.534  0.00  0.00    +0.000 C 
ATOM     15  N   UNL     1       8.231   8.527  17.589  0.00  0.00    +0.000 NA
ATOM     16  H   UNL     1       9.446  10.816  17.281  0.00  0.00    +0.000 HD
BRANCH  13  17
ATOM     17  C   UNL     1       9.978  11.223  19.327  0.00  0.00    +0.000 C 
BRANCH  17  18
ATOM     18  C   UNL     1      10.817  12.398  18.812  0.00  0.00    +0.000 C 
BRANCH  18  20
ATOM     19  C   UNL     1      11.528  13.423  16.564  0.00  0.00    +0.000 C 
ATOM     20  C   UNL     1      10.369  12.939  17.441  0.00  0.00    +0.000 C 
ENDBRANCH  18  20
ENDBRANCH  17  18
ENDBRANCH  13  17
ENDBRANCH   1  15
TORSDOF 5
ENDMDL
MODEL 9
REMARK VINA RESULT:      -6.3      5.452      7.698
REMARK  Name = 
REMARK  6 active torsions:
REMARK  status: ('A' for Active; 'I' for Inactive)
REMARK    1  A    between atoms: C_1  and  C_2
REMARK    2  A    between atoms: C_2  and  C_3
REMARK    3  A    between atoms: C_3  and  C_4
REMARK    4  A    between atoms: C_4  and  N_5
REMARK    5  A    between atoms: N_7  and  C_8
REMARK    6  A    between atoms: C_11  and  C_12
REMARK                            x       y       z     vdW  Elec       q    Type
REMARK                         _______ _______ _______ _____ _____    ______ ____
ROOT
ATOM      1  C   UNL     1       2.191   8.382  18.537  0.00  0.00    +0.000 A 
ATOM      2  C   UNL     1       3.049   7.770  17.606  0.00  0.00    +0.000 A 
ATOM      3  C   UNL     1       3.577   6.503  17.857  0.00  0.00    +0.000 A 
ATOM      4  C   UNL     1       3.253   5.814  19.039  0.00  0.00    +0.000 A 
ATOM      5  C   UNL     1       2.384   6.424  19.963  0.00  0.00    +0.000 A 
ATOM      6  C   UNL     1       1.865   7.701  19.716  0.00  0.00    +0.000 A 
ENDROOT
BRANCH   4   7
ATOM      7  C   UNL     1       3.832   4.478  19.321  0.00  0.00    +0.000 A 
ATOM      8  C   UNL     1       5.086   4.017  18.961  0.00  0.00    +0.000 A 
ATOM      9  N   UNL     1       5.219   2.767  19.426  0.00  0.00    +0.000 N 
ATOM     10  C   UNL     1       4.065   2.481  20.053  0.00  0.00    +0.000 A 
ATOM     11  N   UNL     1       3.191   3.510  20.012  0.00  0.00    +0.000 NA
ATOM     12  H   UNL     1       6.053   2.147  19.321  0.00  0.00    +0.000 HD
ENDBRANCH   4   7
BRANCH   1  15
ATOM     13  N   UNL     1      -0.086  11.249  18.122  0.00  0.00    +0.000 N 
ATOM     14  C   UNL     1       0.402   9.946  18.399  0.00  0.00    +0.000 C 
ATOM     15  N   UNL     1       1.660   9.683  18.308  0.00  0.00    +0.000 NA
ATOM     16  H   UNL     1       0.523  11.941  17.659  0.00  0.00    +0.000 HD
BRANCH  13  17
ATOM     17  C   UNL     1      -1.412  11.643  18.553  0.00  0.00    +0.000 C 
BRANCH  17  18
ATOM     18  C   UNL     1      -2.452  11.522  17.433  0.00  0.00    +0.000 C 
BRANCH  18  20
ATOM     19  C   UNL     1      -2.881   9.801  15.573  0.00  0.00    +0.000 C 
ATOM     20  C   UNL     1      -2.833  10.072  17.080  0.00  0.00    +0.000 C 
ENDBRANCH  18  20
ENDBRANCH  17  18
ENDBRANCH  13  17
ENDBRANCH   1  15
TORSDOF 5
ENDMDL
