MODEL 1
REMARK VINA RESULT:      -9.8      0.000      0.000
REMARK  Name = 
REMARK  8 active torsions:
REMARK  status: ('A' for Active; 'I' for Inactive)
REMARK    1  A    between atoms: C_1  and  C_2
REMARK    2  A    between atoms: C_7  and  C_8
REMARK    3  A    between atoms: C_10  and  C_11
REMARK    4  A    between atoms: C_11  and  O_12
REMARK    5  A    between atoms: O_12  and  C_13
REMARK    6  A    between atoms: C_13  and  C_14
REMARK    7  A    between atoms: C_14  and  C_15
REMARK    8  A    between atoms: C_27  and  C_28
REMARK                            x       y       z     vdW  Elec       q    Type
REMARK                         _______ _______ _______ _____ _____    ______ ____
ROOT
ATOM      1  C   UNL     1       3.931   4.896  17.486  0.00  0.00    +0.000 A 
ATOM      2  C   UNL     1       3.529   6.156  17.990  0.00  0.00    +0.000 A 
ATOM      3  C   UNL     1       2.524   6.311  18.980  0.00  0.00    +0.000 A 
ATOM      4  C   UNL     1       1.816   5.177  19.389  0.00  0.00    +0.000 A 
ATOM      5  C   UNL     1       2.157   3.911  18.890  0.00  0.00    +0.000 A 
ATOM      6  C   UNL     1       3.237   3.788  17.990  0.00  0.00    +0.000 A 
ENDROOT
BRANCH   1  13
ATOM      7  C   UNL     1       6.978   5.223  18.220  0.00  0.00    +0.000 C 
ATOM      8  C   UNL     1       6.451   4.919  16.841  0.00  0.00    +0.000 A 
ATOM      9  C   UNL     1       7.428   4.808  15.824  0.00  0.00    +0.000 A 
ATOM     10  C   UNL     1       7.084   4.501  14.509  0.00  0.00    +0.000 A 
ATOM     11  C   UNL     1       5.752   4.319  14.183  0.00  0.00    +0.000 A 
ATOM     12  C   UNL     1       4.771   4.453  15.171  0.00  0.00    +0.000 A 
ATOM     13  C   UNL     1       5.073   4.758  16.522  0.00  0.00    +0.000 A 
ENDBRANCH   1  13
BRANCH   5  14
ATOM     14  C   UNL     1       1.390   2.670  19.271  0.00  0.00    +0.000 C 
ATOM     15  F   UNL     1       2.134   1.530  19.259  0.00  0.00    +0.000 F 
ATOM     16  F   UNL     1       0.866   2.756  20.528  0.00  0.00    +0.000 F 
ATOM     17  F   UNL     1       0.329   2.437  18.449  0.00  0.00    +0.000 F 
ENDBRANCH   5  14
BRANCH   3  18
ATOM     18  C   UNL     1       2.209   7.696  19.507  0.00  0.00    +0.000 C 
BRANCH  18  19
ATOM     19  O   UNL     1       1.529   8.512  18.543  0.00  0.00    +0.000 OA
BRANCH  19  20
ATOM     20  C   UNL     1       1.743   9.915  18.791  0.00  0.00    +0.000 C 
BRANCH  20  21
ATOM     21  C   UNL     1       0.401  10.702  19.061  0.00  0.00    +0.000 C 
ATOM     22  C   UNL     1       0.662  12.165  18.600  0.00  0.00    +0.000 C 
ATOM     23  C   UNL     1      -0.556  12.999  18.189  0.00  0.00    +0.000 C 
ATOM     24  N   UNL     1      -1.631  12.313  17.487  0.00  0.00    +0.000 NA
ATOM     25  C   UNL     1      -1.909  10.954  17.919  0.00  0.00    +0.000 C 
ATOM     26  C   UNL     1      -0.671  10.086  18.123  0.00  0.00    +0.000 C 
ATOM     27  H   UNL     1      -1.495  12.359  16.479  0.00  0.00    +0.000 HD
BRANCH  21  28
ATOM     28  C   UNL     1      -0.056  10.580  20.541  0.00  0.00    +0.000 A 
ATOM     29  C   UNL     1      -0.125   9.340  21.202  0.00  0.00    +0.000 A 
ATOM     30  C   UNL     1      -0.566   9.219  22.524  0.00  0.00    +0.000 A 
ATOM     31  C   UNL     1      -0.939  10.346  23.241  0.00  0.00    +0.000 A 
ATOM     32  C   UNL     1      -0.848  11.592  22.636  0.00  0.00    +0.000 A 
ATOM     33  C   UNL     1      -0.409  11.707  21.310  0.00  0.00    +0.000 A 
ENDBRANCH  21  28
ENDBRANCH  20  21
ENDBRANCH  19  20
ENDBRANCH  18  19
ENDBRANCH   3  18
TORSDOF 7
ENDMDL
MODEL 2
REMARK VINA RESULT:      -9.6      3.365      8.871
REMARK  Name = 
REMARK  8 active torsions:
REMARK  status: ('A' for Active; 'I' for Inactive)
REMARK    1  A    between atoms: C_1  and  C_2
REMARK    2  A    between atoms: C_7  and  C_8
REMARK    3  A    between atoms: C_10  and  C_11
REMARK    4  A    between atoms: C_11  and  O_12
REMARK    5  A    between atoms: O_12  and  C_13
REMARK    6  A    between atoms: C_13  and  C_14
REMARK    7  A    between atoms: C_14  and  C_15
REMARK    8  A    between atoms: C_27  and  C_28
REMARK                            x       y       z     vdW  Elec       q    Type
REMARK                         _______ _______ _______ _____ _____    ______ ____
ROOT
ATOM      1  C   UNL     1      -0.852  10.010  18.597  0.00  0.00    +0.000 A 
ATOM      2  C   UNL     1       0.337   9.565  17.973  0.00  0.00    +0.000 A 
ATOM      3  C   UNL     1       1.437   9.027  18.691  0.00  0.00    +0.000 A 
ATOM      4  C   UNL     1       1.391   9.049  20.088  0.00  0.00    +0.000 A 
ATOM      5  C   UNL     1       0.245   9.513  20.751  0.00  0.00    +0.000 A 
ATOM      6  C   UNL     1      -0.870   9.936  19.997  0.00  0.00    +0.000 A 
ENDROOT
BRANCH   1  13
ATOM      7  C   UNL     1      -2.950  12.166  19.538  0.00  0.00    +0.000 C 
ATOM      8  C   UNL     1      -2.999  11.429  18.223  0.00  0.00    +0.000 A 
ATOM      9  C   UNL     1      -4.102  11.737  17.392  0.00  0.00    +0.000 A 
ATOM     10  C   UNL     1      -4.258  11.152  16.137  0.00  0.00    +0.000 A 
ATOM     11  C   UNL     1      -3.323  10.232  15.699  0.00  0.00    +0.000 A 
ATOM     12  C   UNL     1      -2.242   9.895  16.520  0.00  0.00    +0.000 A 
ATOM     13  C   UNL     1      -2.039  10.468  17.802  0.00  0.00    +0.000 A 
ENDBRANCH   1  13
BRANCH   5  14
ATOM     14  C   UNL     1       0.172   9.595  22.256  0.00  0.00    +0.000 C 
ATOM     15  F   UNL     1      -0.764   8.777  22.812  0.00  0.00    +0.000 F 
ATOM     16  F   UNL     1       1.356   9.258  22.846  0.00  0.00    +0.000 F 
ATOM     17  F   UNL     1      -0.113  10.851  22.699  0.00  0.00    +0.000 F 
ENDBRANCH   5  14
BRANCH   3  18
ATOM     18  C   UNL     1       2.642   8.514  17.928  0.00  0.00    +0.000 C 
BRANCH  18  19
ATOM     19  O   UNL     1       3.133   7.268  18.444  0.00  0.00    +0.000 OA
BRANCH  19  20
ATOM     20  C   UNL     1       2.427   6.146  17.880  0.00  0.00    +0.000 C 
BRANCH  20  21
ATOM     21  C   UNL     1       3.114   4.763  18.207  0.00  0.00    +0.000 C 
ATOM     22  C   UNL     1       3.010   4.588  19.750  0.00  0.00    +0.000 C 
ATOM     23  C   UNL     1       3.041   3.157  20.296  0.00  0.00    +0.000 C 
ATOM     24  N   UNL     1       2.377   2.126  19.512  0.00  0.00    +0.000 NA
ATOM     25  C   UNL     1       2.484   2.256  18.068  0.00  0.00    +0.000 C 
ATOM     26  C   UNL     1       2.243   3.666  17.539  0.00  0.00    +0.000 C 
ATOM     27  H   UNL     1       1.408   2.015  19.802  0.00  0.00    +0.000 HD
BRANCH  21  28
ATOM     28  C   UNL     1       4.568   4.693  17.662  0.00  0.00    +0.000 A 
ATOM     29  C   UNL     1       4.845   4.451  16.304  0.00  0.00    +0.000 A 
ATOM     30  C   UNL     1       6.151   4.355  15.811  0.00  0.00    +0.000 A 
ATOM     31  C   UNL     1       7.232   4.516  16.665  0.00  0.00    +0.000 A 
ATOM     32  C   UNL     1       6.999   4.794  18.005  0.00  0.00    +0.000 A 
ATOM     33  C   UNL     1       5.688   4.887  18.493  0.00  0.00    +0.000 A 
ENDBRANCH  21  28
ENDBRANCH  20  21
ENDBRANCH  19  20
ENDBRANCH  18  19
ENDBRANCH   3  18
TORSDOF 7
ENDMDL
MODEL 3
REMARK VINA RESULT:      -9.6      0.305      1.140
REMARK  Name = 
REMARK  8 active torsions:
REMARK  status: ('A' for Active; 'I' for Inactive)
REMARK    1  A    between atoms: C_1  and  C_2
REMARK    2  A    between atoms: C_7  and  C_8
REMARK    3  A    between atoms: C_10  and  C_11
REMARK    4  A    between atoms: C_11  and  O_12
REMARK    5  A    between atoms: O_12  and  C_13
REMARK    6  A    between atoms: C_13  and  C_14
REMARK    7  A    between atoms: C_14  and  C_15
REMARK    8  A    between atoms: C_27  and  C_28
REMARK                            x       y       z     vdW  Elec       q    Type
REMARK                         _______ _______ _______ _____ _____    ______ ____
ROOT
ATOM      1  C   UNL     1       4.060   4.927  17.243  0.00  0.00    +0.000 A 
ATOM      2  C   UNL     1       3.661   6.172  17.786  0.00  0.00    +0.000 A 
ATOM      3  C   UNL     1       2.697   6.295  18.819  0.00  0.00    +0.000 A 
ATOM      4  C   UNL     1       2.022   5.144  19.238  0.00  0.00    +0.000 A 
ATOM      5  C   UNL     1       2.361   3.892  18.702  0.00  0.00    +0.000 A 
ATOM      6  C   UNL     1       3.403   3.801  17.757  0.00  0.00    +0.000 A 
ENDROOT
BRANCH   1  13
ATOM      7  C   UNL     1       7.054   5.786  17.722  0.00  0.00    +0.000 C 
ATOM      8  C   UNL     1       6.514   5.222  16.432  0.00  0.00    +0.000 A 
ATOM      9  C   UNL     1       7.447   5.113  15.375  0.00  0.00    +0.000 A 
ATOM     10  C   UNL     1       7.092   4.582  14.137  0.00  0.00    +0.000 A 
ATOM     11  C   UNL     1       5.789   4.167  13.928  0.00  0.00    +0.000 A 
ATOM     12  C   UNL     1       4.846   4.294  14.954  0.00  0.00    +0.000 A 
ATOM     13  C   UNL     1       5.163   4.823  16.231  0.00  0.00    +0.000 A 
ENDBRANCH   1  13
BRANCH   5  14
ATOM     14  C   UNL     1       1.627   2.633  19.093  0.00  0.00    +0.000 C 
ATOM     15  F   UNL     1       0.401   2.502  18.516  0.00  0.00    +0.000 F 
ATOM     16  F   UNL     1       2.320   1.508  18.751  0.00  0.00    +0.000 F 
ATOM     17  F   UNL     1       1.424   2.542  20.437  0.00  0.00    +0.000 F 
ENDBRANCH   5  14
BRANCH   3  18
ATOM     18  C   UNL     1       2.384   7.666  19.384  0.00  0.00    +0.000 C 
BRANCH  18  19
ATOM     19  O   UNL     1       1.586   8.461  18.495  0.00  0.00    +0.000 OA
BRANCH  19  20
ATOM     20  C   UNL     1       1.789   9.870  18.715  0.00  0.00    +0.000 C 
BRANCH  20  21
ATOM     21  C   UNL     1       0.445  10.645  19.002  0.00  0.00    +0.000 C 
ATOM     22  C   UNL     1       0.704  12.121  18.582  0.00  0.00    +0.000 C 
ATOM     23  C   UNL     1      -0.514  12.963  18.190  0.00  0.00    +0.000 C 
ATOM     24  N   UNL     1      -1.585  12.295  17.465  0.00  0.00    +0.000 NA
ATOM     25  C   UNL     1      -1.862  10.924  17.859  0.00  0.00    +0.000 C 
ATOM     26  C   UNL     1      -0.623  10.053  18.044  0.00  0.00    +0.000 C 
ATOM     27  H   UNL     1      -1.446  12.369  16.460  0.00  0.00    +0.000 HD
BRANCH  21  28
ATOM     28  C   UNL     1      -0.017  10.483  20.477  0.00  0.00    +0.000 A 
ATOM     29  C   UNL     1      -0.346  11.589  21.282  0.00  0.00    +0.000 A 
ATOM     30  C   UNL     1      -0.732  11.454  22.620  0.00  0.00    +0.000 A 
ATOM     31  C   UNL     1      -0.820  10.195  23.196  0.00  0.00    +0.000 A 
ATOM     32  C   UNL     1      -0.541   9.077  22.423  0.00  0.00    +0.000 A 
ATOM     33  C   UNL     1      -0.152   9.219  21.084  0.00  0.00    +0.000 A 
ENDBRANCH  21  28
ENDBRANCH  20  21
ENDBRANCH  19  20
ENDBRANCH  18  19
ENDBRANCH   3  18
TORSDOF 7
ENDMDL
MODEL 4
REMARK VINA RESULT:      -9.5      0.876      1.190
REMARK  Name = 
REMARK  8 active torsions:
REMARK  status: ('A' for Active; 'I' for Inactive)
REMARK    1  A    between atoms: C_1  and  C_2
REMARK    2  A    between atoms: C_7  and  C_8
REMARK    3  A    between atoms: C_10  and  C_11
REMARK    4  A    between atoms: C_11  and  O_12
REMARK    5  A    between atoms: O_12  and  C_13
REMARK    6  A    between atoms: C_13  and  C_14
REMARK    7  A    between atoms: C_14  and  C_15
REMARK    8  A    between atoms: C_27  and  C_28
REMARK                            x       y       z     vdW  Elec       q    Type
REMARK                         _______ _______ _______ _____ _____    ______ ____
ROOT
ATOM      1  C   UNL     1       3.977   5.043  18.417  0.00  0.00    +0.000 A 
ATOM      2  C   UNL     1       3.362   6.295  18.656  0.00  0.00    +0.000 A 
ATOM      3  C   UNL     1       2.422   6.512  19.696  0.00  0.00    +0.000 A 
ATOM      4  C   UNL     1       1.992   5.410  20.443  0.00  0.00    +0.000 A 
ATOM      5  C   UNL     1       2.549   4.143  20.217  0.00  0.00    +0.000 A 
ATOM      6  C   UNL     1       3.563   3.993  19.248  0.00  0.00    +0.000 A 
ENDROOT
BRANCH   1  13
ATOM      7  C   UNL     1       7.053   5.538  18.892  0.00  0.00    +0.000 C 
ATOM      8  C   UNL     1       6.440   5.110  17.583  0.00  0.00    +0.000 A 
ATOM      9  C   UNL     1       7.344   4.958  16.506  0.00  0.00    +0.000 A 
ATOM     10  C   UNL     1       6.918   4.539  15.246  0.00  0.00    +0.000 A 
ATOM     11  C   UNL     1       5.575   4.282  15.038  0.00  0.00    +0.000 A 
ATOM     12  C   UNL     1       4.664   4.456  16.084  0.00  0.00    +0.000 A 
ATOM     13  C   UNL     1       5.051   4.875  17.383  0.00  0.00    +0.000 A 
ENDBRANCH   1  13
BRANCH   5  14
ATOM     14  C   UNL     1       2.082   2.921  20.969  0.00  0.00    +0.000 C 
ATOM     15  F   UNL     1       1.082   3.166  21.860  0.00  0.00    +0.000 F 
ATOM     16  F   UNL     1       1.604   1.955  20.132  0.00  0.00    +0.000 F 
ATOM     17  F   UNL     1       3.082   2.329  21.678  0.00  0.00    +0.000 F 
ENDBRANCH   5  14
BRANCH   3  18
ATOM     18  C   UNL     1       1.868   7.905  19.918  0.00  0.00    +0.000 C 
BRANCH  18  19
ATOM     19  O   UNL     1       1.665   8.621  18.690  0.00  0.00    +0.000 OA
BRANCH  19  20
ATOM     20  C   UNL     1       1.808  10.042  18.875  0.00  0.00    +0.000 C 
BRANCH  20  21
ATOM     21  C   UNL     1       0.427  10.773  19.094  0.00  0.00    +0.000 C 
ATOM     22  C   UNL     1       0.627  12.230  18.584  0.00  0.00    +0.000 C 
ATOM     23  C   UNL     1      -0.620  12.990  18.123  0.00  0.00    +0.000 C 
ATOM     24  N   UNL     1      -1.650  12.229  17.429  0.00  0.00    +0.000 NA
ATOM     25  C   UNL     1      -1.872  10.875  17.907  0.00  0.00    +0.000 C 
ATOM     26  C   UNL     1      -0.599  10.075  18.163  0.00  0.00    +0.000 C 
ATOM     27  H   UNL     1      -1.498  12.245  16.423  0.00  0.00    +0.000 HD
BRANCH  21  28
ATOM     28  C   UNL     1      -0.051  10.685  20.571  0.00  0.00    +0.000 A 
ATOM     29  C   UNL     1      -0.148   9.457  21.251  0.00  0.00    +0.000 A 
ATOM     30  C   UNL     1      -0.607   9.365  22.570  0.00  0.00    +0.000 A 
ATOM     31  C   UNL     1      -0.971  10.510  23.263  0.00  0.00    +0.000 A 
ATOM     32  C   UNL     1      -0.854  11.744  22.638  0.00  0.00    +0.000 A 
ATOM     33  C   UNL     1      -0.395  11.830  21.316  0.00  0.00    +0.000 A 
ENDBRANCH  21  28
ENDBRANCH  20  21
ENDBRANCH  19  20
ENDBRANCH  18  19
ENDBRANCH   3  18
TORSDOF 7
ENDMDL
MODEL 5
REMARK VINA RESULT:      -9.4      2.677      4.458
REMARK  Name = 
REMARK  8 active torsions:
REMARK  status: ('A' for Active; 'I' for Inactive)
REMARK    1  A    between atoms: C_1  and  C_2
REMARK    2  A    between atoms: C_7  and  C_8
REMARK    3  A    between atoms: C_10  and  C_11
REMARK    4  A    between atoms: C_11  and  O_12
REMARK    5  A    between atoms: O_12  and  C_13
REMARK    6  A    between atoms: C_13  and  C_14
REMARK    7  A    between atoms: C_14  and  C_15
REMARK    8  A    between atoms: C_27  and  C_28
REMARK                            x       y       z     vdW  Elec       q    Type
REMARK                         _______ _______ _______ _____ _____    ______ ____
ROOT
ATOM      1  C   UNL     1       3.611   5.291  18.844  0.00  0.00    +0.000 A 
ATOM      2  C   UNL     1       2.981   6.479  18.403  0.00  0.00    +0.000 A 
ATOM      3  C   UNL     1       3.636   7.458  17.612  0.00  0.00    +0.000 A 
ATOM      4  C   UNL     1       5.002   7.299  17.358  0.00  0.00    +0.000 A 
ATOM      5  C   UNL     1       5.677   6.153  17.805  0.00  0.00    +0.000 A 
ATOM      6  C   UNL     1       4.961   5.151  18.492  0.00  0.00    +0.000 A 
ENDROOT
BRANCH   1  13
ATOM      7  C   UNL     1       2.400   2.688  17.543  0.00  0.00    +0.000 C 
ATOM      8  C   UNL     1       2.295   3.053  19.002  0.00  0.00    +0.000 A 
ATOM      9  C   UNL     1       1.566   2.147  19.807  0.00  0.00    +0.000 A 
ATOM     10  C   UNL     1       1.413   2.345  21.178  0.00  0.00    +0.000 A 
ATOM     11  C   UNL     1       1.973   3.465  21.766  0.00  0.00    +0.000 A 
ATOM     12  C   UNL     1       2.673   4.386  20.979  0.00  0.00    +0.000 A 
ATOM     13  C   UNL     1       2.858   4.224  19.582  0.00  0.00    +0.000 A 
ENDBRANCH   1  13
BRANCH   5  14
ATOM     14  C   UNL     1       7.158   5.965  17.590  0.00  0.00    +0.000 C 
ATOM     15  F   UNL     1       7.477   4.867  16.850  0.00  0.00    +0.000 F 
ATOM     16  F   UNL     1       7.721   7.025  16.942  0.00  0.00    +0.000 F 
ATOM     17  F   UNL     1       7.845   5.844  18.759  0.00  0.00    +0.000 F 
ENDBRANCH   5  14
BRANCH   3  18
ATOM     18  C   UNL     1       2.858   8.666  17.132  0.00  0.00    +0.000 C 
BRANCH  18  19
ATOM     19  O   UNL     1       1.649   8.876  17.875  0.00  0.00    +0.000 OA
BRANCH  19  20
ATOM     20  C   UNL     1       1.790   9.952  18.823  0.00  0.00    +0.000 C 
BRANCH  20  21
ATOM     21  C   UNL     1       0.434  10.717  19.086  0.00  0.00    +0.000 C 
ATOM     22  C   UNL     1       0.691  12.197  18.678  0.00  0.00    +0.000 C 
ATOM     23  C   UNL     1      -0.525  13.032  18.265  0.00  0.00    +0.000 C 
ATOM     24  N   UNL     1      -1.577  12.359  17.517  0.00  0.00    +0.000 NA
ATOM     25  C   UNL     1      -1.852  10.984  17.900  0.00  0.00    +0.000 C 
ATOM     26  C   UNL     1      -0.610  10.122  18.105  0.00  0.00    +0.000 C 
ATOM     27  H   UNL     1      -1.419  12.438  16.515  0.00  0.00    +0.000 HD
BRANCH  21  28
ATOM     28  C   UNL     1      -0.055  10.545  20.551  0.00  0.00    +0.000 A 
ATOM     29  C   UNL     1      -0.468  11.640  21.333  0.00  0.00    +0.000 A 
ATOM     30  C   UNL     1      -0.880  11.498  22.663  0.00  0.00    +0.000 A 
ATOM     31  C   UNL     1      -0.910  10.243  23.253  0.00  0.00    +0.000 A 
ATOM     32  C   UNL     1      -0.547   9.134  22.502  0.00  0.00    +0.000 A 
ATOM     33  C   UNL     1      -0.132   9.283  21.171  0.00  0.00    +0.000 A 
ENDBRANCH  21  28
ENDBRANCH  20  21
ENDBRANCH  19  20
ENDBRANCH  18  19
ENDBRANCH   3  18
TORSDOF 7
ENDMDL
MODEL 6
REMARK VINA RESULT:      -9.4      3.461      8.769
REMARK  Name = 
REMARK  8 active torsions:
REMARK  status: ('A' for Active; 'I' for Inactive)
REMARK    1  A    between atoms: C_1  and  C_2
REMARK    2  A    between atoms: C_7  and  C_8
REMARK    3  A    between atoms: C_10  and  C_11
REMARK    4  A    between atoms: C_11  and  O_12
REMARK    5  A    between atoms: O_12  and  C_13
REMARK    6  A    between atoms: C_13  and  C_14
REMARK    7  A    between atoms: C_14  and  C_15
REMARK    8  A    between atoms: C_27  and  C_28
REMARK                            x       y       z     vdW  Elec       q    Type
REMARK                         _______ _______ _______ _____ _____    ______ ____
ROOT
ATOM      1  C   UNL     1      -0.758   9.955  18.526  0.00  0.00    +0.000 A 
ATOM      2  C   UNL     1       0.413   9.519  17.863  0.00  0.00    +0.000 A 
ATOM      3  C   UNL     1       1.529   8.966  18.544  0.00  0.00    +0.000 A 
ATOM      4  C   UNL     1       1.519   8.963  19.942  0.00  0.00    +0.000 A 
ATOM      5  C   UNL     1       0.392   9.419  20.642  0.00  0.00    +0.000 A 
ATOM      6  C   UNL     1      -0.740   9.857  19.924  0.00  0.00    +0.000 A 
ENDROOT
BRANCH   1  13
ATOM      7  C   UNL     1      -2.779  12.159  19.523  0.00  0.00    +0.000 C 
ATOM      8  C   UNL     1      -2.890  11.413  18.217  0.00  0.00    +0.000 A 
ATOM      9  C   UNL     1      -4.015  11.736  17.423  0.00  0.00    +0.000 A 
ATOM     10  C   UNL     1      -4.228  11.144  16.179  0.00  0.00    +0.000 A 
ATOM     11  C   UNL     1      -3.326  10.203  15.716  0.00  0.00    +0.000 A 
ATOM     12  C   UNL     1      -2.224   9.851  16.501  0.00  0.00    +0.000 A 
ATOM     13  C   UNL     1      -1.964  10.430  17.769  0.00  0.00    +0.000 A 
ENDBRANCH   1  13
BRANCH   5  14
ATOM     14  C   UNL     1       0.358   9.474  22.149  0.00  0.00    +0.000 C 
ATOM     15  F   UNL     1       1.533   9.127  22.745  0.00  0.00    +0.000 F 
ATOM     16  F   UNL     1       0.063  10.723  22.610  0.00  0.00    +0.000 F 
ATOM     17  F   UNL     1      -0.590   8.654  22.682  0.00  0.00    +0.000 F 
ENDBRANCH   5  14
BRANCH   3  18
ATOM     18  C   UNL     1       2.713   8.463  17.742  0.00  0.00    +0.000 C 
BRANCH  18  19
ATOM     19  O   UNL     1       2.956   7.062  17.934  0.00  0.00    +0.000 OA
BRANCH  19  20
ATOM     20  C   UNL     1       4.296   6.816  18.403  0.00  0.00    +0.000 C 
BRANCH  20  21
ATOM     21  C   UNL     1       4.964   5.562  17.716  0.00  0.00    +0.000 C 
ATOM     22  C   UNL     1       5.001   5.877  16.192  0.00  0.00    +0.000 C 
ATOM     23  C   UNL     1       6.071   5.168  15.355  0.00  0.00    +0.000 C 
ATOM     24  N   UNL     1       7.372   4.954  15.973  0.00  0.00    +0.000 NA
ATOM     25  C   UNL     1       7.359   4.633  17.390  0.00  0.00    +0.000 C 
ATOM     26  C   UNL     1       6.427   5.501  18.230  0.00  0.00    +0.000 C 
ATOM     27  H   UNL     1       8.000   5.730  15.777  0.00  0.00    +0.000 HD
BRANCH  21  28
ATOM     28  C   UNL     1       4.223   4.242  18.068  0.00  0.00    +0.000 A 
ATOM     29  C   UNL     1       3.290   3.654  17.193  0.00  0.00    +0.000 A 
ATOM     30  C   UNL     1       2.595   2.483  17.516  0.00  0.00    +0.000 A 
ATOM     31  C   UNL     1       2.825   1.847  18.726  0.00  0.00    +0.000 A 
ATOM     32  C   UNL     1       3.766   2.375  19.600  0.00  0.00    +0.000 A 
ATOM     33  C   UNL     1       4.457   3.550  19.272  0.00  0.00    +0.000 A 
ENDBRANCH  21  28
ENDBRANCH  20  21
ENDBRANCH  19  20
ENDBRANCH  18  19
ENDBRANCH   3  18
TORSDOF 7
ENDMDL
MODEL 7
REMARK VINA RESULT:      -9.4      1.373      2.711
REMARK  Name = 
REMARK  8 active torsions:
REMARK  status: ('A' for Active; 'I' for Inactive)
REMARK    1  A    between atoms: C_1  and  C_2
REMARK    2  A    between atoms: C_7  and  C_8
REMARK    3  A    between atoms: C_10  and  C_11
REMARK    4  A    between atoms: C_11  and  O_12
REMARK    5  A    between atoms: O_12  and  C_13
REMARK    6  A    between atoms: C_13  and  C_14
REMARK    7  A    between atoms: C_14  and  C_15
REMARK    8  A    between atoms: C_27  and  C_28
REMARK                            x       y       z     vdW  Elec       q    Type
REMARK                         _______ _______ _______ _____ _____    ______ ____
ROOT
ATOM      1  C   UNL     1       3.703   5.166  18.532  0.00  0.00    +0.000 A 
ATOM      2  C   UNL     1       3.257   6.390  19.083  0.00  0.00    +0.000 A 
ATOM      3  C   UNL     1       2.230   6.475  20.058  0.00  0.00    +0.000 A 
ATOM      4  C   UNL     1       1.544   5.305  20.402  0.00  0.00    +0.000 A 
ATOM      5  C   UNL     1       1.930   4.072  19.855  0.00  0.00    +0.000 A 
ATOM      6  C   UNL     1       3.029   4.018  18.973  0.00  0.00    +0.000 A 
ENDROOT
BRANCH   1  13
ATOM      7  C   UNL     1       6.730   5.482  19.352  0.00  0.00    +0.000 C 
ATOM      8  C   UNL     1       6.236   5.257  17.946  0.00  0.00    +0.000 A 
ATOM      9  C   UNL     1       7.235   5.221  16.946  0.00  0.00    +0.000 A 
ATOM     10  C   UNL     1       6.924   4.992  15.607  0.00  0.00    +0.000 A 
ATOM     11  C   UNL     1       5.602   4.814  15.242  0.00  0.00    +0.000 A 
ATOM     12  C   UNL     1       4.598   4.876  16.214  0.00  0.00    +0.000 A 
ATOM     13  C   UNL     1       4.867   5.101  17.588  0.00  0.00    +0.000 A 
ENDBRANCH   1  13
BRANCH   5  14
ATOM     14  C   UNL     1       1.189   2.796  20.165  0.00  0.00    +0.000 C 
ATOM     15  F   UNL     1       0.050   2.623  19.439  0.00  0.00    +0.000 F 
ATOM     16  F   UNL     1       1.951   1.689  19.927  0.00  0.00    +0.000 F 
ATOM     17  F   UNL     1       0.818   2.710  21.473  0.00  0.00    +0.000 F 
ENDBRANCH   5  14
BRANCH   3  18
ATOM     18  C   UNL     1       1.867   7.826  20.639  0.00  0.00    +0.000 C 
BRANCH  18  19
ATOM     19  O   UNL     1       1.161   8.657  19.706  0.00  0.00    +0.000 OA
BRANCH  19  20
ATOM     20  C   UNL     1       0.146   9.444  20.360  0.00  0.00    +0.000 C 
BRANCH  20  21
ATOM     21  C   UNL     1      -0.089  10.841  19.663  0.00  0.00    +0.000 C 
ATOM     22  C   UNL     1      -0.265  11.871  20.817  0.00  0.00    +0.000 C 
ATOM     23  C   UNL     1       0.071  13.333  20.509  0.00  0.00    +0.000 C 
ATOM     24  N   UNL     1       1.194  13.590  19.619  0.00  0.00    +0.000 NA
ATOM     25  C   UNL     1       1.361  12.655  18.519  0.00  0.00    +0.000 C 
ATOM     26  C   UNL     1       1.221  11.186  18.906  0.00  0.00    +0.000 C 
ATOM     27  H   UNL     1       2.058  13.698  20.145  0.00  0.00    +0.000 HD
BRANCH  21  28
ATOM     28  C   UNL     1      -1.282  10.801  18.668  0.00  0.00    +0.000 A 
ATOM     29  C   UNL     1      -1.276   9.978  17.527  0.00  0.00    +0.000 A 
ATOM     30  C   UNL     1      -2.332   9.960  16.610  0.00  0.00    +0.000 A 
ATOM     31  C   UNL     1      -3.447  10.759  16.815  0.00  0.00    +0.000 A 
ATOM     32  C   UNL     1      -3.508  11.556  17.950  0.00  0.00    +0.000 A 
ATOM     33  C   UNL     1      -2.445  11.572  18.864  0.00  0.00    +0.000 A 
ENDBRANCH  21  28
ENDBRANCH  20  21
ENDBRANCH  19  20
ENDBRANCH  18  19
ENDBRANCH   3  18
TORSDOF 7
ENDMDL
MODEL 8
REMARK VINA RESULT:      -9.3      3.457      8.774
REMARK  Name = 
REMARK  8 active torsions:
REMARK  status: ('A' for Active; 'I' for Inactive)
REMARK    1  A    between atoms: C_1  and  C_2
REMARK    2  A    between atoms: C_7  and  C_8
REMARK    3  A    between atoms: C_10  and  C_11
REMARK    4  A    between atoms: C_11  and  O_12
REMARK    5  A    between atoms: O_12  and  C_13
REMARK    6  A    between atoms: C_13  and  C_14
REMARK    7  A    between atoms: C_14  and  C_15
REMARK    8  A    between atoms: C_27  and  C_28
REMARK                            x       y       z     vdW  Elec       q    Type
REMARK                         _______ _______ _______ _____ _____    ______ ____
ROOT
ATOM      1  C   UNL     1      -0.789   9.983  18.550  0.00  0.00    +0.000 A 
ATOM      2  C   UNL     1       0.361   9.533  17.859  0.00  0.00    +0.000 A 
ATOM      3  C   UNL     1       1.488   8.970  18.513  0.00  0.00    +0.000 A 
ATOM      4  C   UNL     1       1.512   8.970  19.911  0.00  0.00    +0.000 A 
ATOM      5  C   UNL     1       0.407   9.438  20.638  0.00  0.00    +0.000 A 
ATOM      6  C   UNL     1      -0.738   9.886  19.947  0.00  0.00    +0.000 A 
ENDROOT
BRANCH   1  13
ATOM      7  C   UNL     1      -2.766  12.204  19.594  0.00  0.00    +0.000 C 
ATOM      8  C   UNL     1      -2.915  11.460  18.291  0.00  0.00    +0.000 A 
ATOM      9  C   UNL     1      -4.056  11.793  17.524  0.00  0.00    +0.000 A 
ATOM     10  C   UNL     1      -4.303  11.203  16.286  0.00  0.00    +0.000 A 
ATOM     11  C   UNL     1      -3.422  10.254  15.801  0.00  0.00    +0.000 A 
ATOM     12  C   UNL     1      -2.304   9.892  16.560  0.00  0.00    +0.000 A 
ATOM     13  C   UNL     1      -2.008  10.468  17.822  0.00  0.00    +0.000 A 
ENDBRANCH   1  13
BRANCH   5  14
ATOM     14  C   UNL     1       0.411   9.497  22.145  0.00  0.00    +0.000 C 
ATOM     15  F   UNL     1       0.078  10.714  22.655  0.00  0.00    +0.000 F 
ATOM     16  F   UNL     1      -0.469   8.611  22.695  0.00  0.00    +0.000 F 
ATOM     17  F   UNL     1       1.625   9.184  22.678  0.00  0.00    +0.000 F 
ENDBRANCH   5  14
BRANCH   3  18
ATOM     18  C   UNL     1       2.646   8.454  17.683  0.00  0.00    +0.000 C 
BRANCH  18  19
ATOM     19  O   UNL     1       3.071   7.143  18.083  0.00  0.00    +0.000 OA
BRANCH  19  20
ATOM     20  C   UNL     1       4.507   7.050  18.152  0.00  0.00    +0.000 C 
BRANCH  20  21
ATOM     21  C   UNL     1       5.063   5.701  17.549  0.00  0.00    +0.000 C 
ATOM     22  C   UNL     1       5.110   5.908  16.007  0.00  0.00    +0.000 C 
ATOM     23  C   UNL     1       6.109   5.060  15.215  0.00  0.00    +0.000 C 
ATOM     24  N   UNL     1       7.394   4.781  15.839  0.00  0.00    +0.000 NA
ATOM     25  C   UNL     1       7.370   4.558  17.275  0.00  0.00    +0.000 C 
ATOM     26  C   UNL     1       6.522   5.555  18.059  0.00  0.00    +0.000 C 
ATOM     27  H   UNL     1       8.082   5.487  15.587  0.00  0.00    +0.000 HD
BRANCH  21  28
ATOM     28  C   UNL     1       4.220   4.474  17.993  0.00  0.00    +0.000 A 
ATOM     29  C   UNL     1       4.286   3.956  19.300  0.00  0.00    +0.000 A 
ATOM     30  C   UNL     1       3.554   2.832  19.699  0.00  0.00    +0.000 A 
ATOM     31  C   UNL     1       2.711   2.194  18.801  0.00  0.00    +0.000 A 
ATOM     32  C   UNL     1       2.590   2.698  17.513  0.00  0.00    +0.000 A 
ATOM     33  C   UNL     1       3.328   3.823  17.118  0.00  0.00    +0.000 A 
ENDBRANCH  21  28
ENDBRANCH  20  21
ENDBRANCH  19  20
ENDBRANCH  18  19
ENDBRANCH   3  18
TORSDOF 7
ENDMDL
MODEL 9
REMARK VINA RESULT:      -9.2      3.446      8.674
REMARK  Name = 
REMARK  8 active torsions:
REMARK  status: ('A' for Active; 'I' for Inactive)
REMARK    1  A    between atoms: C_1  and  C_2
REMARK    2  A    between atoms: C_7  and  C_8
REMARK    3  A    between atoms: C_10  and  C_11
REMARK    4  A    between atoms: C_11  and  O_12
REMARK    5  A    between atoms: O_12  and  C_13
REMARK    6  A    between atoms: C_13  and  C_14
REMARK    7  A    between atoms: C_14  and  C_15
REMARK    8  A    between atoms: C_27  and  C_28
REMARK                            x       y       z     vdW  Elec       q    Type
REMARK                         _______ _______ _______ _____ _____    ______ ____
ROOT
ATOM      1  C   UNL     1      -1.207  10.283  18.784  0.00  0.00    +0.000 A 
ATOM      2  C   UNL     1      -0.061   9.925  18.034  0.00  0.00    +0.000 A 
ATOM      3  C   UNL     1       1.099   9.350  18.616  0.00  0.00    +0.000 A 
ATOM      4  C   UNL     1       1.159   9.244  20.009  0.00  0.00    +0.000 A 
ATOM      5  C   UNL     1       0.059   9.619  20.795  0.00  0.00    +0.000 A 
ATOM      6  C   UNL     1      -1.116  10.081  20.168  0.00  0.00    +0.000 A 
ENDROOT
BRANCH   1  13
ATOM      7  C   UNL     1      -3.154  12.450  19.986  0.00  0.00    +0.000 C 
ATOM      8  C   UNL     1      -3.351  11.750  18.665  0.00  0.00    +0.000 A 
ATOM      9  C   UNL     1      -4.525  12.099  17.958  0.00  0.00    +0.000 A 
ATOM     10  C   UNL     1      -4.820  11.551  16.710  0.00  0.00    +0.000 A 
ATOM     11  C   UNL     1      -3.952  10.627  16.157  0.00  0.00    +0.000 A 
ATOM     12  C   UNL     1      -2.801  10.248  16.856  0.00  0.00    +0.000 A 
ATOM     13  C   UNL     1      -2.458  10.783  18.124  0.00  0.00    +0.000 A 
ENDBRANCH   1  13
BRANCH   5  14
ATOM     14  C   UNL     1       0.100   9.561  22.302  0.00  0.00    +0.000 C 
ATOM     15  F   UNL     1      -0.782   8.680  22.849  0.00  0.00    +0.000 F 
ATOM     16  F   UNL     1       1.329   9.194  22.768  0.00  0.00    +0.000 F 
ATOM     17  F   UNL     1      -0.164  10.767  22.878  0.00  0.00    +0.000 F 
ENDBRANCH   5  14
BRANCH   3  18
ATOM     18  C   UNL     1       2.250   8.937  17.722  0.00  0.00    +0.000 C 
BRANCH  18  19
ATOM     19  O   UNL     1       3.021   7.861  18.275  0.00  0.00    +0.000 OA
BRANCH  19  20
ATOM     20  C   UNL     1       3.971   7.345  17.323  0.00  0.00    +0.000 C 
BRANCH  20  21
ATOM     21  C   UNL     1       4.384   5.850  17.618  0.00  0.00    +0.000 C 
ATOM     22  C   UNL     1       4.704   5.213  16.235  0.00  0.00    +0.000 C 
ATOM     23  C   UNL     1       5.659   4.016  16.218  0.00  0.00    +0.000 C 
ATOM     24  N   UNL     1       6.768   4.030  17.162  0.00  0.00    +0.000 NA
ATOM     25  C   UNL     1       6.483   4.597  18.469  0.00  0.00    +0.000 C 
ATOM     26  C   UNL     1       5.700   5.905  18.438  0.00  0.00    +0.000 C 
ATOM     27  H   UNL     1       7.594   4.455  16.747  0.00  0.00    +0.000 HD
BRANCH  21  28
ATOM     28  C   UNL     1       3.290   5.092  18.421  0.00  0.00    +0.000 A 
ATOM     29  C   UNL     1       3.237   5.127  19.827  0.00  0.00    +0.000 A 
ATOM     30  C   UNL     1       2.274   4.422  20.558  0.00  0.00    +0.000 A 
ATOM     31  C   UNL     1       1.315   3.667  19.902  0.00  0.00    +0.000 A 
ATOM     32  C   UNL     1       1.310   3.638  18.514  0.00  0.00    +0.000 A 
ATOM     33  C   UNL     1       2.279   4.344  17.786  0.00  0.00    +0.000 A 
ENDBRANCH  21  28
ENDBRANCH  20  21
ENDBRANCH  19  20
ENDBRANCH  18  19
ENDBRANCH   3  18
TORSDOF 7
ENDMDL
