MODEL 1
REMARK VINA RESULT:      -7.9      0.000      0.000
REMARK  Name = 
REMARK  6 active torsions:
REMARK  status: ('A' for Active; 'I' for Inactive)
REMARK    1  A    between atoms: C_1  and  C_2
REMARK    2  A    between atoms: C_2  and  N_3
REMARK    3  A    between atoms: N_3  and  C_4
REMARK    4  A    between atoms: C_4  and  C_5
REMARK    5  A    between atoms: C_9  and  S_10
REMARK    6  A    between atoms: S_10  and  C_13
REMARK                            x       y       z     vdW  Elec       q    Type
REMARK                         _______ _______ _______ _____ _____    ______ ____
ROOT
ATOM      1  N   UNL     1       2.005   4.215  19.897  0.00  0.00    +0.000 N 
ATOM      2  C   UNL     1       2.310   5.383  19.212  0.00  0.00    +0.000 A 
ATOM      3  N   UNL     1       1.775   6.518  19.584  0.00  0.00    +0.000 NA
ATOM      4  C   UNL     1       2.121   7.645  18.901  0.00  0.00    +0.000 A 
ATOM      5  C   UNL     1       1.742   8.972  18.961  0.00  0.00    +0.000 A 
ATOM      6  N   UNL     1       2.461   9.708  18.050  0.00  0.00    +0.000 NA
ATOM      7  N   UNL     1       3.275   8.880  17.403  0.00  0.00    +0.000 NA
ATOM      8  N   UNL     1       3.060   7.643  17.890  0.00  0.00    +0.000 N 
ATOM      9  C   UNL     1       3.698   6.480  17.452  0.00  0.00    +0.000 A 
ATOM     10  C   UNL     1       4.677   6.484  16.453  0.00  0.00    +0.000 A 
ATOM     11  C   UNL     1       5.263   5.270  16.089  0.00  0.00    +0.000 A 
ATOM     12 BR   UNL     1       6.613   5.227  14.772  0.00  0.00    +0.000 Br
ATOM     13  C   UNL     1       4.863   4.074  16.698  0.00  0.00    +0.000 A 
ATOM     14  C   UNL     1       3.894   4.086  17.700  0.00  0.00    +0.000 A 
ATOM     15  C   UNL     1       3.307   5.297  18.086  0.00  0.00    +0.000 A 
ENDROOT
BRANCH   5  16
ATOM     16  S   UNL     1       0.590   9.669  20.029  0.00  0.00    +0.000 S 
ATOM     17  O   UNL     1       0.069   8.576  20.821  0.00  0.00    +0.000 OA
ATOM     18  O   UNL     1       1.258  10.803  20.653  0.00  0.00    +0.000 OA
BRANCH  16  19
ATOM     19  C   UNL     1      -0.712  10.269  18.986  0.00  0.00    +0.000 A 
ATOM     20  C   UNL     1      -1.483  11.358  19.409  0.00  0.00    +0.000 A 
ATOM     21  C   UNL     1      -2.546  11.795  18.618  0.00  0.00    +0.000 A 
ATOM     22  C   UNL     1      -2.820  11.162  17.405  0.00  0.00    +0.000 A 
ATOM     23  C   UNL     1      -2.015  10.110  16.962  0.00  0.00    +0.000 A 
ATOM     24  C   UNL     1      -0.952   9.665  17.749  0.00  0.00    +0.000 A 
ENDBRANCH  16  19
ENDBRANCH   5  16
BRANCH   1  26
ATOM     25  C   UNL     1       2.210   2.826  21.939  0.00  0.00    +0.000 C 
ATOM     26  C   UNL     1       2.106   4.243  21.366  0.00  0.00    +0.000 C 
ENDBRANCH   1  26
BRANCH   1  27
ATOM     27  C   UNL     1       0.967   3.345  19.315  0.00  0.00    +0.000 C 
ATOM     28  C   UNL     1       1.467   1.985  18.854  0.00  0.00    +0.000 C 
ENDBRANCH   1  27
TORSDOF 4
ENDMDL
MODEL 2
REMARK VINA RESULT:      -7.7      4.213      7.266
REMARK  Name = 
REMARK  6 active torsions:
REMARK  status: ('A' for Active; 'I' for Inactive)
REMARK    1  A    between atoms: C_1  and  C_2
REMARK    2  A    between atoms: C_2  and  N_3
REMARK    3  A    between atoms: N_3  and  C_4
REMARK    4  A    between atoms: C_4  and  C_5
REMARK    5  A    between atoms: C_9  and  S_10
REMARK    6  A    between atoms: S_10  and  C_13
REMARK                            x       y       z     vdW  Elec       q    Type
REMARK                         _______ _______ _______ _____ _____    ______ ____
ROOT
ATOM      1  N   UNL     1       2.421   3.793  19.817  0.00  0.00    +0.000 N 
ATOM      2  C   UNL     1       3.033   4.759  19.030  0.00  0.00    +0.000 A 
ATOM      3  N   UNL     1       3.981   4.418  18.194  0.00  0.00    +0.000 NA
ATOM      4  C   UNL     1       4.536   5.393  17.422  0.00  0.00    +0.000 A 
ATOM      5  C   UNL     1       5.559   5.432  16.494  0.00  0.00    +0.000 A 
ATOM      6  N   UNL     1       5.669   6.697  15.969  0.00  0.00    +0.000 NA
ATOM      7  N   UNL     1       4.754   7.466  16.551  0.00  0.00    +0.000 NA
ATOM      8  N   UNL     1       4.090   6.698  17.436  0.00  0.00    +0.000 N 
ATOM      9  C   UNL     1       3.064   7.138  18.277  0.00  0.00    +0.000 A 
ATOM     10  C   UNL     1       2.586   8.453  18.264  0.00  0.00    +0.000 A 
ATOM     11  C   UNL     1       1.551   8.794  19.137  0.00  0.00    +0.000 A 
ATOM     12 BR   UNL     1       0.848  10.545  19.134  0.00  0.00    +0.000 Br
ATOM     13  C   UNL     1       1.020   7.845  20.019  0.00  0.00    +0.000 A 
ATOM     14  C   UNL     1       1.498   6.535  20.014  0.00  0.00    +0.000 A 
ATOM     15  C   UNL     1       2.525   6.174  19.134  0.00  0.00    +0.000 A 
ENDROOT
BRANCH   5  16
ATOM     16  S   UNL     1       6.545   4.118  15.989  0.00  0.00    +0.000 S 
ATOM     17  O   UNL     1       7.829   4.317  16.625  0.00  0.00    +0.000 OA
ATOM     18  O   UNL     1       5.762   2.915  16.228  0.00  0.00    +0.000 OA
BRANCH  16  19
ATOM     19  C   UNL     1       6.752   4.334  14.241  0.00  0.00    +0.000 A 
ATOM     20  C   UNL     1       5.964   3.585  13.359  0.00  0.00    +0.000 A 
ATOM     21  C   UNL     1       6.166   3.710  11.984  0.00  0.00    +0.000 A 
ATOM     22  C   UNL     1       7.132   4.591  11.497  0.00  0.00    +0.000 A 
ATOM     23  C   UNL     1       7.879   5.374  12.379  0.00  0.00    +0.000 A 
ATOM     24  C   UNL     1       7.686   5.254  13.755  0.00  0.00    +0.000 A 
ENDBRANCH  16  19
ENDBRANCH   5  16
BRANCH   1  26
ATOM     25  C   UNL     1       0.462   2.688  18.778  0.00  0.00    +0.000 C 
ATOM     26  C   UNL     1       1.944   2.572  19.146  0.00  0.00    +0.000 C 
ENDBRANCH   1  26
BRANCH   1  27
ATOM     27  C   UNL     1       2.905   3.649  21.202  0.00  0.00    +0.000 C 
ATOM     28  C   UNL     1       2.039   2.764  22.086  0.00  0.00    +0.000 C 
ENDBRANCH   1  27
TORSDOF 4
ENDMDL
MODEL 3
REMARK VINA RESULT:      -7.4      0.897      1.129
REMARK  Name = 
REMARK  6 active torsions:
REMARK  status: ('A' for Active; 'I' for Inactive)
REMARK    1  A    between atoms: C_1  and  C_2
REMARK    2  A    between atoms: C_2  and  N_3
REMARK    3  A    between atoms: N_3  and  C_4
REMARK    4  A    between atoms: C_4  and  C_5
REMARK    5  A    between atoms: C_9  and  S_10
REMARK    6  A    between atoms: S_10  and  C_13
REMARK                            x       y       z     vdW  Elec       q    Type
REMARK                         _______ _______ _______ _____ _____    ______ ____
ROOT
ATOM      1  N   UNL     1       2.049   3.717  20.181  0.00  0.00    +0.000 N 
ATOM      2  C   UNL     1       2.294   4.941  19.574  0.00  0.00    +0.000 A 
ATOM      3  N   UNL     1       1.786   6.036  20.081  0.00  0.00    +0.000 NA
ATOM      4  C   UNL     1       2.074   7.219  19.470  0.00  0.00    +0.000 A 
ATOM      5  C   UNL     1       1.696   8.533  19.670  0.00  0.00    +0.000 A 
ATOM      6  N   UNL     1       2.339   9.349  18.770  0.00  0.00    +0.000 NA
ATOM      7  N   UNL     1       3.101   8.586  17.994  0.00  0.00    +0.000 NA
ATOM      8  N   UNL     1       2.930   7.311  18.392  0.00  0.00    +0.000 N 
ATOM      9  C   UNL     1       3.535   6.195  17.809  0.00  0.00    +0.000 A 
ATOM     10  C   UNL     1       4.433   6.291  16.740  0.00  0.00    +0.000 A 
ATOM     11  C   UNL     1       4.993   5.118  16.232  0.00  0.00    +0.000 A 
ATOM     12 BR   UNL     1       6.234   5.198  14.814  0.00  0.00    +0.000 Br
ATOM     13  C   UNL     1       4.646   3.871  16.768  0.00  0.00    +0.000 A 
ATOM     14  C   UNL     1       3.758   3.790  17.840  0.00  0.00    +0.000 A 
ATOM     15  C   UNL     1       3.200   4.959  18.370  0.00  0.00    +0.000 A 
ENDROOT
BRANCH   5  16
ATOM     16  S   UNL     1       0.629   9.127  20.879  0.00  0.00    +0.000 S 
ATOM     17  O   UNL     1      -0.329   8.070  21.119  0.00  0.00    +0.000 OA
ATOM     18  O   UNL     1       1.479   9.634  21.947  0.00  0.00    +0.000 OA
BRANCH  16  19
ATOM     19  C   UNL     1      -0.222  10.488  20.125  0.00  0.00    +0.000 A 
ATOM     20  C   UNL     1       0.050  11.791  20.556  0.00  0.00    +0.000 A 
ATOM     21  C   UNL     1      -0.661  12.858  20.006  0.00  0.00    +0.000 A 
ATOM     22  C   UNL     1      -1.619  12.624  19.018  0.00  0.00    +0.000 A 
ATOM     23  C   UNL     1      -1.849  11.328  18.554  0.00  0.00    +0.000 A 
ATOM     24  C   UNL     1      -1.145  10.254  19.101  0.00  0.00    +0.000 A 
ENDBRANCH  16  19
ENDBRANCH   5  16
BRANCH   1  26
ATOM     25  C   UNL     1       1.476   2.457  22.236  0.00  0.00    +0.000 C 
ATOM     26  C   UNL     1       2.265   3.624  21.635  0.00  0.00    +0.000 C 
ENDBRANCH   1  26
BRANCH   1  27
ATOM     27  C   UNL     1       0.970   2.888  19.612  0.00  0.00    +0.000 C 
ATOM     28  C   UNL     1       1.450   1.743  18.733  0.00  0.00    +0.000 C 
ENDBRANCH   1  27
TORSDOF 4
ENDMDL
MODEL 4
REMARK VINA RESULT:      -7.4      1.174      1.688
REMARK  Name = 
REMARK  6 active torsions:
REMARK  status: ('A' for Active; 'I' for Inactive)
REMARK    1  A    between atoms: C_1  and  C_2
REMARK    2  A    between atoms: C_2  and  N_3
REMARK    3  A    between atoms: N_3  and  C_4
REMARK    4  A    between atoms: C_4  and  C_5
REMARK    5  A    between atoms: C_9  and  S_10
REMARK    6  A    between atoms: S_10  and  C_13
REMARK                            x       y       z     vdW  Elec       q    Type
REMARK                         _______ _______ _______ _____ _____    ______ ____
ROOT
ATOM      1  N   UNL     1       2.522   3.188  19.993  0.00  0.00    +0.000 N 
ATOM      2  C   UNL     1       2.687   4.435  19.406  0.00  0.00    +0.000 A 
ATOM      3  N   UNL     1       2.141   5.492  19.951  0.00  0.00    +0.000 NA
ATOM      4  C   UNL     1       2.350   6.700  19.357  0.00  0.00    +0.000 A 
ATOM      5  C   UNL     1       1.913   7.988  19.597  0.00  0.00    +0.000 A 
ATOM      6  N   UNL     1       2.486   8.854  18.696  0.00  0.00    +0.000 NA
ATOM      7  N   UNL     1       3.262   8.147  17.881  0.00  0.00    +0.000 NA
ATOM      8  N   UNL     1       3.166   6.857  18.256  0.00  0.00    +0.000 N 
ATOM      9  C   UNL     1       3.808   5.785  17.632  0.00  0.00    +0.000 A 
ATOM     10  C   UNL     1       4.667   5.948  16.539  0.00  0.00    +0.000 A 
ATOM     11  C   UNL     1       5.268   4.815  15.988  0.00  0.00    +0.000 A 
ATOM     12 BR   UNL     1       6.460   4.986  14.536  0.00  0.00    +0.000 Br
ATOM     13  C   UNL     1       5.001   3.542  16.507  0.00  0.00    +0.000 A 
ATOM     14  C   UNL     1       4.152   3.394  17.604  0.00  0.00    +0.000 A 
ATOM     15  C   UNL     1       3.553   4.522  18.176  0.00  0.00    +0.000 A 
ENDROOT
BRANCH   5  16
ATOM     16  S   UNL     1       0.856   8.504  20.850  0.00  0.00    +0.000 S 
ATOM     17  O   UNL     1      -0.215   7.533  20.891  0.00  0.00    +0.000 OA
ATOM     18  O   UNL     1       1.701   8.747  22.011  0.00  0.00    +0.000 OA
BRANCH  16  19
ATOM     19  C   UNL     1       0.186  10.048  20.292  0.00  0.00    +0.000 A 
ATOM     20  C   UNL     1      -0.811  10.048  19.310  0.00  0.00    +0.000 A 
ATOM     21  C   UNL     1      -1.299  11.262  18.827  0.00  0.00    +0.000 A 
ATOM     22  C   UNL     1      -0.809  12.465  19.339  0.00  0.00    +0.000 A 
ATOM     23  C   UNL     1       0.148  12.459  20.355  0.00  0.00    +0.000 A 
ATOM     24  C   UNL     1       0.644  11.249  20.842  0.00  0.00    +0.000 A 
ENDBRANCH  16  19
ENDBRANCH   5  16
BRANCH   1  26
ATOM     25  C   UNL     1       1.554   2.562  22.186  0.00  0.00    +0.000 C 
ATOM     26  C   UNL     1       2.787   3.076  21.437  0.00  0.00    +0.000 C 
ENDBRANCH   1  26
BRANCH   1  27
ATOM     27  C   UNL     1       1.469   2.317  19.438  0.00  0.00    +0.000 C 
ATOM     28  C   UNL     1       0.365   3.054  18.696  0.00  0.00    +0.000 C 
ENDBRANCH   1  27
TORSDOF 4
ENDMDL
MODEL 5
REMARK VINA RESULT:      -7.3      1.279      1.712
REMARK  Name = 
REMARK  6 active torsions:
REMARK  status: ('A' for Active; 'I' for Inactive)
REMARK    1  A    between atoms: C_1  and  C_2
REMARK    2  A    between atoms: C_2  and  N_3
REMARK    3  A    between atoms: N_3  and  C_4
REMARK    4  A    between atoms: C_4  and  C_5
REMARK    5  A    between atoms: C_9  and  S_10
REMARK    6  A    between atoms: S_10  and  C_13
REMARK                            x       y       z     vdW  Elec       q    Type
REMARK                         _______ _______ _______ _____ _____    ______ ____
ROOT
ATOM      1  N   UNL     1       1.991   4.102  19.982  0.00  0.00    +0.000 N 
ATOM      2  C   UNL     1       2.300   5.268  19.293  0.00  0.00    +0.000 A 
ATOM      3  N   UNL     1       1.799   6.412  19.685  0.00  0.00    +0.000 NA
ATOM      4  C   UNL     1       2.149   7.534  18.998  0.00  0.00    +0.000 A 
ATOM      5  C   UNL     1       1.799   8.868  19.074  0.00  0.00    +0.000 A 
ATOM      6  N   UNL     1       2.508   9.594  18.146  0.00  0.00    +0.000 NA
ATOM      7  N   UNL     1       3.285   8.753  17.472  0.00  0.00    +0.000 NA
ATOM      8  N   UNL     1       3.059   7.519  17.960  0.00  0.00    +0.000 N 
ATOM      9  C   UNL     1       3.660   6.345  17.500  0.00  0.00    +0.000 A 
ATOM     10  C   UNL     1       4.611   6.334  16.473  0.00  0.00    +0.000 A 
ATOM     11  C   UNL     1       5.162   5.110  16.088  0.00  0.00    +0.000 A 
ATOM     12 BR   UNL     1       6.473   5.046  14.733  0.00  0.00    +0.000 Br
ATOM     13  C   UNL     1       4.755   3.919  16.703  0.00  0.00    +0.000 A 
ATOM     14  C   UNL     1       3.814   3.946  17.732  0.00  0.00    +0.000 A 
ATOM     15  C   UNL     1       3.264   5.167  18.139  0.00  0.00    +0.000 A 
ENDROOT
BRANCH   5  16
ATOM     16  S   UNL     1       0.692   9.584  20.177  0.00  0.00    +0.000 S 
ATOM     17  O   UNL     1      -0.574   8.921  19.956  0.00  0.00    +0.000 OA
ATOM     18  O   UNL     1       1.346   9.550  21.478  0.00  0.00    +0.000 OA
BRANCH  16  19
ATOM     19  C   UNL     1       0.535  11.271  19.655  0.00  0.00    +0.000 A 
ATOM     20  C   UNL     1      -0.441  11.608  18.711  0.00  0.00    +0.000 A 
ATOM     21  C   UNL     1      -0.529  12.924  18.254  0.00  0.00    +0.000 A 
ATOM     22  C   UNL     1       0.339  13.896  18.755  0.00  0.00    +0.000 A 
ATOM     23  C   UNL     1       1.276  13.565  19.735  0.00  0.00    +0.000 A 
ATOM     24  C   UNL     1       1.372  12.251  20.195  0.00  0.00    +0.000 A 
ENDBRANCH  16  19
ENDBRANCH   5  16
BRANCH   1  26
ATOM     25  C   UNL     1       1.949   2.720  22.037  0.00  0.00    +0.000 C 
ATOM     26  C   UNL     1       2.134   4.121  21.447  0.00  0.00    +0.000 C 
ENDBRANCH   1  26
BRANCH   1  27
ATOM     27  C   UNL     1       0.919   3.256  19.425  0.00  0.00    +0.000 C 
ATOM     28  C   UNL     1       1.407   1.998  18.724  0.00  0.00    +0.000 C 
ENDBRANCH   1  27
TORSDOF 4
ENDMDL
MODEL 6
REMARK VINA RESULT:      -7.1      5.758      8.146
REMARK  Name = 
REMARK  6 active torsions:
REMARK  status: ('A' for Active; 'I' for Inactive)
REMARK    1  A    between atoms: C_1  and  C_2
REMARK    2  A    between atoms: C_2  and  N_3
REMARK    3  A    between atoms: N_3  and  C_4
REMARK    4  A    between atoms: C_4  and  C_5
REMARK    5  A    between atoms: C_9  and  S_10
REMARK    6  A    between atoms: S_10  and  C_13
REMARK                            x       y       z     vdW  Elec       q    Type
REMARK                         _______ _______ _______ _____ _____    ______ ____
ROOT
ATOM      1  N   UNL     1      -1.650  13.063  21.733  0.00  0.00    +0.000 N 
ATOM      2  C   UNL     1      -2.042  12.382  20.589  0.00  0.00    +0.000 A 
ATOM      3  N   UNL     1      -3.218  12.611  20.061  0.00  0.00    +0.000 NA
ATOM      4  C   UNL     1      -3.551  11.941  18.924  0.00  0.00    +0.000 A 
ATOM      5  C   UNL     1      -4.680  11.877  18.129  0.00  0.00    +0.000 A 
ATOM      6  N   UNL     1      -4.449  11.060  17.049  0.00  0.00    +0.000 NA
ATOM      7  N   UNL     1      -3.209  10.589  17.146  0.00  0.00    +0.000 NA
ATOM      8  N   UNL     1      -2.677  11.093  18.275  0.00  0.00    +0.000 N 
ATOM      9  C   UNL     1      -1.394  10.817  18.756  0.00  0.00    +0.000 A 
ATOM     10  C   UNL     1      -0.493   9.989  18.079  0.00  0.00    +0.000 A 
ATOM     11  C   UNL     1       0.770   9.780  18.636  0.00  0.00    +0.000 A 
ATOM     12 BR   UNL     1       2.032   8.699  17.745  0.00  0.00    +0.000 Br
ATOM     13  C   UNL     1       1.117  10.372  19.857  0.00  0.00    +0.000 A 
ATOM     14  C   UNL     1       0.214  11.205  20.516  0.00  0.00    +0.000 A 
ATOM     15  C   UNL     1      -1.051  11.435  19.962  0.00  0.00    +0.000 A 
ENDROOT
BRANCH   5  16
ATOM     16  S   UNL     1      -6.161  12.714  18.372  0.00  0.00    +0.000 S 
ATOM     17  O   UNL     1      -5.800  14.080  18.683  0.00  0.00    +0.000 OA
ATOM     18  O   UNL     1      -6.994  12.396  17.221  0.00  0.00    +0.000 OA
BRANCH  16  19
ATOM     19  C   UNL     1      -6.878  11.985  19.821  0.00  0.00    +0.000 A 
ATOM     20  C   UNL     1      -6.983  12.746  20.991  0.00  0.00    +0.000 A 
ATOM     21  C   UNL     1      -7.493  12.157  22.149  0.00  0.00    +0.000 A 
ATOM     22  C   UNL     1      -7.914  10.827  22.129  0.00  0.00    +0.000 A 
ATOM     23  C   UNL     1      -7.856  10.088  20.946  0.00  0.00    +0.000 A 
ATOM     24  C   UNL     1      -7.345  10.668  19.784  0.00  0.00    +0.000 A 
ENDBRANCH  16  19
ENDBRANCH   5  16
BRANCH   1  26
ATOM     25  C   UNL     1      -1.051  15.176  20.586  0.00  0.00    +0.000 C 
ATOM     26  C   UNL     1      -1.816  14.527  21.743  0.00  0.00    +0.000 C 
ENDBRANCH   1  26
BRANCH   1  27
ATOM     27  C   UNL     1      -1.813  12.364  23.021  0.00  0.00    +0.000 C 
ATOM     28  C   UNL     1      -3.090  12.708  23.771  0.00  0.00    +0.000 C 
ENDBRANCH   1  27
TORSDOF 4
ENDMDL
MODEL 7
REMARK VINA RESULT:      -7.0      6.498      8.966
REMARK  Name = 
REMARK  6 active torsions:
REMARK  status: ('A' for Active; 'I' for Inactive)
REMARK    1  A    between atoms: C_1  and  C_2
REMARK    2  A    between atoms: C_2  and  N_3
REMARK    3  A    between atoms: N_3  and  C_4
REMARK    4  A    between atoms: C_4  and  C_5
REMARK    5  A    between atoms: C_9  and  S_10
REMARK    6  A    between atoms: S_10  and  C_13
REMARK                            x       y       z     vdW  Elec       q    Type
REMARK                         _______ _______ _______ _____ _____    ______ ____
ROOT
ATOM      1  N   UNL     1      -5.407  11.713  18.447  0.00  0.00    +0.000 N 
ATOM      2  C   UNL     1      -4.284  12.187  19.112  0.00  0.00    +0.000 A 
ATOM      3  N   UNL     1      -4.408  13.118  20.024  0.00  0.00    +0.000 NA
ATOM      4  C   UNL     1      -3.284  13.535  20.671  0.00  0.00    +0.000 A 
ATOM      5  C   UNL     1      -3.013  14.499  21.622  0.00  0.00    +0.000 A 
ATOM      6  N   UNL     1      -1.683  14.459  21.966  0.00  0.00    +0.000 NA
ATOM      7  N   UNL     1      -1.100  13.506  21.245  0.00  0.00    +0.000 NA
ATOM      8  N   UNL     1      -2.046  12.967  20.453  0.00  0.00    +0.000 N 
ATOM      9  C   UNL     1      -1.834  11.950  19.519  0.00  0.00    +0.000 A 
ATOM     10  C   UNL     1      -0.586  11.347  19.325  0.00  0.00    +0.000 A 
ATOM     11  C   UNL     1      -0.476  10.332  18.373  0.00  0.00    +0.000 A 
ATOM     12 BR   UNL     1       1.177   9.465  18.099  0.00  0.00    +0.000 Br
ATOM     13  C   UNL     1      -1.587   9.942  17.616  0.00  0.00    +0.000 A 
ATOM     14  C   UNL     1      -2.828  10.543  17.826  0.00  0.00    +0.000 A 
ATOM     15  C   UNL     1      -2.956  11.552  18.787  0.00  0.00    +0.000 A 
ENDROOT
BRANCH   5  16
ATOM     16  S   UNL     1      -4.136  15.579  22.347  0.00  0.00    +0.000 S 
ATOM     17  O   UNL     1      -3.437  16.196  23.453  0.00  0.00    +0.000 OA
ATOM     18  O   UNL     1      -4.684  16.376  21.259  0.00  0.00    +0.000 OA
BRANCH  16  19
ATOM     19  C   UNL     1      -5.418  14.546  23.008  0.00  0.00    +0.000 A 
ATOM     20  C   UNL     1      -6.755  14.922  22.840  0.00  0.00    +0.000 A 
ATOM     21  C   UNL     1      -7.763  14.142  23.409  0.00  0.00    +0.000 A 
ATOM     22  C   UNL     1      -7.435  12.987  24.120  0.00  0.00    +0.000 A 
ATOM     23  C   UNL     1      -6.103  12.588  24.239  0.00  0.00    +0.000 A 
ATOM     24  C   UNL     1      -5.089  13.364  23.676  0.00  0.00    +0.000 A 
ENDBRANCH  16  19
ENDBRANCH   5  16
BRANCH   1  26
ATOM     25  C   UNL     1      -6.801   9.809  19.201  0.00  0.00    +0.000 C 
ATOM     26  C   UNL     1      -6.566  11.321  19.266  0.00  0.00    +0.000 C 
ENDBRANCH   1  26
BRANCH   1  27
ATOM     27  C   UNL     1      -5.691  12.281  17.117  0.00  0.00    +0.000 C 
ATOM     28  C   UNL     1      -6.896  13.208  17.069  0.00  0.00    +0.000 C 
ENDBRANCH   1  27
TORSDOF 4
ENDMDL
MODEL 8
REMARK VINA RESULT:      -6.9      6.372      8.850
REMARK  Name = 
REMARK  6 active torsions:
REMARK  status: ('A' for Active; 'I' for Inactive)
REMARK    1  A    between atoms: C_1  and  C_2
REMARK    2  A    between atoms: C_2  and  N_3
REMARK    3  A    between atoms: N_3  and  C_4
REMARK    4  A    between atoms: C_4  and  C_5
REMARK    5  A    between atoms: C_9  and  S_10
REMARK    6  A    between atoms: S_10  and  C_13
REMARK                            x       y       z     vdW  Elec       q    Type
REMARK                         _______ _______ _______ _____ _____    ______ ____
ROOT
ATOM      1  N   UNL     1      -2.003  13.890  21.921  0.00  0.00    +0.000 N 
ATOM      2  C   UNL     1      -2.443  13.104  20.864  0.00  0.00    +0.000 A 
ATOM      3  N   UNL     1      -3.660  13.248  20.404  0.00  0.00    +0.000 NA
ATOM      4  C   UNL     1      -4.043  12.476  19.349  0.00  0.00    +0.000 A 
ATOM      5  C   UNL     1      -5.219  12.308  18.644  0.00  0.00    +0.000 A 
ATOM      6  N   UNL     1      -5.028  11.414  17.618  0.00  0.00    +0.000 NA
ATOM      7  N   UNL     1      -3.767  10.996  17.665  0.00  0.00    +0.000 NA
ATOM      8  N   UNL     1      -3.180  11.609  18.710  0.00  0.00    +0.000 N 
ATOM      9  C   UNL     1      -1.858  11.418  19.120  0.00  0.00    +0.000 A 
ATOM     10  C   UNL     1      -0.973  10.568  18.449  0.00  0.00    +0.000 A 
ATOM     11  C   UNL     1       0.332  10.449  18.931  0.00  0.00    +0.000 A 
ATOM     12 BR   UNL     1       1.574   9.343  18.041  0.00  0.00    +0.000 Br
ATOM     13  C   UNL     1       0.737  11.151  20.073  0.00  0.00    +0.000 A 
ATOM     14  C   UNL     1      -0.152  12.003  20.726  0.00  0.00    +0.000 A 
ATOM     15  C   UNL     1      -1.460  12.143  20.246  0.00  0.00    +0.000 A 
ENDROOT
BRANCH   5  16
ATOM     16  S   UNL     1      -6.712  13.111  18.923  0.00  0.00    +0.000 S 
ATOM     17  O   UNL     1      -6.423  14.526  18.852  0.00  0.00    +0.000 OA
ATOM     18  O   UNL     1      -7.674  12.489  18.024  0.00  0.00    +0.000 OA
BRANCH  16  19
ATOM     19  C   UNL     1      -7.150  12.717  20.596  0.00  0.00    +0.000 A 
ATOM     20  C   UNL     1      -7.028  13.699  21.586  0.00  0.00    +0.000 A 
ATOM     21  C   UNL     1      -7.316  13.376  22.912  0.00  0.00    +0.000 A 
ATOM     22  C   UNL     1      -7.741  12.088  23.241  0.00  0.00    +0.000 A 
ATOM     23  C   UNL     1      -7.911  11.127  22.243  0.00  0.00    +0.000 A 
ATOM     24  C   UNL     1      -7.623  11.441  20.914  0.00  0.00    +0.000 A 
ENDBRANCH  16  19
ENDBRANCH   5  16
BRANCH   1  26
ATOM     25  C   UNL     1      -1.090  16.026  21.060  0.00  0.00    +0.000 C 
ATOM     26  C   UNL     1      -2.227  15.342  21.826  0.00  0.00    +0.000 C 
ENDBRANCH   1  26
BRANCH   1  27
ATOM     27  C   UNL     1      -2.050  13.293  23.268  0.00  0.00    +0.000 C 
ATOM     28  C   UNL     1      -3.390  12.677  23.640  0.00  0.00    +0.000 C 
ENDBRANCH   1  27
TORSDOF 4
ENDMDL
MODEL 9
REMARK VINA RESULT:      -6.8      7.454      9.789
REMARK  Name = 
REMARK  6 active torsions:
REMARK  status: ('A' for Active; 'I' for Inactive)
REMARK    1  A    between atoms: C_1  and  C_2
REMARK    2  A    between atoms: C_2  and  N_3
REMARK    3  A    between atoms: N_3  and  C_4
REMARK    4  A    between atoms: C_4  and  C_5
REMARK    5  A    between atoms: C_9  and  S_10
REMARK    6  A    between atoms: S_10  and  C_13
REMARK                            x       y       z     vdW  Elec       q    Type
REMARK                         _______ _______ _______ _____ _____    ______ ____
ROOT
ATOM      1  N   UNL     1      -1.435  13.267  21.218  0.00  0.00    +0.000 N 
ATOM      2  C   UNL     1      -2.703  12.810  20.886  0.00  0.00    +0.000 A 
ATOM      3  N   UNL     1      -3.691  12.949  21.733  0.00  0.00    +0.000 NA
ATOM      4  C   UNL     1      -4.925  12.511  21.356  0.00  0.00    +0.000 A 
ATOM      5  C   UNL     1      -6.160  12.440  21.971  0.00  0.00    +0.000 A 
ATOM      6  N   UNL     1      -7.094  11.944  21.094  0.00  0.00    +0.000 NA
ATOM      7  N   UNL     1      -6.481  11.683  19.944  0.00  0.00    +0.000 NA
ATOM      8  N   UNL     1      -5.182  11.998  20.101  0.00  0.00    +0.000 N 
ATOM      9  C   UNL     1      -4.189  11.842  19.130  0.00  0.00    +0.000 A 
ATOM     10  C   UNL     1      -4.456  11.357  17.846  0.00  0.00    +0.000 A 
ATOM     11  C   UNL     1      -3.398  11.244  16.942  0.00  0.00    +0.000 A 
ATOM     12 BR   UNL     1      -3.712  10.628  15.187  0.00  0.00    +0.000 Br
ATOM     13  C   UNL     1      -2.095  11.591  17.322  0.00  0.00    +0.000 A 
ATOM     14  C   UNL     1      -1.845  12.083  18.602  0.00  0.00    +0.000 A 
ATOM     15  C   UNL     1      -2.898  12.215  19.515  0.00  0.00    +0.000 A 
ENDROOT
BRANCH   5  16
ATOM     16  S   UNL     1      -6.545  12.934  23.572  0.00  0.00    +0.000 S 
ATOM     17  O   UNL     1      -7.916  12.529  23.793  0.00  0.00    +0.000 OA
ATOM     18  O   UNL     1      -5.466  12.439  24.414  0.00  0.00    +0.000 OA
BRANCH  16  19
ATOM     19  C   UNL     1      -6.488  14.706  23.541  0.00  0.00    +0.000 A 
ATOM     20  C   UNL     1      -5.324  15.362  23.956  0.00  0.00    +0.000 A 
ATOM     21  C   UNL     1      -5.296  16.756  23.989  0.00  0.00    +0.000 A 
ATOM     22  C   UNL     1      -6.416  17.486  23.589  0.00  0.00    +0.000 A 
ATOM     23  C   UNL     1      -7.557  16.828  23.127  0.00  0.00    +0.000 A 
ATOM     24  C   UNL     1      -7.594  15.434  23.094  0.00  0.00    +0.000 A 
ENDBRANCH  16  19
ENDBRANCH   5  16
BRANCH   1  26
ATOM     25  C   UNL     1      -1.295  15.663  20.604  0.00  0.00    +0.000 C 
ATOM     26  C   UNL     1      -1.323  14.638  21.742  0.00  0.00    +0.000 C 
ENDBRANCH   1  26
BRANCH   1  27
ATOM     27  C   UNL     1      -0.476  12.273  21.735  0.00  0.00    +0.000 C 
ATOM     28  C   UNL     1       0.837  12.204  20.970  0.00  0.00    +0.000 C 
ENDBRANCH   1  27
TORSDOF 4
ENDMDL
