MODEL 1
REMARK VINA RESULT:      -6.6      0.000      0.000
REMARK  Name = 
REMARK  12 active torsions:
REMARK  status: ('A' for Active; 'I' for Inactive)
REMARK    1  A    between atoms: C_1  and  C_2
REMARK    2  A    between atoms: C_2  and  O_3
REMARK    3  A    between atoms: O_3  and  C_4
REMARK    4  A    between atoms: C_9  and  N_10
REMARK    5  A    between atoms: C_11  and  S_12
REMARK    6  A    between atoms: S_12  and  C_13
REMARK    7  A    between atoms: C_13  and  C_14
REMARK    8  A    between atoms: N_16  and  C_17
REMARK    9  A    between atoms: N_16  and  C_19
REMARK   10  A    between atoms: C_17  and  C_18
REMARK   11  A    between atoms: C_19  and  C_20
REMARK   12  A    between atoms: C_23  and  C_24
REMARK                            x       y       z     vdW  Elec       q    Type
REMARK                         _______ _______ _______ _____ _____    ______ ____
ROOT
ATOM      1  N   UNL     1       0.002  10.312  20.961  0.00  0.00    +0.000 N 
ATOM      2  C   UNL     1       0.899   9.233  21.096  0.00  0.00    +0.000 A 
ATOM      3  N   UNL     1       1.153   9.008  22.364  0.00  0.00    +0.000 NA
ATOM      4  N   UNL     1       0.511   9.945  23.108  0.00  0.00    +0.000 NA
ATOM      5  C   UNL     1      -0.195  10.727  22.307  0.00  0.00    +0.000 A 
ENDROOT
BRANCH   1  11
ATOM      6  C   UNL     1      -0.315  12.205  19.308  0.00  0.00    +0.000 A 
ATOM      7  C   UNL     1      -0.987  12.656  18.146  0.00  0.00    +0.000 A 
ATOM      8  C   UNL     1      -1.856  11.849  17.416  0.00  0.00    +0.000 A 
ATOM      9  C   UNL     1      -2.115  10.572  17.872  0.00  0.00    +0.000 A 
ATOM     10  C   UNL     1      -1.523  10.133  19.061  0.00  0.00    +0.000 A 
ATOM     11  C   UNL     1      -0.590  10.919  19.794  0.00  0.00    +0.000 A 
BRANCH   6  12
ATOM     12  O   UNL     1       0.511  13.183  19.774  0.00  0.00    +0.000 OA
BRANCH  12  14
ATOM     13  C   UNL     1       0.218  15.542  20.359  0.00  0.00    +0.000 C 
ATOM     14  C   UNL     1       0.440  14.509  19.282  0.00  0.00    +0.000 C 
ENDBRANCH  12  14
ENDBRANCH   6  12
ENDBRANCH   1  11
BRANCH   5  15
ATOM     15  C   UNL     1      -1.040  11.817  22.831  0.00  0.00    +0.000 A 
ATOM     16  C   UNL     1      -2.388  11.589  23.111  0.00  0.00    +0.000 A 
ATOM     17  C   UNL     1      -3.157  12.624  23.642  0.00  0.00    +0.000 A 
ATOM     18  C   UNL     1      -2.569  13.856  23.870  0.00  0.00    +0.000 A 
ATOM     19  C   UNL     1      -1.230  14.013  23.539  0.00  0.00    +0.000 A 
ATOM     20  N   UNL     1      -0.460  13.027  23.016  0.00  0.00    +0.000 NA
ENDBRANCH   5  15
BRANCH   2  21
ATOM     21  S   UNL     1       1.733   8.321  19.861  0.00  0.00    +0.000 S 
BRANCH  21  22
ATOM     22  C   UNL     1       1.803   6.625  20.648  0.00  0.00    +0.000 C 
BRANCH  22  23
ATOM     23  C   UNL     1       2.634   5.611  19.821  0.00  0.00    +0.000 C 
ATOM     24  O   UNL     1       3.653   5.966  19.214  0.00  0.00    +0.000 OA
ATOM     25  N   UNL     1       2.190   4.286  19.719  0.00  0.00    +0.000 N 
BRANCH  25  26
ATOM     26  C   UNL     1       1.008   3.727  20.397  0.00  0.00    +0.000 C 
ATOM     27  C   UNL     1       1.368   2.771  21.528  0.00  0.00    +0.000 C 
ENDBRANCH  25  26
BRANCH  25  28
ATOM     28  C   UNL     1       2.996   3.327  18.951  0.00  0.00    +0.000 C 
ATOM     29  C   UNL     1       2.493   3.152  17.523  0.00  0.00    +0.000 C 
ENDBRANCH  25  28
ENDBRANCH  22  23
ENDBRANCH  21  22
ENDBRANCH   2  21
TORSDOF 9
ENDMDL
MODEL 2
REMARK VINA RESULT:      -6.4      1.158      2.381
REMARK  Name = 
REMARK  12 active torsions:
REMARK  status: ('A' for Active; 'I' for Inactive)
REMARK    1  A    between atoms: C_1  and  C_2
REMARK    2  A    between atoms: C_2  and  O_3
REMARK    3  A    between atoms: O_3  and  C_4
REMARK    4  A    between atoms: C_9  and  N_10
REMARK    5  A    between atoms: C_11  and  S_12
REMARK    6  A    between atoms: S_12  and  C_13
REMARK    7  A    between atoms: C_13  and  C_14
REMARK    8  A    between atoms: N_16  and  C_17
REMARK    9  A    between atoms: N_16  and  C_19
REMARK   10  A    between atoms: C_17  and  C_18
REMARK   11  A    between atoms: C_19  and  C_20
REMARK   12  A    between atoms: C_23  and  C_24
REMARK                            x       y       z     vdW  Elec       q    Type
REMARK                         _______ _______ _______ _____ _____    ______ ____
ROOT
ATOM      1  N   UNL     1      -0.109  10.752  21.245  0.00  0.00    +0.000 N 
ATOM      2  C   UNL     1       0.485   9.474  21.284  0.00  0.00    +0.000 A 
ATOM      3  N   UNL     1       0.167   8.857  22.398  0.00  0.00    +0.000 NA
ATOM      4  N   UNL     1      -0.574   9.699  23.163  0.00  0.00    +0.000 NA
ATOM      5  C   UNL     1      -0.770  10.829  22.502  0.00  0.00    +0.000 A 
ENDROOT
BRANCH   1  11
ATOM      6  C   UNL     1      -1.000  11.939  19.193  0.00  0.00    +0.000 A 
ATOM      7  C   UNL     1      -0.830  13.011  18.284  0.00  0.00    +0.000 A 
ATOM      8  C   UNL     1       0.170  13.969  18.425  0.00  0.00    +0.000 A 
ATOM      9  C   UNL     1       1.067  13.842  19.467  0.00  0.00    +0.000 A 
ATOM     10  C   UNL     1       0.965  12.747  20.332  0.00  0.00    +0.000 A 
ATOM     11  C   UNL     1      -0.080  11.786  20.240  0.00  0.00    +0.000 A 
BRANCH   6  12
ATOM     12  O   UNL     1      -2.089  11.200  18.840  0.00  0.00    +0.000 OA
BRANCH  12  14
ATOM     13  C   UNL     1      -2.312   9.991  16.723  0.00  0.00    +0.000 C 
ATOM     14  C   UNL     1      -2.612  11.234  17.525  0.00  0.00    +0.000 C 
ENDBRANCH  12  14
ENDBRANCH   6  12
ENDBRANCH   1  11
BRANCH   5  15
ATOM     15  C   UNL     1      -1.582  11.926  23.061  0.00  0.00    +0.000 A 
ATOM     16  C   UNL     1      -1.031  13.200  23.214  0.00  0.00    +0.000 A 
ATOM     17  C   UNL     1      -1.829  14.231  23.710  0.00  0.00    +0.000 A 
ATOM     18  C   UNL     1      -3.146  13.966  24.046  0.00  0.00    +0.000 A 
ATOM     19  C   UNL     1      -3.612  12.667  23.891  0.00  0.00    +0.000 A 
ATOM     20  N   UNL     1      -2.857  11.644  23.419  0.00  0.00    +0.000 NA
ENDBRANCH   5  15
BRANCH   2  21
ATOM     21  S   UNL     1       1.601   8.733  20.161  0.00  0.00    +0.000 S 
BRANCH  21  22
ATOM     22  C   UNL     1       1.510   6.941  20.690  0.00  0.00    +0.000 C 
BRANCH  22  23
ATOM     23  C   UNL     1       2.391   6.010  19.816  0.00  0.00    +0.000 C 
ATOM     24  O   UNL     1       3.338   6.462  19.158  0.00  0.00    +0.000 OA
ATOM     25  N   UNL     1       2.073   4.649  19.733  0.00  0.00    +0.000 N 
BRANCH  25  26
ATOM     26  C   UNL     1       0.988   3.979  20.470  0.00  0.00    +0.000 C 
ATOM     27  C   UNL     1       1.493   2.908  21.429  0.00  0.00    +0.000 C 
ENDBRANCH  25  26
BRANCH  25  28
ATOM     28  C   UNL     1       2.927   3.771  18.921  0.00  0.00    +0.000 C 
ATOM     29  C   UNL     1       2.233   3.292  17.651  0.00  0.00    +0.000 C 
ENDBRANCH  25  28
ENDBRANCH  22  23
ENDBRANCH  21  22
ENDBRANCH   2  21
TORSDOF 9
ENDMDL
MODEL 3
REMARK VINA RESULT:      -6.4      1.010      2.154
REMARK  Name = 
REMARK  12 active torsions:
REMARK  status: ('A' for Active; 'I' for Inactive)
REMARK    1  A    between atoms: C_1  and  C_2
REMARK    2  A    between atoms: C_2  and  O_3
REMARK    3  A    between atoms: O_3  and  C_4
REMARK    4  A    between atoms: C_9  and  N_10
REMARK    5  A    between atoms: C_11  and  S_12
REMARK    6  A    between atoms: S_12  and  C_13
REMARK    7  A    between atoms: C_13  and  C_14
REMARK    8  A    between atoms: N_16  and  C_17
REMARK    9  A    between atoms: N_16  and  C_19
REMARK   10  A    between atoms: C_17  and  C_18
REMARK   11  A    between atoms: C_19  and  C_20
REMARK   12  A    between atoms: C_23  and  C_24
REMARK                            x       y       z     vdW  Elec       q    Type
REMARK                         _______ _______ _______ _____ _____    ______ ____
ROOT
ATOM      1  N   UNL     1       0.008  10.760  21.184  0.00  0.00    +0.000 N 
ATOM      2  C   UNL     1       0.625   9.495  21.249  0.00  0.00    +0.000 A 
ATOM      3  N   UNL     1       0.425   8.949  22.425  0.00  0.00    +0.000 NA
ATOM      4  N   UNL     1      -0.256   9.832  23.202  0.00  0.00    +0.000 NA
ATOM      5  C   UNL     1      -0.533  10.913  22.490  0.00  0.00    +0.000 A 
ENDROOT
BRANCH   1  11
ATOM      6  C   UNL     1      -1.050  11.750  19.106  0.00  0.00    +0.000 A 
ATOM      7  C   UNL     1      -0.992  12.769  18.124  0.00  0.00    +0.000 A 
ATOM      8  C   UNL     1      -0.055  13.798  18.158  0.00  0.00    +0.000 A 
ATOM      9  C   UNL     1       0.892  13.798  19.163  0.00  0.00    +0.000 A 
ATOM     10  C   UNL     1       0.903  12.758  20.098  0.00  0.00    +0.000 A 
ATOM     11  C   UNL     1      -0.078  11.727  20.116  0.00  0.00    +0.000 A 
BRANCH   6  12
ATOM     12  O   UNL     1      -2.100  10.920  18.852  0.00  0.00    +0.000 OA
BRANCH  12  14
ATOM     13  C   UNL     1      -4.305  11.013  17.793  0.00  0.00    +0.000 C 
ATOM     14  C   UNL     1      -2.806  10.974  17.625  0.00  0.00    +0.000 C 
ENDBRANCH  12  14
ENDBRANCH   6  12
ENDBRANCH   1  11
BRANCH   5  15
ATOM     15  C   UNL     1      -1.308  12.036  23.052  0.00  0.00    +0.000 A 
ATOM     16  C   UNL     1      -2.680  11.902  23.273  0.00  0.00    +0.000 A 
ATOM     17  C   UNL     1      -3.384  12.964  23.841  0.00  0.00    +0.000 A 
ATOM     18  C   UNL     1      -2.709  14.128  24.164  0.00  0.00    +0.000 A 
ATOM     19  C   UNL     1      -1.350  14.194  23.888  0.00  0.00    +0.000 A 
ATOM     20  N   UNL     1      -0.641  13.181  23.331  0.00  0.00    +0.000 NA
ENDBRANCH   5  15
BRANCH   2  21
ATOM     21  S   UNL     1       1.643   8.695  20.075  0.00  0.00    +0.000 S 
BRANCH  21  22
ATOM     22  C   UNL     1       1.562   6.924  20.673  0.00  0.00    +0.000 C 
BRANCH  22  23
ATOM     23  C   UNL     1       2.420   5.959  19.814  0.00  0.00    +0.000 C 
ATOM     24  O   UNL     1       3.392   6.373  19.168  0.00  0.00    +0.000 OA
ATOM     25  N   UNL     1       2.053   4.609  19.730  0.00  0.00    +0.000 N 
BRANCH  25  26
ATOM     26  C   UNL     1       0.933   3.983  20.453  0.00  0.00    +0.000 C 
ATOM     27  C   UNL     1       1.387   2.913  21.440  0.00  0.00    +0.000 C 
ENDBRANCH  25  26
BRANCH  25  28
ATOM     28  C   UNL     1       2.885   3.698  18.931  0.00  0.00    +0.000 C 
ATOM     29  C   UNL     1       2.310   3.448  17.542  0.00  0.00    +0.000 C 
ENDBRANCH  25  28
ENDBRANCH  22  23
ENDBRANCH  21  22
ENDBRANCH   2  21
TORSDOF 9
ENDMDL
MODEL 4
REMARK VINA RESULT:      -6.3      3.383      9.969
REMARK  Name = 
REMARK  12 active torsions:
REMARK  status: ('A' for Active; 'I' for Inactive)
REMARK    1  A    between atoms: C_1  and  C_2
REMARK    2  A    between atoms: C_2  and  O_3
REMARK    3  A    between atoms: O_3  and  C_4
REMARK    4  A    between atoms: C_9  and  N_10
REMARK    5  A    between atoms: C_11  and  S_12
REMARK    6  A    between atoms: S_12  and  C_13
REMARK    7  A    between atoms: C_13  and  C_14
REMARK    8  A    between atoms: N_16  and  C_17
REMARK    9  A    between atoms: N_16  and  C_19
REMARK   10  A    between atoms: C_17  and  C_18
REMARK   11  A    between atoms: C_19  and  C_20
REMARK   12  A    between atoms: C_23  and  C_24
REMARK                            x       y       z     vdW  Elec       q    Type
REMARK                         _______ _______ _______ _____ _____    ______ ____
ROOT
ATOM      1  N   UNL     1       3.764   5.698  17.701  0.00  0.00    +0.000 N 
ATOM      2  C   UNL     1       3.164   6.840  18.267  0.00  0.00    +0.000 A 
ATOM      3  N   UNL     1       3.489   7.912  17.584  0.00  0.00    +0.000 NA
ATOM      4  N   UNL     1       4.353   7.553  16.600  0.00  0.00    +0.000 NA
ATOM      5  C   UNL     1       4.526   6.241  16.631  0.00  0.00    +0.000 A 
ENDROOT
BRANCH   1  11
ATOM      6  C   UNL     1       4.610   3.623  18.881  0.00  0.00    +0.000 A 
ATOM      7  C   UNL     1       4.401   2.247  19.144  0.00  0.00    +0.000 A 
ATOM      8  C   UNL     1       3.282   1.554  18.691  0.00  0.00    +0.000 A 
ATOM      9  C   UNL     1       2.361   2.222  17.907  0.00  0.00    +0.000 A 
ATOM     10  C   UNL     1       2.588   3.560  17.570  0.00  0.00    +0.000 A 
ATOM     11  C   UNL     1       3.695   4.304  18.066  0.00  0.00    +0.000 A 
BRANCH   6  12
ATOM     12  O   UNL     1       5.750   4.044  19.497  0.00  0.00    +0.000 OA
BRANCH  12  14
ATOM     13  C   UNL     1       7.433   5.792  19.169  0.00  0.00    +0.000 C 
ATOM     14  C   UNL     1       6.887   4.448  18.754  0.00  0.00    +0.000 C 
ENDBRANCH  12  14
ENDBRANCH   6  12
ENDBRANCH   1  11
BRANCH   5  15
ATOM     15  C   UNL     1       5.381   5.547  15.649  0.00  0.00    +0.000 A 
ATOM     16  C   UNL     1       4.840   4.568  14.814  0.00  0.00    +0.000 A 
ATOM     17  C   UNL     1       5.659   3.952  13.868  0.00  0.00    +0.000 A 
ATOM     18  C   UNL     1       6.992   4.319  13.785  0.00  0.00    +0.000 A 
ATOM     19  C   UNL     1       7.462   5.280  14.669  0.00  0.00    +0.000 A 
ATOM     20  N   UNL     1       6.690   5.891  15.603  0.00  0.00    +0.000 NA
ENDBRANCH   5  15
BRANCH   2  21
ATOM     21  S   UNL     1       2.215   6.988  19.728  0.00  0.00    +0.000 S 
BRANCH  21  22
ATOM     22  C   UNL     1       1.500   8.704  19.523  0.00  0.00    +0.000 C 
BRANCH  22  23
ATOM     23  C   UNL     1       0.936   9.283  20.846  0.00  0.00    +0.000 C 
ATOM     24  O   UNL     1       1.062   8.670  21.915  0.00  0.00    +0.000 OA
ATOM     25  N   UNL     1       0.228  10.492  20.817  0.00  0.00    +0.000 N 
BRANCH  25  26
ATOM     26  C   UNL     1       0.017  11.328  19.623  0.00  0.00    +0.000 C 
ATOM     27  C   UNL     1       1.139  12.334  19.396  0.00  0.00    +0.000 C 
ENDBRANCH  25  26
BRANCH  25  28
ATOM     28  C   UNL     1      -0.283  11.043  22.079  0.00  0.00    +0.000 C 
ATOM     29  C   UNL     1      -1.530  11.897  21.881  0.00  0.00    +0.000 C 
ENDBRANCH  25  28
ENDBRANCH  22  23
ENDBRANCH  21  22
ENDBRANCH   2  21
TORSDOF 9
ENDMDL
MODEL 5
REMARK VINA RESULT:      -6.2      0.736      1.045
REMARK  Name = 
REMARK  12 active torsions:
REMARK  status: ('A' for Active; 'I' for Inactive)
REMARK    1  A    between atoms: C_1  and  C_2
REMARK    2  A    between atoms: C_2  and  O_3
REMARK    3  A    between atoms: O_3  and  C_4
REMARK    4  A    between atoms: C_9  and  N_10
REMARK    5  A    between atoms: C_11  and  S_12
REMARK    6  A    between atoms: S_12  and  C_13
REMARK    7  A    between atoms: C_13  and  C_14
REMARK    8  A    between atoms: N_16  and  C_17
REMARK    9  A    between atoms: N_16  and  C_19
REMARK   10  A    between atoms: C_17  and  C_18
REMARK   11  A    between atoms: C_19  and  C_20
REMARK   12  A    between atoms: C_23  and  C_24
REMARK                            x       y       z     vdW  Elec       q    Type
REMARK                         _______ _______ _______ _____ _____    ______ ____
ROOT
ATOM      1  N   UNL     1      -0.027  10.260  20.840  0.00  0.00    +0.000 N 
ATOM      2  C   UNL     1       0.925   9.226  20.950  0.00  0.00    +0.000 A 
ATOM      3  N   UNL     1       1.228   9.017  22.209  0.00  0.00    +0.000 NA
ATOM      4  N   UNL     1       0.563   9.925  22.971  0.00  0.00    +0.000 NA
ATOM      5  C   UNL     1      -0.204  10.669  22.191  0.00  0.00    +0.000 A 
ENDROOT
BRANCH   1  11
ATOM      6  C   UNL     1      -0.437  12.105  19.154  0.00  0.00    +0.000 A 
ATOM      7  C   UNL     1      -1.172  12.523  18.018  0.00  0.00    +0.000 A 
ATOM      8  C   UNL     1      -2.079  11.696  17.360  0.00  0.00    +0.000 A 
ATOM      9  C   UNL     1      -2.312  10.433  17.866  0.00  0.00    +0.000 A 
ATOM     10  C   UNL     1      -1.655  10.028  19.033  0.00  0.00    +0.000 A 
ATOM     11  C   UNL     1      -0.684  10.834  19.691  0.00  0.00    +0.000 A 
BRANCH   6  12
ATOM     12  O   UNL     1       0.413  13.095  19.545  0.00  0.00    +0.000 OA
BRANCH  12  14
ATOM     13  C   UNL     1       0.318  15.536  19.710  0.00  0.00    +0.000 C 
ATOM     14  C   UNL     1       0.501  14.318  18.837  0.00  0.00    +0.000 C 
ENDBRANCH  12  14
ENDBRANCH   6  12
ENDBRANCH   1  11
BRANCH   5  15
ATOM     15  C   UNL     1      -1.084  11.718  22.738  0.00  0.00    +0.000 A 
ATOM     16  C   UNL     1      -0.670  13.051  22.743  0.00  0.00    +0.000 A 
ATOM     17  C   UNL     1      -1.535  14.031  23.231  0.00  0.00    +0.000 A 
ATOM     18  C   UNL     1      -2.780  13.657  23.708  0.00  0.00    +0.000 A 
ATOM     19  C   UNL     1      -3.107  12.309  23.696  0.00  0.00    +0.000 A 
ATOM     20  N   UNL     1      -2.285  11.334  23.234  0.00  0.00    +0.000 NA
ENDBRANCH   5  15
BRANCH   2  21
ATOM     21  S   UNL     1       1.764   8.351  19.691  0.00  0.00    +0.000 S 
BRANCH  21  22
ATOM     22  C   UNL     1       1.893   6.649  20.457  0.00  0.00    +0.000 C 
BRANCH  22  23
ATOM     23  C   UNL     1       2.942   5.751  19.754  0.00  0.00    +0.000 C 
ATOM     24  O   UNL     1       3.644   6.190  18.833  0.00  0.00    +0.000 OA
ATOM     25  N   UNL     1       3.056   4.407  20.134  0.00  0.00    +0.000 N 
BRANCH  25  26
ATOM     26  C   UNL     1       2.297   3.760  21.218  0.00  0.00    +0.000 C 
ATOM     27  C   UNL     1       0.998   3.124  20.737  0.00  0.00    +0.000 C 
ENDBRANCH  25  26
BRANCH  25  28
ATOM     28  C   UNL     1       4.068   3.569  19.476  0.00  0.00    +0.000 C 
ATOM     29  C   UNL     1       3.529   2.867  18.236  0.00  0.00    +0.000 C 
ENDBRANCH  25  28
ENDBRANCH  22  23
ENDBRANCH  21  22
ENDBRANCH   2  21
TORSDOF 9
ENDMDL
MODEL 6
REMARK VINA RESULT:      -6.1      1.454      2.001
REMARK  Name = 
REMARK  12 active torsions:
REMARK  status: ('A' for Active; 'I' for Inactive)
REMARK    1  A    between atoms: C_1  and  C_2
REMARK    2  A    between atoms: C_2  and  O_3
REMARK    3  A    between atoms: O_3  and  C_4
REMARK    4  A    between atoms: C_9  and  N_10
REMARK    5  A    between atoms: C_11  and  S_12
REMARK    6  A    between atoms: S_12  and  C_13
REMARK    7  A    between atoms: C_13  and  C_14
REMARK    8  A    between atoms: N_16  and  C_17
REMARK    9  A    between atoms: N_16  and  C_19
REMARK   10  A    between atoms: C_17  and  C_18
REMARK   11  A    between atoms: C_19  and  C_20
REMARK   12  A    between atoms: C_23  and  C_24
REMARK                            x       y       z     vdW  Elec       q    Type
REMARK                         _______ _______ _______ _____ _____    ______ ____
ROOT
ATOM      1  N   UNL     1       0.215  10.075  20.370  0.00  0.00    +0.000 N 
ATOM      2  C   UNL     1       1.154   9.023  20.393  0.00  0.00    +0.000 A 
ATOM      3  N   UNL     1       1.588   8.827  21.616  0.00  0.00    +0.000 NA
ATOM      4  N   UNL     1       1.027   9.759  22.430  0.00  0.00    +0.000 NA
ATOM      5  C   UNL     1       0.194  10.507  21.724  0.00  0.00    +0.000 A 
ENDROOT
BRANCH   1  11
ATOM      6  C   UNL     1      -0.333  11.898  18.699  0.00  0.00    +0.000 A 
ATOM      7  C   UNL     1      -1.180  12.314  17.644  0.00  0.00    +0.000 A 
ATOM      8  C   UNL     1      -2.177  11.502  17.111  0.00  0.00    +0.000 A 
ATOM      9  C   UNL     1      -2.385  10.255  17.668  0.00  0.00    +0.000 A 
ATOM     10  C   UNL     1      -1.611   9.854  18.762  0.00  0.00    +0.000 A 
ATOM     11  C   UNL     1      -0.551  10.645  19.288  0.00  0.00    +0.000 A 
BRANCH   6  12
ATOM     12  O   UNL     1       0.581  12.870  18.971  0.00  0.00    +0.000 OA
BRANCH  12  14
ATOM     13  C   UNL     1       2.722  13.806  18.240  0.00  0.00    +0.000 C 
ATOM     14  C   UNL     1       1.972  12.638  18.833  0.00  0.00    +0.000 C 
ENDBRANCH  12  14
ENDBRANCH   6  12
ENDBRANCH   1  11
BRANCH   5  15
ATOM     15  C   UNL     1      -0.601  11.582  22.346  0.00  0.00    +0.000 A 
ATOM     16  C   UNL     1      -1.816  11.288  22.968  0.00  0.00    +0.000 A 
ATOM     17  C   UNL     1      -2.532  12.315  23.583  0.00  0.00    +0.000 A 
ATOM     18  C   UNL     1      -2.027  13.603  23.554  0.00  0.00    +0.000 A 
ATOM     19  C   UNL     1      -0.827  13.821  22.892  0.00  0.00    +0.000 A 
ATOM     20  N   UNL     1      -0.113  12.843  22.280  0.00  0.00    +0.000 NA
ENDBRANCH   5  15
BRANCH   2  21
ATOM     21  S   UNL     1       1.834   8.113  19.066  0.00  0.00    +0.000 S 
BRANCH  21  22
ATOM     22  C   UNL     1       2.400   6.560  19.944  0.00  0.00    +0.000 C 
BRANCH  22  23
ATOM     23  C   UNL     1       2.281   5.292  19.061  0.00  0.00    +0.000 C 
ATOM     24  O   UNL     1       1.259   4.593  19.083  0.00  0.00    +0.000 OA
ATOM     25  N   UNL     1       3.370   4.907  18.268  0.00  0.00    +0.000 N 
BRANCH  25  26
ATOM     26  C   UNL     1       4.635   5.650  18.136  0.00  0.00    +0.000 C 
ATOM     27  C   UNL     1       4.656   6.578  16.927  0.00  0.00    +0.000 C 
ENDBRANCH  25  26
BRANCH  25  28
ATOM     28  C   UNL     1       3.239   3.715  17.417  0.00  0.00    +0.000 C 
ATOM     29  C   UNL     1       3.792   2.460  18.081  0.00  0.00    +0.000 C 
ENDBRANCH  25  28
ENDBRANCH  22  23
ENDBRANCH  21  22
ENDBRANCH   2  21
TORSDOF 9
ENDMDL
MODEL 7
REMARK VINA RESULT:      -6.1      3.236      9.692
REMARK  Name = 
REMARK  12 active torsions:
REMARK  status: ('A' for Active; 'I' for Inactive)
REMARK    1  A    between atoms: C_1  and  C_2
REMARK    2  A    between atoms: C_2  and  O_3
REMARK    3  A    between atoms: O_3  and  C_4
REMARK    4  A    between atoms: C_9  and  N_10
REMARK    5  A    between atoms: C_11  and  S_12
REMARK    6  A    between atoms: S_12  and  C_13
REMARK    7  A    between atoms: C_13  and  C_14
REMARK    8  A    between atoms: N_16  and  C_17
REMARK    9  A    between atoms: N_16  and  C_19
REMARK   10  A    between atoms: C_17  and  C_18
REMARK   11  A    between atoms: C_19  and  C_20
REMARK   12  A    between atoms: C_23  and  C_24
REMARK                            x       y       z     vdW  Elec       q    Type
REMARK                         _______ _______ _______ _____ _____    ______ ____
ROOT
ATOM      1  N   UNL     1       3.485   5.657  18.082  0.00  0.00    +0.000 N 
ATOM      2  C   UNL     1       2.806   6.748  18.661  0.00  0.00    +0.000 A 
ATOM      3  N   UNL     1       3.101   7.858  18.027  0.00  0.00    +0.000 NA
ATOM      4  N   UNL     1       4.019   7.577  17.067  0.00  0.00    +0.000 NA
ATOM      5  C   UNL     1       4.259   6.275  17.062  0.00  0.00    +0.000 A 
ENDROOT
BRANCH   1  11
ATOM      6  C   UNL     1       4.546   3.520  18.931  0.00  0.00    +0.000 A 
ATOM      7  C   UNL     1       4.375   2.137  19.184  0.00  0.00    +0.000 A 
ATOM      8  C   UNL     1       3.160   1.481  18.999  0.00  0.00    +0.000 A 
ATOM      9  C   UNL     1       2.091   2.197  18.498  0.00  0.00    +0.000 A 
ATOM     10  C   UNL     1       2.260   3.545  18.167  0.00  0.00    +0.000 A 
ATOM     11  C   UNL     1       3.474   4.250  18.399  0.00  0.00    +0.000 A 
BRANCH   6  12
ATOM     12  O   UNL     1       5.814   3.897  19.257  0.00  0.00    +0.000 OA
BRANCH  12  14
ATOM     13  C   UNL     1       7.573   5.599  19.305  0.00  0.00    +0.000 C 
ATOM     14  C   UNL     1       6.130   5.242  19.568  0.00  0.00    +0.000 C 
ENDBRANCH  12  14
ENDBRANCH   6  12
ENDBRANCH   1  11
BRANCH   5  15
ATOM     15  C   UNL     1       5.185   5.659  16.093  0.00  0.00    +0.000 A 
ATOM     16  C   UNL     1       4.750   4.622  15.266  0.00  0.00    +0.000 A 
ATOM     17  C   UNL     1       5.633   4.081  14.332  0.00  0.00    +0.000 A 
ATOM     18  C   UNL     1       6.922   4.579  14.251  0.00  0.00    +0.000 A 
ATOM     19  C   UNL     1       7.288   5.592  15.127  0.00  0.00    +0.000 A 
ATOM     20  N   UNL     1       6.454   6.132  16.049  0.00  0.00    +0.000 NA
ENDBRANCH   5  15
BRANCH   2  21
ATOM     21  S   UNL     1       1.796   6.796  20.087  0.00  0.00    +0.000 S 
BRANCH  21  22
ATOM     22  C   UNL     1       1.861   8.617  20.515  0.00  0.00    +0.000 C 
BRANCH  22  23
ATOM     23  C   UNL     1       0.470   9.299  20.453  0.00  0.00    +0.000 C 
ATOM     24  O   UNL     1      -0.470   8.896  21.151  0.00  0.00    +0.000 OA
ATOM     25  N   UNL     1       0.266  10.354  19.553  0.00  0.00    +0.000 N 
BRANCH  25  26
ATOM     26  C   UNL     1       1.295  10.940  18.678  0.00  0.00    +0.000 C 
ATOM     27  C   UNL     1       1.302  12.464  18.707  0.00  0.00    +0.000 C 
ENDBRANCH  25  26
BRANCH  25  28
ATOM     28  C   UNL     1      -1.049  11.009  19.518  0.00  0.00    +0.000 C 
ATOM     29  C   UNL     1      -1.894  10.560  18.332  0.00  0.00    +0.000 C 
ENDBRANCH  25  28
ENDBRANCH  22  23
ENDBRANCH  21  22
ENDBRANCH   2  21
TORSDOF 9
ENDMDL
MODEL 8
REMARK VINA RESULT:      -6.0      3.167      7.753
REMARK  Name = 
REMARK  12 active torsions:
REMARK  status: ('A' for Active; 'I' for Inactive)
REMARK    1  A    between atoms: C_1  and  C_2
REMARK    2  A    between atoms: C_2  and  O_3
REMARK    3  A    between atoms: O_3  and  C_4
REMARK    4  A    between atoms: C_9  and  N_10
REMARK    5  A    between atoms: C_11  and  S_12
REMARK    6  A    between atoms: S_12  and  C_13
REMARK    7  A    between atoms: C_13  and  C_14
REMARK    8  A    between atoms: N_16  and  C_17
REMARK    9  A    between atoms: N_16  and  C_19
REMARK   10  A    between atoms: C_17  and  C_18
REMARK   11  A    between atoms: C_19  and  C_20
REMARK   12  A    between atoms: C_23  and  C_24
REMARK                            x       y       z     vdW  Elec       q    Type
REMARK                         _______ _______ _______ _____ _____    ______ ____
ROOT
ATOM      1  N   UNL     1      -0.091  11.414  21.408  0.00  0.00    +0.000 N 
ATOM      2  C   UNL     1      -0.850  11.528  22.590  0.00  0.00    +0.000 A 
ATOM      3  N   UNL     1      -1.002  10.351  23.150  0.00  0.00    +0.000 NA
ATOM      4  N   UNL     1      -0.426   9.415  22.352  0.00  0.00    +0.000 NA
ATOM      5  C   UNL     1       0.137  10.014  21.315  0.00  0.00    +0.000 A 
ENDROOT
BRANCH   1  11
ATOM      6  C   UNL     1      -0.426  13.011  19.471  0.00  0.00    +0.000 A 
ATOM      7  C   UNL     1       0.170  13.972  18.618  0.00  0.00    +0.000 A 
ATOM      8  C   UNL     1       1.485  14.405  18.770  0.00  0.00    +0.000 A 
ATOM      9  C   UNL     1       2.259  13.835  19.762  0.00  0.00    +0.000 A 
ATOM     10  C   UNL     1       1.715  12.827  20.565  0.00  0.00    +0.000 A 
ATOM     11  C   UNL     1       0.358  12.409  20.464  0.00  0.00    +0.000 A 
BRANCH   6  12
ATOM     12  O   UNL     1      -1.731  12.830  19.125  0.00  0.00    +0.000 OA
BRANCH  12  14
ATOM     13  C   UNL     1      -3.666  11.529  18.379  0.00  0.00    +0.000 C 
ATOM     14  C   UNL     1      -2.164  11.657  18.460  0.00  0.00    +0.000 C 
ENDBRANCH  12  14
ENDBRANCH   6  12
ENDBRANCH   1  11
BRANCH   5  15
ATOM     15  C   UNL     1       0.883   9.258  20.291  0.00  0.00    +0.000 A 
ATOM     16  C   UNL     1       1.593   8.109  20.644  0.00  0.00    +0.000 A 
ATOM     17  C   UNL     1       2.258   7.389  19.652  0.00  0.00    +0.000 A 
ATOM     18  C   UNL     1       2.207   7.836  18.342  0.00  0.00    +0.000 A 
ATOM     19  C   UNL     1       1.504   9.002  18.076  0.00  0.00    +0.000 A 
ATOM     20  N   UNL     1       0.853   9.726  19.020  0.00  0.00    +0.000 NA
ENDBRANCH   5  15
BRANCH   2  21
ATOM     21  S   UNL     1      -1.647  12.928  23.268  0.00  0.00    +0.000 S 
BRANCH  21  22
ATOM     22  C   UNL     1      -3.240  12.949  22.287  0.00  0.00    +0.000 C 
BRANCH  22  23
ATOM     23  C   UNL     1      -4.487  12.647  23.156  0.00  0.00    +0.000 C 
ATOM     24  O   UNL     1      -4.371  12.167  24.292  0.00  0.00    +0.000 OA
ATOM     25  N   UNL     1      -5.763  12.871  22.623  0.00  0.00    +0.000 N 
BRANCH  25  26
ATOM     26  C   UNL     1      -6.044  13.449  21.298  0.00  0.00    +0.000 C 
ATOM     27  C   UNL     1      -7.213  12.773  20.591  0.00  0.00    +0.000 C 
ENDBRANCH  25  26
BRANCH  25  28
ATOM     28  C   UNL     1      -6.938  12.602  23.463  0.00  0.00    +0.000 C 
ATOM     29  C   UNL     1      -7.484  13.862  24.124  0.00  0.00    +0.000 C 
ENDBRANCH  25  28
ENDBRANCH  22  23
ENDBRANCH  21  22
ENDBRANCH   2  21
TORSDOF 9
ENDMDL
MODEL 9
REMARK VINA RESULT:      -6.0      1.906      3.351
REMARK  Name = 
REMARK  12 active torsions:
REMARK  status: ('A' for Active; 'I' for Inactive)
REMARK    1  A    between atoms: C_1  and  C_2
REMARK    2  A    between atoms: C_2  and  O_3
REMARK    3  A    between atoms: O_3  and  C_4
REMARK    4  A    between atoms: C_9  and  N_10
REMARK    5  A    between atoms: C_11  and  S_12
REMARK    6  A    between atoms: S_12  and  C_13
REMARK    7  A    between atoms: C_13  and  C_14
REMARK    8  A    between atoms: N_16  and  C_17
REMARK    9  A    between atoms: N_16  and  C_19
REMARK   10  A    between atoms: C_17  and  C_18
REMARK   11  A    between atoms: C_19  and  C_20
REMARK   12  A    between atoms: C_23  and  C_24
REMARK                            x       y       z     vdW  Elec       q    Type
REMARK                         _______ _______ _______ _____ _____    ______ ____
ROOT
ATOM      1  N   UNL     1      -0.536  11.351  20.210  0.00  0.00    +0.000 N 
ATOM      2  C   UNL     1      -0.015  10.413  21.124  0.00  0.00    +0.000 A 
ATOM      3  N   UNL     1       0.847  10.990  21.928  0.00  0.00    +0.000 NA
ATOM      4  N   UNL     1       0.989  12.287  21.552  0.00  0.00    +0.000 NA
ATOM      5  C   UNL     1       0.170  12.540  20.543  0.00  0.00    +0.000 A 
ENDROOT
BRANCH   1  11
ATOM      6  C   UNL     1      -2.730  11.910  19.075  0.00  0.00    +0.000 A 
ATOM      7  C   UNL     1      -3.586  11.660  17.975  0.00  0.00    +0.000 A 
ATOM      8  C   UNL     1      -3.241  10.810  16.927  0.00  0.00    +0.000 A 
ATOM      9  C   UNL     1      -2.035  10.141  16.988  0.00  0.00    +0.000 A 
ATOM     10  C   UNL     1      -1.208  10.312  18.103  0.00  0.00    +0.000 A 
ATOM     11  C   UNL     1      -1.515  11.216  19.158  0.00  0.00    +0.000 A 
BRANCH   6  12
ATOM     12  O   UNL     1      -3.301  12.823  19.908  0.00  0.00    +0.000 OA
BRANCH  12  14
ATOM     13  C   UNL     1      -3.280  12.600  22.346  0.00  0.00    +0.000 C 
ATOM     14  C   UNL     1      -4.036  12.425  21.052  0.00  0.00    +0.000 C 
ENDBRANCH  12  14
ENDBRANCH   6  12
ENDBRANCH   1  11
BRANCH   5  15
ATOM     15  C   UNL     1       0.066  13.884  19.944  0.00  0.00    +0.000 A 
ATOM     16  C   UNL     1       0.917  14.257  18.902  0.00  0.00    +0.000 A 
ATOM     17  C   UNL     1       0.774  15.519  18.326  0.00  0.00    +0.000 A 
ATOM     18  C   UNL     1      -0.201  16.376  18.807  0.00  0.00    +0.000 A 
ATOM     19  C   UNL     1      -0.989  15.943  19.864  0.00  0.00    +0.000 A 
ATOM     20  N   UNL     1      -0.869  14.725  20.448  0.00  0.00    +0.000 NA
ENDBRANCH   5  15
BRANCH   2  21
ATOM     21  S   UNL     1      -0.278   8.688  21.215  0.00  0.00    +0.000 S 
BRANCH  21  22
ATOM     22  C   UNL     1       1.481   8.051  21.191  0.00  0.00    +0.000 C 
BRANCH  22  23
ATOM     23  C   UNL     1       1.961   7.664  19.768  0.00  0.00    +0.000 C 
ATOM     24  O   UNL     1       1.991   8.500  18.856  0.00  0.00    +0.000 OA
ATOM     25  N   UNL     1       2.314   6.333  19.505  0.00  0.00    +0.000 N 
BRANCH  25  26
ATOM     26  C   UNL     1       2.338   5.245  20.497  0.00  0.00    +0.000 C 
ATOM     27  C   UNL     1       1.108   4.347  20.423  0.00  0.00    +0.000 C 
ENDBRANCH  25  26
BRANCH  25  28
ATOM     28  C   UNL     1       2.789   5.980  18.160  0.00  0.00    +0.000 C 
ATOM     29  C   UNL     1       4.044   5.117  18.192  0.00  0.00    +0.000 C 
ENDBRANCH  25  28
ENDBRANCH  22  23
ENDBRANCH  21  22
ENDBRANCH   2  21
TORSDOF 9
ENDMDL
