MODEL 1
REMARK VINA RESULT:      -8.7      0.000      0.000
REMARK  Name = 
REMARK  9 active torsions:
REMARK  status: ('A' for Active; 'I' for Inactive)
REMARK    1  A    between atoms: C_1  and  C_2
REMARK    2  A    between atoms: C_2  and  C_3
REMARK    3  A    between atoms: C_6  and  S_7
REMARK    4  A    between atoms: S_7  and  C_8
REMARK    5  A    between atoms: C_10  and  C_11
REMARK    6  A    between atoms: N_13  and  C_14
REMARK    7  A    between atoms: C_14  and  C_15
REMARK    8  A    between atoms: C_20  and  O_21
REMARK    9  A    between atoms: O_21  and  C_22
REMARK                            x       y       z     vdW  Elec       q    Type
REMARK                         _______ _______ _______ _____ _____    ______ ____
ROOT
ATOM      1  C   UNL     1       4.971   5.086  18.181  0.00  0.00    +0.000 A 
ATOM      2  C   UNL     1       3.957   5.963  17.857  0.00  0.00    +0.000 A 
ATOM      3  C   UNL     1       2.797   5.923  18.622  0.00  0.00    +0.000 A 
ATOM      4  C   UNL     1       2.494   4.807  19.397  0.00  0.00    +0.000 A 
ATOM      5  C   UNL     1       1.203   4.566  19.936  0.00  0.00    +0.000 A 
ATOM      6  C   UNL     1       0.959   3.427  20.683  0.00  0.00    +0.000 A 
ATOM      7  C   UNL     1       2.001   2.559  20.955  0.00  0.00    +0.000 A 
ATOM      8  C   UNL     1       3.283   2.818  20.438  0.00  0.00    +0.000 A 
ATOM      9  C   UNL     1       3.555   3.912  19.616  0.00  0.00    +0.000 A 
ATOM     10  N   UNL     1       4.796   4.094  19.079  0.00  0.00    +0.000 NA
ENDROOT
BRANCH   3  11
ATOM     11  C   UNL     1       2.292   7.249  19.062  0.00  0.00    +0.000 C 
ATOM     12  O   UNL     1       2.194   7.555  20.245  0.00  0.00    +0.000 OA
ATOM     13  N   UNL     1       2.059   8.092  17.997  0.00  0.00    +0.000 N 
ATOM     14  H   UNL     1       2.327   7.785  17.063  0.00  0.00    +0.000 HD
BRANCH  13  15
ATOM     15  C   UNL     1       1.889   9.517  18.132  0.00  0.00    +0.000 C 
BRANCH  15  16
ATOM     16  C   UNL     1       0.451   9.915  18.350  0.00  0.00    +0.000 A 
ATOM     17  C   UNL     1      -0.498   9.659  17.335  0.00  0.00    +0.000 A 
ATOM     18  C   UNL     1      -1.825  10.072  17.446  0.00  0.00    +0.000 A 
ATOM     19  C   UNL     1      -2.244  10.733  18.591  0.00  0.00    +0.000 A 
ATOM     20  C   UNL     1      -1.338  10.961  19.626  0.00  0.00    +0.000 A 
ATOM     21  C   UNL     1      -0.003  10.538  19.529  0.00  0.00    +0.000 A 
BRANCH  21  22
ATOM     22  O   UNL     1       0.753  10.885  20.618  0.00  0.00    +0.000 OA
ATOM     23  C   UNL     1       0.421  10.284  21.864  0.00  0.00    +0.000 C 
ENDBRANCH  21  22
ENDBRANCH  15  16
ENDBRANCH  13  15
ENDBRANCH   3  11
BRANCH   1  24
ATOM     24  S   UNL     1       6.516   5.479  17.383  0.00  0.00    +0.000 S 
BRANCH  24  28
ATOM     25  C   UNL     1       6.433   3.972  13.031  0.00  0.00    +0.000 A 
ATOM     26  C   UNL     1       5.455   3.645  13.973  0.00  0.00    +0.000 A 
ATOM     27  C   UNL     1       5.542   4.132  15.280  0.00  0.00    +0.000 A 
ATOM     28  C   UNL     1       6.610   4.944  15.700  0.00  0.00    +0.000 A 
ATOM     29  C   UNL     1       7.552   5.324  14.747  0.00  0.00    +0.000 A 
ATOM     30  C   UNL     1       7.468   4.834  13.427  0.00  0.00    +0.000 A 
BRANCH  25  32
ATOM     31  C   UNL     1       5.711   1.982  11.596  0.00  0.00    +0.000 C 
ATOM     32  C   UNL     1       6.397   3.339  11.661  0.00  0.00    +0.000 C 
ENDBRANCH  25  32
ENDBRANCH  24  28
ENDBRANCH   1  24
TORSDOF 7
ENDMDL
MODEL 2
REMARK VINA RESULT:      -8.5      2.632      8.754
REMARK  Name = 
REMARK  9 active torsions:
REMARK  status: ('A' for Active; 'I' for Inactive)
REMARK    1  A    between atoms: C_1  and  C_2
REMARK    2  A    between atoms: C_2  and  C_3
REMARK    3  A    between atoms: C_6  and  S_7
REMARK    4  A    between atoms: S_7  and  C_8
REMARK    5  A    between atoms: C_10  and  C_11
REMARK    6  A    between atoms: N_13  and  C_14
REMARK    7  A    between atoms: C_14  and  C_15
REMARK    8  A    between atoms: C_20  and  O_21
REMARK    9  A    between atoms: O_21  and  C_22
REMARK                            x       y       z     vdW  Elec       q    Type
REMARK                         _______ _______ _______ _____ _____    ______ ____
ROOT
ATOM      1  C   UNL     1       2.578   6.692  18.418  0.00  0.00    +0.000 A 
ATOM      2  C   UNL     1       3.850   6.512  18.922  0.00  0.00    +0.000 A 
ATOM      3  C   UNL     1       4.387   5.230  18.881  0.00  0.00    +0.000 A 
ATOM      4  C   UNL     1       3.562   4.118  18.730  0.00  0.00    +0.000 A 
ATOM      5  C   UNL     1       3.994   2.792  18.999  0.00  0.00    +0.000 A 
ATOM      6  C   UNL     1       3.121   1.729  18.848  0.00  0.00    +0.000 A 
ATOM      7  C   UNL     1       1.844   1.963  18.372  0.00  0.00    +0.000 A 
ATOM      8  C   UNL     1       1.433   3.277  18.084  0.00  0.00    +0.000 A 
ATOM      9  C   UNL     1       2.253   4.385  18.295  0.00  0.00    +0.000 A 
ATOM     10  N   UNL     1       1.796   5.650  18.067  0.00  0.00    +0.000 NA
ENDROOT
BRANCH   3  11
ATOM     11  C   UNL     1       5.781   5.152  18.374  0.00  0.00    +0.000 C 
ATOM     12  O   UNL     1       6.669   4.565  18.982  0.00  0.00    +0.000 OA
ATOM     13  N   UNL     1       5.907   5.717  17.124  0.00  0.00    +0.000 N 
ATOM     14  H   UNL     1       5.067   6.035  16.643  0.00  0.00    +0.000 HD
BRANCH  13  15
ATOM     15  C   UNL     1       7.042   5.495  16.261  0.00  0.00    +0.000 C 
BRANCH  15  16
ATOM     16  C   UNL     1       6.660   4.869  14.944  0.00  0.00    +0.000 A 
ATOM     17  C   UNL     1       5.501   4.064  14.873  0.00  0.00    +0.000 A 
ATOM     18  C   UNL     1       5.139   3.396  13.703  0.00  0.00    +0.000 A 
ATOM     19  C   UNL     1       5.916   3.538  12.564  0.00  0.00    +0.000 A 
ATOM     20  C   UNL     1       7.040   4.362  12.595  0.00  0.00    +0.000 A 
ATOM     21  C   UNL     1       7.407   5.048  13.763  0.00  0.00    +0.000 A 
BRANCH  21  22
ATOM     22  O   UNL     1       8.562   5.773  13.624  0.00  0.00    +0.000 OA
ATOM     23  C   UNL     1       8.894   6.229  12.319  0.00  0.00    +0.000 C 
ENDBRANCH  21  22
ENDBRANCH  15  16
ENDBRANCH  13  15
ENDBRANCH   3  11
BRANCH   1  24
ATOM     24  S   UNL     1       2.155   8.408  18.190  0.00  0.00    +0.000 S 
BRANCH  24  28
ATOM     25  C   UNL     1      -0.132  10.001  21.858  0.00  0.00    +0.000 A 
ATOM     26  C   UNL     1       0.736   8.908  21.912  0.00  0.00    +0.000 A 
ATOM     27  C   UNL     1       1.395   8.472  20.760  0.00  0.00    +0.000 A 
ATOM     28  C   UNL     1       1.204   9.094  19.514  0.00  0.00    +0.000 A 
ATOM     29  C   UNL     1       0.388  10.222  19.470  0.00  0.00    +0.000 A 
ATOM     30  C   UNL     1      -0.280  10.666  20.630  0.00  0.00    +0.000 A 
BRANCH  25  32
ATOM     31  C   UNL     1      -1.440  11.818  23.095  0.00  0.00    +0.000 C 
ATOM     32  C   UNL     1      -0.935  10.383  23.078  0.00  0.00    +0.000 C 
ENDBRANCH  25  32
ENDBRANCH  24  28
ENDBRANCH   1  24
TORSDOF 7
ENDMDL
MODEL 3
REMARK VINA RESULT:      -8.3      2.562      3.823
REMARK  Name = 
REMARK  9 active torsions:
REMARK  status: ('A' for Active; 'I' for Inactive)
REMARK    1  A    between atoms: C_1  and  C_2
REMARK    2  A    between atoms: C_2  and  C_3
REMARK    3  A    between atoms: C_6  and  S_7
REMARK    4  A    between atoms: S_7  and  C_8
REMARK    5  A    between atoms: C_10  and  C_11
REMARK    6  A    between atoms: N_13  and  C_14
REMARK    7  A    between atoms: C_14  and  C_15
REMARK    8  A    between atoms: C_20  and  O_21
REMARK    9  A    between atoms: O_21  and  C_22
REMARK                            x       y       z     vdW  Elec       q    Type
REMARK                         _______ _______ _______ _____ _____    ______ ____
ROOT
ATOM      1  C   UNL     1       4.768   4.862  18.022  0.00  0.00    +0.000 A 
ATOM      2  C   UNL     1       3.784   5.782  17.723  0.00  0.00    +0.000 A 
ATOM      3  C   UNL     1       2.658   5.813  18.538  0.00  0.00    +0.000 A 
ATOM      4  C   UNL     1       2.337   4.728  19.349  0.00  0.00    +0.000 A 
ATOM      5  C   UNL     1       1.061   4.561  19.949  0.00  0.00    +0.000 A 
ATOM      6  C   UNL     1       0.796   3.450  20.731  0.00  0.00    +0.000 A 
ATOM      7  C   UNL     1       1.806   2.538  20.975  0.00  0.00    +0.000 A 
ATOM      8  C   UNL     1       3.075   2.724  20.398  0.00  0.00    +0.000 A 
ATOM      9  C   UNL     1       3.362   3.787  19.541  0.00  0.00    +0.000 A 
ATOM     10  N   UNL     1       4.586   3.898  18.947  0.00  0.00    +0.000 NA
ENDROOT
BRANCH   3  11
ATOM     11  C   UNL     1       2.238   7.170  18.971  0.00  0.00    +0.000 C 
ATOM     12  O   UNL     1       2.167   7.491  20.153  0.00  0.00    +0.000 OA
ATOM     13  N   UNL     1       2.049   8.018  17.901  0.00  0.00    +0.000 N 
ATOM     14  H   UNL     1       2.291   7.689  16.968  0.00  0.00    +0.000 HD
BRANCH  13  15
ATOM     15  C   UNL     1       1.966   9.452  18.027  0.00  0.00    +0.000 C 
BRANCH  15  16
ATOM     16  C   UNL     1       0.570   9.932  18.332  0.00  0.00    +0.000 A 
ATOM     17  C   UNL     1      -0.493   9.549  17.483  0.00  0.00    +0.000 A 
ATOM     18  C   UNL     1      -1.791  10.022  17.669  0.00  0.00    +0.000 A 
ATOM     19  C   UNL     1      -2.065  10.875  18.728  0.00  0.00    +0.000 A 
ATOM     20  C   UNL     1      -1.044  11.233  19.606  0.00  0.00    +0.000 A 
ATOM     21  C   UNL     1       0.264  10.753  19.435  0.00  0.00    +0.000 A 
BRANCH  21  22
ATOM     22  O   UNL     1       1.145  11.243  20.363  0.00  0.00    +0.000 OA
ATOM     23  C   UNL     1       0.873  12.528  20.908  0.00  0.00    +0.000 C 
ENDBRANCH  21  22
ENDBRANCH  15  16
ENDBRANCH  13  15
ENDBRANCH   3  11
BRANCH   1  24
ATOM     24  S   UNL     1       6.293   5.164  17.149  0.00  0.00    +0.000 S 
BRANCH  24  28
ATOM     25  C   UNL     1       8.596   8.893  18.570  0.00  0.00    +0.000 A 
ATOM     26  C   UNL     1       8.702   7.646  19.189  0.00  0.00    +0.000 A 
ATOM     27  C   UNL     1       7.970   6.554  18.711  0.00  0.00    +0.000 A 
ATOM     28  C   UNL     1       7.099   6.668  17.614  0.00  0.00    +0.000 A 
ATOM     29  C   UNL     1       7.040   7.894  16.955  0.00  0.00    +0.000 A 
ATOM     30  C   UNL     1       7.775   8.998  17.435  0.00  0.00    +0.000 A 
BRANCH  25  32
ATOM     31  C   UNL     1       9.209  11.365  18.345  0.00  0.00    +0.000 C 
ATOM     32  C   UNL     1       9.290  10.090  19.171  0.00  0.00    +0.000 C 
ENDBRANCH  25  32
ENDBRANCH  24  28
ENDBRANCH   1  24
TORSDOF 7
ENDMDL
MODEL 4
REMARK VINA RESULT:      -8.2      0.530      1.007
REMARK  Name = 
REMARK  9 active torsions:
REMARK  status: ('A' for Active; 'I' for Inactive)
REMARK    1  A    between atoms: C_1  and  C_2
REMARK    2  A    between atoms: C_2  and  C_3
REMARK    3  A    between atoms: C_6  and  S_7
REMARK    4  A    between atoms: S_7  and  C_8
REMARK    5  A    between atoms: C_10  and  C_11
REMARK    6  A    between atoms: N_13  and  C_14
REMARK    7  A    between atoms: C_14  and  C_15
REMARK    8  A    between atoms: C_20  and  O_21
REMARK    9  A    between atoms: O_21  and  C_22
REMARK                            x       y       z     vdW  Elec       q    Type
REMARK                         _______ _______ _______ _____ _____    ______ ____
ROOT
ATOM      1  C   UNL     1       4.824   5.146  18.203  0.00  0.00    +0.000 A 
ATOM      2  C   UNL     1       3.794   6.017  17.913  0.00  0.00    +0.000 A 
ATOM      3  C   UNL     1       2.676   5.996  18.739  0.00  0.00    +0.000 A 
ATOM      4  C   UNL     1       2.415   4.898  19.554  0.00  0.00    +0.000 A 
ATOM      5  C   UNL     1       1.154   4.671  20.167  0.00  0.00    +0.000 A 
ATOM      6  C   UNL     1       0.950   3.550  20.952  0.00  0.00    +0.000 A 
ATOM      7  C   UNL     1       2.005   2.687  21.187  0.00  0.00    +0.000 A 
ATOM      8  C   UNL     1       3.258   2.933  20.598  0.00  0.00    +0.000 A 
ATOM      9  C   UNL     1       3.486   4.007  19.737  0.00  0.00    +0.000 A 
ATOM     10  N   UNL     1       4.697   4.176  19.131  0.00  0.00    +0.000 NA
ENDROOT
BRANCH   3  11
ATOM     11  C   UNL     1       2.195   7.332  19.175  0.00  0.00    +0.000 C 
ATOM     12  O   UNL     1       2.067   7.631  20.358  0.00  0.00    +0.000 OA
ATOM     13  N   UNL     1       2.022   8.190  18.111  0.00  0.00    +0.000 N 
ATOM     14  H   UNL     1       2.311   7.884  17.184  0.00  0.00    +0.000 HD
BRANCH  13  15
ATOM     15  C   UNL     1       1.888   9.619  18.255  0.00  0.00    +0.000 C 
BRANCH  15  16
ATOM     16  C   UNL     1       0.458  10.056  18.446  0.00  0.00    +0.000 A 
ATOM     17  C   UNL     1      -0.518   9.652  17.507  0.00  0.00    +0.000 A 
ATOM     18  C   UNL     1      -1.841  10.085  17.588  0.00  0.00    +0.000 A 
ATOM     19  C   UNL     1      -2.228  10.918  18.627  0.00  0.00    +0.000 A 
ATOM     20  C   UNL     1      -1.295  11.296  19.591  0.00  0.00    +0.000 A 
ATOM     21  C   UNL     1       0.036  10.855  19.526  0.00  0.00    +0.000 A 
BRANCH  21  22
ATOM     22  O   UNL     1       0.822  11.361  20.528  0.00  0.00    +0.000 OA
ATOM     23  C   UNL     1       0.216  12.268  21.441  0.00  0.00    +0.000 C 
ENDBRANCH  21  22
ENDBRANCH  15  16
ENDBRANCH  13  15
ENDBRANCH   3  11
BRANCH   1  24
ATOM     24  S   UNL     1       6.324   5.520  17.315  0.00  0.00    +0.000 S 
BRANCH  24  28
ATOM     25  C   UNL     1       6.706   4.048  12.967  0.00  0.00    +0.000 A 
ATOM     26  C   UNL     1       7.656   4.864  13.585  0.00  0.00    +0.000 A 
ATOM     27  C   UNL     1       7.477   5.280  14.908  0.00  0.00    +0.000 A 
ATOM     28  C   UNL     1       6.343   4.915  15.654  0.00  0.00    +0.000 A 
ATOM     29  C   UNL     1       5.426   4.050  15.061  0.00  0.00    +0.000 A 
ATOM     30  C   UNL     1       5.602   3.628  13.728  0.00  0.00    +0.000 A 
BRANCH  25  32
ATOM     31  C   UNL     1       7.254   2.275  11.208  0.00  0.00    +0.000 C 
ATOM     32  C   UNL     1       6.846   3.710  11.503  0.00  0.00    +0.000 C 
ENDBRANCH  25  32
ENDBRANCH  24  28
ENDBRANCH   1  24
TORSDOF 7
ENDMDL
MODEL 5
REMARK VINA RESULT:      -8.2      2.529      3.809
REMARK  Name = 
REMARK  9 active torsions:
REMARK  status: ('A' for Active; 'I' for Inactive)
REMARK    1  A    between atoms: C_1  and  C_2
REMARK    2  A    between atoms: C_2  and  C_3
REMARK    3  A    between atoms: C_6  and  S_7
REMARK    4  A    between atoms: S_7  and  C_8
REMARK    5  A    between atoms: C_10  and  C_11
REMARK    6  A    between atoms: N_13  and  C_14
REMARK    7  A    between atoms: C_14  and  C_15
REMARK    8  A    between atoms: C_20  and  O_21
REMARK    9  A    between atoms: O_21  and  C_22
REMARK                            x       y       z     vdW  Elec       q    Type
REMARK                         _______ _______ _______ _____ _____    ______ ____
ROOT
ATOM      1  C   UNL     1       4.898   4.805  17.630  0.00  0.00    +0.000 A 
ATOM      2  C   UNL     1       3.945   5.778  17.411  0.00  0.00    +0.000 A 
ATOM      3  C   UNL     1       2.786   5.732  18.178  0.00  0.00    +0.000 A 
ATOM      4  C   UNL     1       2.411   4.560  18.829  0.00  0.00    +0.000 A 
ATOM      5  C   UNL     1       1.106   4.348  19.351  0.00  0.00    +0.000 A 
ATOM      6  C   UNL     1       0.788   3.154  19.972  0.00  0.00    +0.000 A 
ATOM      7  C   UNL     1       1.771   2.194  20.139  0.00  0.00    +0.000 A 
ATOM      8  C   UNL     1       3.066   2.423  19.642  0.00  0.00    +0.000 A 
ATOM      9  C   UNL     1       3.409   3.578  18.941  0.00  0.00    +0.000 A 
ATOM     10  N   UNL     1       4.659   3.736  18.416  0.00  0.00    +0.000 NA
ENDROOT
BRANCH   3  11
ATOM     11  C   UNL     1       2.372   7.032  18.764  0.00  0.00    +0.000 C 
ATOM     12  O   UNL     1       2.402   7.249  19.970  0.00  0.00    +0.000 OA
ATOM     13  N   UNL     1       2.061   7.960  17.793  0.00  0.00    +0.000 N 
ATOM     14  H   UNL     1       2.224   7.720  16.816  0.00  0.00    +0.000 HD
BRANCH  13  15
ATOM     15  C   UNL     1       1.952   9.375  18.050  0.00  0.00    +0.000 C 
BRANCH  15  16
ATOM     16  C   UNL     1       0.530   9.820  18.276  0.00  0.00    +0.000 A 
ATOM     17  C   UNL     1      -0.436   9.582  17.272  0.00  0.00    +0.000 A 
ATOM     18  C   UNL     1      -1.749  10.036  17.391  0.00  0.00    +0.000 A 
ATOM     19  C   UNL     1      -2.137  10.723  18.532  0.00  0.00    +0.000 A 
ATOM     20  C   UNL     1      -1.215  10.933  19.556  0.00  0.00    +0.000 A 
ATOM     21  C   UNL     1       0.106  10.469  19.452  0.00  0.00    +0.000 A 
BRANCH  21  22
ATOM     22  O   UNL     1       0.882  10.804  20.531  0.00  0.00    +0.000 OA
ATOM     23  C   UNL     1       0.214  11.236  21.709  0.00  0.00    +0.000 C 
ENDBRANCH  21  22
ENDBRANCH  15  16
ENDBRANCH  13  15
ENDBRANCH   3  11
BRANCH   1  24
ATOM     24  S   UNL     1       6.465   5.180  16.865  0.00  0.00    +0.000 S 
BRANCH  24  28
ATOM     25  C   UNL     1       8.537   8.883  18.660  0.00  0.00    +0.000 A 
ATOM     26  C   UNL     1       7.721   8.935  17.528  0.00  0.00    +0.000 A 
ATOM     27  C   UNL     1       7.125   7.773  17.031  0.00  0.00    +0.000 A 
ATOM     28  C   UNL     1       7.333   6.518  17.629  0.00  0.00    +0.000 A 
ATOM     29  C   UNL     1       8.094   6.472  18.795  0.00  0.00    +0.000 A 
ATOM     30  C   UNL     1       8.697   7.643  19.300  0.00  0.00    +0.000 A 
BRANCH  25  32
ATOM     31  C   UNL     1       9.647  11.090  18.001  0.00  0.00    +0.000 C 
ATOM     32  C   UNL     1       9.275  10.119  19.112  0.00  0.00    +0.000 C 
ENDBRANCH  25  32
ENDBRANCH  24  28
ENDBRANCH   1  24
TORSDOF 7
ENDMDL
MODEL 6
REMARK VINA RESULT:      -8.1      2.652      8.724
REMARK  Name = 
REMARK  9 active torsions:
REMARK  status: ('A' for Active; 'I' for Inactive)
REMARK    1  A    between atoms: C_1  and  C_2
REMARK    2  A    between atoms: C_2  and  C_3
REMARK    3  A    between atoms: C_6  and  S_7
REMARK    4  A    between atoms: S_7  and  C_8
REMARK    5  A    between atoms: C_10  and  C_11
REMARK    6  A    between atoms: N_13  and  C_14
REMARK    7  A    between atoms: C_14  and  C_15
REMARK    8  A    between atoms: C_20  and  O_21
REMARK    9  A    between atoms: O_21  and  C_22
REMARK                            x       y       z     vdW  Elec       q    Type
REMARK                         _______ _______ _______ _____ _____    ______ ____
ROOT
ATOM      1  C   UNL     1       2.789   6.741  18.170  0.00  0.00    +0.000 A 
ATOM      2  C   UNL     1       4.071   6.555  18.644  0.00  0.00    +0.000 A 
ATOM      3  C   UNL     1       4.570   5.257  18.671  0.00  0.00    +0.000 A 
ATOM      4  C   UNL     1       3.710   4.164  18.619  0.00  0.00    +0.000 A 
ATOM      5  C   UNL     1       4.112   2.845  18.960  0.00  0.00    +0.000 A 
ATOM      6  C   UNL     1       3.205   1.802  18.907  0.00  0.00    +0.000 A 
ATOM      7  C   UNL     1       1.920   2.044  18.456  0.00  0.00    +0.000 A 
ATOM      8  C   UNL     1       1.537   3.348  18.096  0.00  0.00    +0.000 A 
ATOM      9  C   UNL     1       2.395   4.442  18.208  0.00  0.00    +0.000 A 
ATOM     10  N   UNL     1       1.967   5.703  17.912  0.00  0.00    +0.000 NA
ENDROOT
BRANCH   3  11
ATOM     11  C   UNL     1       5.944   5.104  18.127  0.00  0.00    +0.000 C 
ATOM     12  O   UNL     1       6.818   4.477  18.715  0.00  0.00    +0.000 OA
ATOM     13  N   UNL     1       6.065   5.653  16.869  0.00  0.00    +0.000 N 
ATOM     14  H   UNL     1       5.229   6.010  16.408  0.00  0.00    +0.000 HD
BRANCH  13  15
ATOM     15  C   UNL     1       7.162   5.367  15.977  0.00  0.00    +0.000 C 
BRANCH  15  16
ATOM     16  C   UNL     1       6.711   4.764  14.672  0.00  0.00    +0.000 A 
ATOM     17  C   UNL     1       5.523   4.001  14.637  0.00  0.00    +0.000 A 
ATOM     18  C   UNL     1       5.095   3.356  13.477  0.00  0.00    +0.000 A 
ATOM     19  C   UNL     1       5.836   3.478  12.311  0.00  0.00    +0.000 A 
ATOM     20  C   UNL     1       6.990   4.260  12.307  0.00  0.00    +0.000 A 
ATOM     21  C   UNL     1       7.422   4.924  13.466  0.00  0.00    +0.000 A 
BRANCH  21  22
ATOM     22  O   UNL     1       8.596   5.609  13.290  0.00  0.00    +0.000 OA
ATOM     23  C   UNL     1       8.718   6.409  12.121  0.00  0.00    +0.000 C 
ENDBRANCH  21  22
ENDBRANCH  15  16
ENDBRANCH  13  15
ENDBRANCH   3  11
BRANCH   1  24
ATOM     24  S   UNL     1       2.408   8.451  17.843  0.00  0.00    +0.000 S 
BRANCH  24  28
ATOM     25  C   UNL     1      -0.329  10.642  20.832  0.00  0.00    +0.000 A 
ATOM     26  C   UNL     1      -0.078  11.109  19.540  0.00  0.00    +0.000 A 
ATOM     27  C   UNL     1       0.768  10.398  18.683  0.00  0.00    +0.000 A 
ATOM     28  C   UNL     1       1.405   9.211  19.086  0.00  0.00    +0.000 A 
ATOM     29  C   UNL     1       1.106   8.710  20.351  0.00  0.00    +0.000 A 
ATOM     30  C   UNL     1       0.254   9.424  21.218  0.00  0.00    +0.000 A 
BRANCH  25  32
ATOM     31  C   UNL     1      -1.252  10.926  23.200  0.00  0.00    +0.000 C 
ATOM     32  C   UNL     1      -1.140  11.482  21.788  0.00  0.00    +0.000 C 
ENDBRANCH  25  32
ENDBRANCH  24  28
ENDBRANCH   1  24
TORSDOF 7
ENDMDL
MODEL 7
REMARK VINA RESULT:      -8.0      2.353      8.322
REMARK  Name = 
REMARK  9 active torsions:
REMARK  status: ('A' for Active; 'I' for Inactive)
REMARK    1  A    between atoms: C_1  and  C_2
REMARK    2  A    between atoms: C_2  and  C_3
REMARK    3  A    between atoms: C_6  and  S_7
REMARK    4  A    between atoms: S_7  and  C_8
REMARK    5  A    between atoms: C_10  and  C_11
REMARK    6  A    between atoms: N_13  and  C_14
REMARK    7  A    between atoms: C_14  and  C_15
REMARK    8  A    between atoms: C_20  and  O_21
REMARK    9  A    between atoms: O_21  and  C_22
REMARK                            x       y       z     vdW  Elec       q    Type
REMARK                         _______ _______ _______ _____ _____    ______ ____
ROOT
ATOM      1  C   UNL     1       2.544   6.763  18.846  0.00  0.00    +0.000 A 
ATOM      2  C   UNL     1       3.872   6.399  18.940  0.00  0.00    +0.000 A 
ATOM      3  C   UNL     1       4.160   5.099  19.339  0.00  0.00    +0.000 A 
ATOM      4  C   UNL     1       3.207   4.330  20.001  0.00  0.00    +0.000 A 
ATOM      5  C   UNL     1       3.527   3.141  20.709  0.00  0.00    +0.000 A 
ATOM      6  C   UNL     1       2.537   2.430  21.363  0.00  0.00    +0.000 A 
ATOM      7  C   UNL     1       1.223   2.852  21.268  0.00  0.00    +0.000 A 
ATOM      8  C   UNL     1       0.912   4.016  20.543  0.00  0.00    +0.000 A 
ATOM      9  C   UNL     1       1.887   4.807  19.934  0.00  0.00    +0.000 A 
ATOM     10  N   UNL     1       1.553   5.966  19.296  0.00  0.00    +0.000 NA
ENDROOT
BRANCH   3  11
ATOM     11  C   UNL     1       5.183   4.405  18.515  0.00  0.00    +0.000 C 
ATOM     12  O   UNL     1       6.249   4.016  18.980  0.00  0.00    +0.000 OA
ATOM     13  N   UNL     1       4.740   4.173  17.231  0.00  0.00    +0.000 N 
ATOM     14  H   UNL     1       3.773   4.398  16.999  0.00  0.00    +0.000 HD
BRANCH  13  15
ATOM     15  C   UNL     1       5.371   3.243  16.327  0.00  0.00    +0.000 C 
BRANCH  15  16
ATOM     16  C   UNL     1       6.060   3.927  15.174  0.00  0.00    +0.000 A 
ATOM     17  C   UNL     1       5.712   3.572  13.852  0.00  0.00    +0.000 A 
ATOM     18  C   UNL     1       6.367   4.114  12.746  0.00  0.00    +0.000 A 
ATOM     19  C   UNL     1       7.375   5.047  12.936  0.00  0.00    +0.000 A 
ATOM     20  C   UNL     1       7.710   5.447  14.228  0.00  0.00    +0.000 A 
ATOM     21  C   UNL     1       7.048   4.917  15.347  0.00  0.00    +0.000 A 
BRANCH  21  22
ATOM     22  O   UNL     1       7.536   5.390  16.537  0.00  0.00    +0.000 OA
ATOM     23  C   UNL     1       7.258   6.745  16.867  0.00  0.00    +0.000 C 
ENDBRANCH  21  22
ENDBRANCH  15  16
ENDBRANCH  13  15
ENDBRANCH   3  11
BRANCH   1  24
ATOM     24  S   UNL     1       2.302   8.305  17.985  0.00  0.00    +0.000 S 
BRANCH  24  28
ATOM     25  C   UNL     1      -0.951  11.091  19.680  0.00  0.00    +0.000 A 
ATOM     26  C   UNL     1      -0.834  10.788  18.322  0.00  0.00    +0.000 A 
ATOM     27  C   UNL     1       0.180   9.938  17.872  0.00  0.00    +0.000 A 
ATOM     28  C   UNL     1       1.121   9.375  18.751  0.00  0.00    +0.000 A 
ATOM     29  C   UNL     1       0.969   9.625  20.113  0.00  0.00    +0.000 A 
ATOM     30  C   UNL     1      -0.053  10.482  20.571  0.00  0.00    +0.000 A 
BRANCH  25  32
ATOM     31  C   UNL     1      -3.262  12.132  19.335  0.00  0.00    +0.000 C 
ATOM     32  C   UNL     1      -1.969  12.107  20.137  0.00  0.00    +0.000 C 
ENDBRANCH  25  32
ENDBRANCH  24  28
ENDBRANCH   1  24
TORSDOF 7
ENDMDL
MODEL 8
REMARK VINA RESULT:      -7.9      2.703      4.153
REMARK  Name = 
REMARK  9 active torsions:
REMARK  status: ('A' for Active; 'I' for Inactive)
REMARK    1  A    between atoms: C_1  and  C_2
REMARK    2  A    between atoms: C_2  and  C_3
REMARK    3  A    between atoms: C_6  and  S_7
REMARK    4  A    between atoms: S_7  and  C_8
REMARK    5  A    between atoms: C_10  and  C_11
REMARK    6  A    between atoms: N_13  and  C_14
REMARK    7  A    between atoms: C_14  and  C_15
REMARK    8  A    between atoms: C_20  and  O_21
REMARK    9  A    between atoms: O_21  and  C_22
REMARK                            x       y       z     vdW  Elec       q    Type
REMARK                         _______ _______ _______ _____ _____    ______ ____
ROOT
ATOM      1  C   UNL     1       5.138   4.108  18.317  0.00  0.00    +0.000 A 
ATOM      2  C   UNL     1       4.147   4.584  17.483  0.00  0.00    +0.000 A 
ATOM      3  C   UNL     1       2.863   4.699  18.004  0.00  0.00    +0.000 A 
ATOM      4  C   UNL     1       2.496   4.000  19.151  0.00  0.00    +0.000 A 
ATOM      5  C   UNL     1       1.144   3.818  19.546  0.00  0.00    +0.000 A 
ATOM      6  C   UNL     1       0.841   3.096  20.688  0.00  0.00    +0.000 A 
ATOM      7  C   UNL     1       1.870   2.610  21.474  0.00  0.00    +0.000 A 
ATOM      8  C   UNL     1       3.206   2.817  21.089  0.00  0.00    +0.000 A 
ATOM      9  C   UNL     1       3.555   3.470  19.907  0.00  0.00    +0.000 A 
ATOM     10  N   UNL     1       4.862   3.593  19.532  0.00  0.00    +0.000 NA
ENDROOT
BRANCH   3  11
ATOM     11  C   UNL     1       2.183   5.986  17.710  0.00  0.00    +0.000 C 
ATOM     12  O   UNL     1       1.007   6.045  17.368  0.00  0.00    +0.000 OA
ATOM     13  N   UNL     1       2.994   7.069  17.968  0.00  0.00    +0.000 N 
ATOM     14  H   UNL     1       3.902   6.908  18.402  0.00  0.00    +0.000 HD
BRANCH  13  15
ATOM     15  C   UNL     1       2.504   8.420  18.092  0.00  0.00    +0.000 C 
BRANCH  15  16
ATOM     16  C   UNL     1       1.633   8.615  19.307  0.00  0.00    +0.000 A 
ATOM     17  C   UNL     1       1.798   7.760  20.419  0.00  0.00    +0.000 A 
ATOM     18  C   UNL     1       0.972   7.842  21.540  0.00  0.00    +0.000 A 
ATOM     19  C   UNL     1      -0.028   8.802  21.586  0.00  0.00    +0.000 A 
ATOM     20  C   UNL     1      -0.185   9.686  20.520  0.00  0.00    +0.000 A 
ATOM     21  C   UNL     1       0.649   9.620  19.393  0.00  0.00    +0.000 A 
BRANCH  21  22
ATOM     22  O   UNL     1       0.323  10.535  18.426  0.00  0.00    +0.000 OA
ATOM     23  C   UNL     1       0.228  11.898  18.820  0.00  0.00    +0.000 C 
ENDBRANCH  21  22
ENDBRANCH  15  16
ENDBRANCH  13  15
ENDBRANCH   3  11
BRANCH   1  24
ATOM     24  S   UNL     1       6.778   4.353  17.661  0.00  0.00    +0.000 S 
BRANCH  24  28
ATOM     25  C   UNL     1       8.265   8.679  18.201  0.00  0.00    +0.000 A 
ATOM     26  C   UNL     1       7.429   8.282  17.156  0.00  0.00    +0.000 A 
ATOM     27  C   UNL     1       7.018   6.950  17.046  0.00  0.00    +0.000 A 
ATOM     28  C   UNL     1       7.435   5.967  17.959  0.00  0.00    +0.000 A 
ATOM     29  C   UNL     1       8.217   6.372  19.038  0.00  0.00    +0.000 A 
ATOM     30  C   UNL     1       8.635   7.714  19.152  0.00  0.00    +0.000 A 
BRANCH  25  32
ATOM     31  C   UNL     1       9.395  10.519  19.571  0.00  0.00    +0.000 C 
ATOM     32  C   UNL     1       8.804  10.088  18.237  0.00  0.00    +0.000 C 
ENDBRANCH  25  32
ENDBRANCH  24  28
ENDBRANCH   1  24
TORSDOF 7
ENDMDL
MODEL 9
REMARK VINA RESULT:      -7.9      2.446      8.396
REMARK  Name = 
REMARK  9 active torsions:
REMARK  status: ('A' for Active; 'I' for Inactive)
REMARK    1  A    between atoms: C_1  and  C_2
REMARK    2  A    between atoms: C_2  and  C_3
REMARK    3  A    between atoms: C_6  and  S_7
REMARK    4  A    between atoms: S_7  and  C_8
REMARK    5  A    between atoms: C_10  and  C_11
REMARK    6  A    between atoms: N_13  and  C_14
REMARK    7  A    between atoms: C_14  and  C_15
REMARK    8  A    between atoms: C_20  and  O_21
REMARK    9  A    between atoms: O_21  and  C_22
REMARK                            x       y       z     vdW  Elec       q    Type
REMARK                         _______ _______ _______ _____ _____    ______ ____
ROOT
ATOM      1  C   UNL     1       2.605   6.756  18.785  0.00  0.00    +0.000 A 
ATOM      2  C   UNL     1       3.928   6.380  18.893  0.00  0.00    +0.000 A 
ATOM      3  C   UNL     1       4.200   5.069  19.270  0.00  0.00    +0.000 A 
ATOM      4  C   UNL     1       3.229   4.295  19.900  0.00  0.00    +0.000 A 
ATOM      5  C   UNL     1       3.528   3.089  20.589  0.00  0.00    +0.000 A 
ATOM      6  C   UNL     1       2.522   2.373  21.212  0.00  0.00    +0.000 A 
ATOM      7  C   UNL     1       1.213   2.808  21.104  0.00  0.00    +0.000 A 
ATOM      8  C   UNL     1       0.923   3.989  20.398  0.00  0.00    +0.000 A 
ATOM      9  C   UNL     1       1.914   4.784  19.822  0.00  0.00    +0.000 A 
ATOM     10  N   UNL     1       1.601   5.959  19.202  0.00  0.00    +0.000 NA
ENDROOT
BRANCH   3  11
ATOM     11  C   UNL     1       5.230   4.384  18.449  0.00  0.00    +0.000 C 
ATOM     12  O   UNL     1       6.303   4.014  18.914  0.00  0.00    +0.000 OA
ATOM     13  N   UNL     1       4.787   4.135  17.168  0.00  0.00    +0.000 N 
ATOM     14  H   UNL     1       3.817   4.344  16.936  0.00  0.00    +0.000 HD
BRANCH  13  15
ATOM     15  C   UNL     1       5.430   3.208  16.269  0.00  0.00    +0.000 C 
BRANCH  15  16
ATOM     16  C   UNL     1       6.080   3.890  15.093  0.00  0.00    +0.000 A 
ATOM     17  C   UNL     1       5.703   3.518  13.783  0.00  0.00    +0.000 A 
ATOM     18  C   UNL     1       6.323   4.058  12.657  0.00  0.00    +0.000 A 
ATOM     19  C   UNL     1       7.323   5.006  12.813  0.00  0.00    +0.000 A 
ATOM     20  C   UNL     1       7.684   5.423  14.093  0.00  0.00    +0.000 A 
ATOM     21  C   UNL     1       7.058   4.895  15.233  0.00  0.00    +0.000 A 
BRANCH  21  22
ATOM     22  O   UNL     1       7.569   5.385  16.406  0.00  0.00    +0.000 OA
ATOM     23  C   UNL     1       7.236   6.722  16.757  0.00  0.00    +0.000 C 
ENDBRANCH  21  22
ENDBRANCH  15  16
ENDBRANCH  13  15
ENDBRANCH   3  11
BRANCH   1  24
ATOM     24  S   UNL     1       2.390   8.317  17.952  0.00  0.00    +0.000 S 
BRANCH  24  28
ATOM     25  C   UNL     1      -0.337  11.064  20.450  0.00  0.00    +0.000 A 
ATOM     26  C   UNL     1       0.183   9.860  20.930  0.00  0.00    +0.000 A 
ATOM     27  C   UNL     1       1.001   9.070  20.118  0.00  0.00    +0.000 A 
ATOM     28  C   UNL     1       1.317   9.439  18.798  0.00  0.00    +0.000 A 
ATOM     29  C   UNL     1       0.852  10.669  18.339  0.00  0.00    +0.000 A 
ATOM     30  C   UNL     1       0.026  11.469  19.155  0.00  0.00    +0.000 A 
BRANCH  25  32
ATOM     31  C   UNL     1      -0.696  12.721  22.365  0.00  0.00    +0.000 C 
ATOM     32  C   UNL     1      -1.319  11.844  21.289  0.00  0.00    +0.000 C 
ENDBRANCH  25  32
ENDBRANCH  24  28
ENDBRANCH   1  24
TORSDOF 7
ENDMDL
