MODEL 1
REMARK VINA RESULT:      -7.8      0.000      0.000
REMARK  Name = 
REMARK  7 active torsions:
REMARK  status: ('A' for Active; 'I' for Inactive)
REMARK    1  A    between atoms: C_7  and  C_8
REMARK    2  A    between atoms: C_8  and  C_9
REMARK    3  A    between atoms: C_8  and  N_20
REMARK    4  A    between atoms: N_13  and  C_14
REMARK    5  A    between atoms: C_14  and  C_15
REMARK    6  A    between atoms: N_23  and  C_24
REMARK    7  A    between atoms: C_24  and  C_25
REMARK                            x       y       z     vdW  Elec       q    Type
REMARK                         _______ _______ _______ _____ _____    ______ ____
ROOT
ATOM      1  C   UNL     1       2.302   6.475  19.176  0.00  0.00    +0.000 C 
ENDROOT
BRANCH   1   8
ATOM      2 CL   UNL     1       1.012   4.294  16.939  0.00  0.00    +0.000 Cl
ATOM      3  C   UNL     1       1.468   3.894  18.597  0.00  0.00    +0.000 A 
ATOM      4  C   UNL     1       1.393   2.285  19.042  0.00  0.00    +0.000 A 
ATOM      5  C   UNL     1       1.774   1.828  20.600  0.00  0.00    +0.000 A 
ATOM      6  C   UNL     1       2.225   2.982  21.724  0.00  0.00    +0.000 A 
ATOM      7  C   UNL     1       2.329   4.593  21.279  0.00  0.00    +0.000 A 
ATOM      8  C   UNL     1       1.988   5.076  19.710  0.00  0.00    +0.000 A 
ENDBRANCH   1   8
BRANCH   1   9
ATOM      9  N   UNL     1       3.742   6.517  18.783  0.00  0.00    +0.000 NA
ATOM     10  C   UNL     1       4.694   5.548  19.314  0.00  0.00    +0.000 C 
ATOM     11  C   UNL     1       4.921   4.450  18.273  0.00  0.00    +0.000 C 
ATOM     12  N   UNL     1       5.289   4.985  16.932  0.00  0.00    +0.000 NA
ATOM     13  C   UNL     1       4.591   6.213  16.486  0.00  0.00    +0.000 C 
ATOM     14  C   UNL     1       4.269   7.190  17.581  0.00  0.00    +0.000 C 
BRANCH  12  15
ATOM     15  C   UNL     1       6.688   4.766  16.536  0.00  0.00    +0.000 C 
BRANCH  15  16
ATOM     16  C   UNL     1       6.898   4.704  15.041  0.00  0.00    +0.000 A 
ATOM     17  C   UNL     1       6.243   3.866  14.157  0.00  0.00    +0.000 A 
ATOM     18  C   UNL     1       6.784   4.130  12.918  0.00  0.00    +0.000 A 
ATOM     19  C   UNL     1       7.733   5.111  13.113  0.00  0.00    +0.000 A 
ATOM     20  O   UNL     1       7.782   5.422  14.385  0.00  0.00    +0.000 OA
ENDBRANCH  15  16
ENDBRANCH  12  15
ENDBRANCH   1   9
BRANCH   1  21
ATOM     21  C   UNL     1       1.819   7.775  19.902  0.00  0.00    +0.000 A 
ATOM     22  N   UNL     1       1.691   7.730  21.258  0.00  0.00    +0.000 NA
ATOM     23  N   UNL     1       1.222   8.895  21.650  0.00  0.00    +0.000 NA
ATOM     24  N   UNL     1       1.055   9.668  20.598  0.00  0.00    +0.000 NA
ATOM     25  N   UNL     1       1.421   9.028  19.489  0.00  0.00    +0.000 N 
BRANCH  25  26
ATOM     26  C   UNL     1       1.318   9.771  18.236  0.00  0.00    +0.000 C 
BRANCH  26  27
ATOM     27  C   UNL     1      -0.066  10.322  18.120  0.00  0.00    +0.000 A 
ATOM     28  C   UNL     1      -0.409  11.591  18.497  0.00  0.00    +0.000 A 
ATOM     29  C   UNL     1      -1.741  11.712  18.254  0.00  0.00    +0.000 A 
ATOM     30  C   UNL     1      -2.147  10.496  17.742  0.00  0.00    +0.000 A 
ATOM     31  O   UNL     1      -1.114   9.680  17.662  0.00  0.00    +0.000 OA
ENDBRANCH  26  27
ENDBRANCH  25  26
ENDBRANCH   1  21
TORSDOF 7
ENDMDL
MODEL 2
REMARK VINA RESULT:      -7.7      1.695      2.137
REMARK  Name = 
REMARK  7 active torsions:
REMARK  status: ('A' for Active; 'I' for Inactive)
REMARK    1  A    between atoms: C_7  and  C_8
REMARK    2  A    between atoms: C_8  and  C_9
REMARK    3  A    between atoms: C_8  and  N_20
REMARK    4  A    between atoms: N_13  and  C_14
REMARK    5  A    between atoms: C_14  and  C_15
REMARK    6  A    between atoms: N_23  and  C_24
REMARK    7  A    between atoms: C_24  and  C_25
REMARK                            x       y       z     vdW  Elec       q    Type
REMARK                         _______ _______ _______ _____ _____    ______ ____
ROOT
ATOM      1  C   UNL     1       2.523   6.473  18.446  0.00  0.00    +0.000 C 
ENDROOT
BRANCH   1   8
ATOM      2 CL   UNL     1       0.849   3.970  16.911  0.00  0.00    +0.000 Cl
ATOM      3  C   UNL     1       1.367   3.956  18.598  0.00  0.00    +0.000 A 
ATOM      4  C   UNL     1       1.142   2.538  19.454  0.00  0.00    +0.000 A 
ATOM      5  C   UNL     1       1.571   2.454  21.063  0.00  0.00    +0.000 A 
ATOM      6  C   UNL     1       2.224   3.791  21.826  0.00  0.00    +0.000 A 
ATOM      7  C   UNL     1       2.478   5.207  20.970  0.00  0.00    +0.000 A 
ATOM      8  C   UNL     1       2.090   5.309  19.341  0.00  0.00    +0.000 A 
ENDBRANCH   1   8
BRANCH   1   9
ATOM      9  N   UNL     1       3.981   6.326  18.157  0.00  0.00    +0.000 NA
ATOM     10  C   UNL     1       4.701   5.111  18.521  0.00  0.00    +0.000 C 
ATOM     11  C   UNL     1       4.839   4.223  17.283  0.00  0.00    +0.000 C 
ATOM     12  N   UNL     1       5.418   4.940  16.113  0.00  0.00    +0.000 NA
ATOM     13  C   UNL     1       4.984   6.340  15.902  0.00  0.00    +0.000 C 
ATOM     14  C   UNL     1       4.727   7.118  17.161  0.00  0.00    +0.000 C 
BRANCH  12  15
ATOM     15  C   UNL     1       6.792   4.551  15.762  0.00  0.00    +0.000 C 
BRANCH  15  16
ATOM     16  C   UNL     1       7.109   4.683  14.290  0.00  0.00    +0.000 A 
ATOM     17  C   UNL     1       6.593   3.905  13.270  0.00  0.00    +0.000 A 
ATOM     18  C   UNL     1       7.191   4.357  12.114  0.00  0.00    +0.000 A 
ATOM     19  C   UNL     1       8.033   5.382  12.490  0.00  0.00    +0.000 A 
ATOM     20  O   UNL     1       7.967   5.543  13.790  0.00  0.00    +0.000 OA
ENDBRANCH  15  16
ENDBRANCH  12  15
ENDBRANCH   1   9
BRANCH   1  21
ATOM     21  C   UNL     1       2.093   7.951  18.730  0.00  0.00    +0.000 A 
ATOM     22  N   UNL     1       2.302   8.869  17.746  0.00  0.00    +0.000 NA
ATOM     23  N   UNL     1       1.928  10.041  18.213  0.00  0.00    +0.000 NA
ATOM     24  N   UNL     1       1.491   9.894  19.446  0.00  0.00    +0.000 NA
ATOM     25  N   UNL     1       1.560   8.615  19.813  0.00  0.00    +0.000 N 
BRANCH  25  26
ATOM     26  C   UNL     1       1.081   8.290  21.154  0.00  0.00    +0.000 C 
BRANCH  26  27
ATOM     27  C   UNL     1       0.216   9.408  21.637  0.00  0.00    +0.000 A 
ATOM     28  C   UNL     1       0.087   9.748  22.956  0.00  0.00    +0.000 A 
ATOM     29  C   UNL     1      -0.786  10.790  22.994  0.00  0.00    +0.000 A 
ATOM     30  C   UNL     1      -1.153  11.029  21.685  0.00  0.00    +0.000 A 
ATOM     31  O   UNL     1      -0.525  10.187  20.887  0.00  0.00    +0.000 OA
ENDBRANCH  26  27
ENDBRANCH  25  26
ENDBRANCH   1  21
TORSDOF 7
ENDMDL
MODEL 3
REMARK VINA RESULT:      -7.5      4.255      5.589
REMARK  Name = 
REMARK  7 active torsions:
REMARK  status: ('A' for Active; 'I' for Inactive)
REMARK    1  A    between atoms: C_7  and  C_8
REMARK    2  A    between atoms: C_8  and  C_9
REMARK    3  A    between atoms: C_8  and  N_20
REMARK    4  A    between atoms: N_13  and  C_14
REMARK    5  A    between atoms: C_14  and  C_15
REMARK    6  A    between atoms: N_23  and  C_24
REMARK    7  A    between atoms: C_24  and  C_25
REMARK                            x       y       z     vdW  Elec       q    Type
REMARK                         _______ _______ _______ _____ _____    ______ ____
ROOT
ATOM      1  C   UNL     1       4.860   5.367  17.970  0.00  0.00    +0.000 C 
ENDROOT
BRANCH   1   8
ATOM      2 CL   UNL     1       2.487   7.070  19.670  0.00  0.00    +0.000 Cl
ATOM      3  C   UNL     1       2.490   5.325  19.409  0.00  0.00    +0.000 A 
ATOM      4  C   UNL     1       1.141   4.475  19.914  0.00  0.00    +0.000 A 
ATOM      5  C   UNL     1       1.081   2.818  19.736  0.00  0.00    +0.000 A 
ATOM      6  C   UNL     1       2.372   2.001  19.058  0.00  0.00    +0.000 A 
ATOM      7  C   UNL     1       3.716   2.847  18.524  0.00  0.00    +0.000 A 
ATOM      8  C   UNL     1       3.788   4.517  18.657  0.00  0.00    +0.000 A 
ENDBRANCH   1   8
BRANCH   1   9
ATOM      9  N   UNL     1       4.938   4.959  16.536  0.00  0.00    +0.000 NA
ATOM     10  C   UNL     1       4.831   5.945  15.467  0.00  0.00    +0.000 C 
ATOM     11  C   UNL     1       6.234   6.288  14.964  0.00  0.00    +0.000 C 
ATOM     12  N   UNL     1       7.032   5.085  14.598  0.00  0.00    +0.000 NA
ATOM     13  C   UNL     1       6.893   3.897  15.471  0.00  0.00    +0.000 C 
ATOM     14  C   UNL     1       5.522   3.695  16.050  0.00  0.00    +0.000 C 
BRANCH  12  15
ATOM     15  C   UNL     1       7.252   4.898  13.156  0.00  0.00    +0.000 C 
BRANCH  15  16
ATOM     16  C   UNL     1       6.344   3.868  12.526  0.00  0.00    +0.000 A 
ATOM     17  C   UNL     1       6.742   2.713  11.878  0.00  0.00    +0.000 A 
ATOM     18  C   UNL     1       5.583   2.112  11.437  0.00  0.00    +0.000 A 
ATOM     19  C   UNL     1       4.547   2.927  11.840  0.00  0.00    +0.000 A 
ATOM     20  O   UNL     1       5.034   3.965  12.476  0.00  0.00    +0.000 OA
ENDBRANCH  15  16
ENDBRANCH  12  15
ENDBRANCH   1   9
BRANCH   1  21
ATOM     21  C   UNL     1       6.262   5.628  18.618  0.00  0.00    +0.000 A 
ATOM     22  N   UNL     1       6.574   4.935  19.748  0.00  0.00    +0.000 NA
ATOM     23  N   UNL     1       7.757   5.347  20.151  0.00  0.00    +0.000 NA
ATOM     24  N   UNL     1       8.198   6.266  19.320  0.00  0.00    +0.000 NA
ATOM     25  N   UNL     1       7.316   6.471  18.343  0.00  0.00    +0.000 N 
BRANCH  25  26
ATOM     26  C   UNL     1       7.681   7.450  17.322  0.00  0.00    +0.000 C 
BRANCH  26  27
ATOM     27  C   UNL     1       8.229   8.664  17.999  0.00  0.00    +0.000 A 
ATOM     28  C   UNL     1       8.078   9.933  17.512  0.00  0.00    +0.000 A 
ATOM     29  C   UNL     1       8.719  10.753  18.388  0.00  0.00    +0.000 A 
ATOM     30  C   UNL     1       9.238   9.933  19.369  0.00  0.00    +0.000 A 
ATOM     31  O   UNL     1       8.918   8.679  19.115  0.00  0.00    +0.000 OA
ENDBRANCH  26  27
ENDBRANCH  25  26
ENDBRANCH   1  21
TORSDOF 7
ENDMDL
MODEL 4
REMARK VINA RESULT:      -7.5      0.879      1.122
REMARK  Name = 
REMARK  7 active torsions:
REMARK  status: ('A' for Active; 'I' for Inactive)
REMARK    1  A    between atoms: C_7  and  C_8
REMARK    2  A    between atoms: C_8  and  C_9
REMARK    3  A    between atoms: C_8  and  N_20
REMARK    4  A    between atoms: N_13  and  C_14
REMARK    5  A    between atoms: C_14  and  C_15
REMARK    6  A    between atoms: N_23  and  C_24
REMARK    7  A    between atoms: C_24  and  C_25
REMARK                            x       y       z     vdW  Elec       q    Type
REMARK                         _______ _______ _______ _____ _____    ______ ____
ROOT
ATOM      1  C   UNL     1       2.319   6.472  19.177  0.00  0.00    +0.000 C 
ENDROOT
BRANCH   1   8
ATOM      2 CL   UNL     1       1.006   4.293  16.952  0.00  0.00    +0.000 Cl
ATOM      3  C   UNL     1       1.473   3.893  18.607  0.00  0.00    +0.000 A 
ATOM      4  C   UNL     1       1.396   2.284  19.054  0.00  0.00    +0.000 A 
ATOM      5  C   UNL     1       1.786   1.828  20.609  0.00  0.00    +0.000 A 
ATOM      6  C   UNL     1       2.249   2.980  21.729  0.00  0.00    +0.000 A 
ATOM      7  C   UNL     1       2.355   4.591  21.282  0.00  0.00    +0.000 A 
ATOM      8  C   UNL     1       2.004   5.074  19.715  0.00  0.00    +0.000 A 
ENDBRANCH   1   8
BRANCH   1   9
ATOM      9  N   UNL     1       3.764   6.518  18.805  0.00  0.00    +0.000 NA
ATOM     10  C   UNL     1       4.688   5.480  19.248  0.00  0.00    +0.000 C 
ATOM     11  C   UNL     1       4.903   4.486  18.106  0.00  0.00    +0.000 C 
ATOM     12  N   UNL     1       5.299   5.141  16.828  0.00  0.00    +0.000 NA
ATOM     13  C   UNL     1       4.635   6.424  16.499  0.00  0.00    +0.000 C 
ATOM     14  C   UNL     1       4.321   7.295  17.682  0.00  0.00    +0.000 C 
BRANCH  12  15
ATOM     15  C   UNL     1       6.698   4.930  16.426  0.00  0.00    +0.000 C 
BRANCH  15  16
ATOM     16  C   UNL     1       6.890   4.768  14.937  0.00  0.00    +0.000 A 
ATOM     17  C   UNL     1       6.209   3.887  14.116  0.00  0.00    +0.000 A 
ATOM     18  C   UNL     1       6.740   4.061  12.856  0.00  0.00    +0.000 A 
ATOM     19  C   UNL     1       7.708   5.035  12.977  0.00  0.00    +0.000 A 
ATOM     20  O   UNL     1       7.778   5.426  14.226  0.00  0.00    +0.000 OA
ENDBRANCH  15  16
ENDBRANCH  12  15
ENDBRANCH   1   9
BRANCH   1  21
ATOM     21  C   UNL     1       1.819   7.773  19.890  0.00  0.00    +0.000 A 
ATOM     22  N   UNL     1       1.655   7.730  21.241  0.00  0.00    +0.000 NA
ATOM     23  N   UNL     1       1.178   8.896  21.620  0.00  0.00    +0.000 NA
ATOM     24  N   UNL     1       1.039   9.668  20.563  0.00  0.00    +0.000 NA
ATOM     25  N   UNL     1       1.433   9.026  19.465  0.00  0.00    +0.000 N 
BRANCH  25  26
ATOM     26  C   UNL     1       1.363   9.767  18.208  0.00  0.00    +0.000 C 
BRANCH  26  27
ATOM     27  C   UNL     1       0.908  11.160  18.500  0.00  0.00    +0.000 A 
ATOM     28  C   UNL     1      -0.407  11.536  18.527  0.00  0.00    +0.000 A 
ATOM     29  C   UNL     1      -0.415  12.866  18.810  0.00  0.00    +0.000 A 
ATOM     30  C   UNL     1       0.908  13.237  18.935  0.00  0.00    +0.000 A 
ATOM     31  O   UNL     1       1.684  12.186  18.754  0.00  0.00    +0.000 OA
ENDBRANCH  26  27
ENDBRANCH  25  26
ENDBRANCH   1  21
TORSDOF 7
ENDMDL
MODEL 5
REMARK VINA RESULT:      -7.4      3.795      8.757
REMARK  Name = 
REMARK  7 active torsions:
REMARK  status: ('A' for Active; 'I' for Inactive)
REMARK    1  A    between atoms: C_7  and  C_8
REMARK    2  A    between atoms: C_8  and  C_9
REMARK    3  A    between atoms: C_8  and  N_20
REMARK    4  A    between atoms: N_13  and  C_14
REMARK    5  A    between atoms: C_14  and  C_15
REMARK    6  A    between atoms: N_23  and  C_24
REMARK    7  A    between atoms: C_24  and  C_25
REMARK                            x       y       z     vdW  Elec       q    Type
REMARK                         _______ _______ _______ _____ _____    ______ ____
ROOT
ATOM      1  C   UNL     1      -0.496  10.941  19.472  0.00  0.00    +0.000 C 
ENDROOT
BRANCH   1   8
ATOM      2 CL   UNL     1      -3.366  12.489  20.358  0.00  0.00    +0.000 Cl
ATOM      3  C   UNL     1      -3.101  11.645  18.831  0.00  0.00    +0.000 A 
ATOM      4  C   UNL     1      -4.310  11.749  17.682  0.00  0.00    +0.000 A 
ATOM      5  C   UNL     1      -4.152  10.950  16.226  0.00  0.00    +0.000 A 
ATOM      6  C   UNL     1      -2.786  10.038  15.916  0.00  0.00    +0.000 A 
ATOM      7  C   UNL     1      -1.557   9.951  17.051  0.00  0.00    +0.000 A 
ATOM      8  C   UNL     1      -1.673  10.773  18.507  0.00  0.00    +0.000 A 
ENDBRANCH   1   8
BRANCH   1   9
ATOM      9  N   UNL     1       0.307  12.121  19.032  0.00  0.00    +0.000 NA
ATOM     10  C   UNL     1      -0.324  13.255  18.367  0.00  0.00    +0.000 C 
ATOM     11  C   UNL     1      -0.545  14.371  19.388  0.00  0.00    +0.000 C 
ATOM     12  N   UNL     1       0.690  14.725  20.142  0.00  0.00    +0.000 NA
ATOM     13  C   UNL     1       1.578  13.607  20.536  0.00  0.00    +0.000 C 
ATOM     14  C   UNL     1       1.642  12.474  19.553  0.00  0.00    +0.000 C 
BRANCH  12  15
ATOM     15  C   UNL     1       1.280  16.027  19.796  0.00  0.00    +0.000 C 
BRANCH  15  16
ATOM     16  C   UNL     1       2.604  15.927  19.076  0.00  0.00    +0.000 A 
ATOM     17  C   UNL     1       3.812  16.441  19.511  0.00  0.00    +0.000 A 
ATOM     18  C   UNL     1       4.724  16.147  18.520  0.00  0.00    +0.000 A 
ATOM     19  C   UNL     1       4.026  15.471  17.542  0.00  0.00    +0.000 A 
ATOM     20  O   UNL     1       2.769  15.366  17.899  0.00  0.00    +0.000 OA
ENDBRANCH  15  16
ENDBRANCH  12  15
ENDBRANCH   1   9
BRANCH   1  21
ATOM     21  C   UNL     1       0.381   9.732  19.939  0.00  0.00    +0.000 A 
ATOM     22  N   UNL     1       0.265   9.330  21.235  0.00  0.00    +0.000 NA
ATOM     23  N   UNL     1       1.124   8.352  21.425  0.00  0.00    +0.000 NA
ATOM     24  N   UNL     1       1.770   8.123  20.302  0.00  0.00    +0.000 NA
ATOM     25  N   UNL     1       1.341   8.942  19.344  0.00  0.00    +0.000 N 
BRANCH  25  26
ATOM     26  C   UNL     1       1.949   8.787  18.025  0.00  0.00    +0.000 C 
BRANCH  26  27
ATOM     27  C   UNL     1       2.591   7.439  17.949  0.00  0.00    +0.000 A 
ATOM     28  C   UNL     1       3.910   7.246  17.644  0.00  0.00    +0.000 A 
ATOM     29  C   UNL     1       4.108   5.901  17.660  0.00  0.00    +0.000 A 
ATOM     30  C   UNL     1       2.888   5.338  17.971  0.00  0.00    +0.000 A 
ATOM     31  O   UNL     1       1.993   6.290  18.151  0.00  0.00    +0.000 OA
ENDBRANCH  26  27
ENDBRANCH  25  26
ENDBRANCH   1  21
TORSDOF 7
ENDMDL
MODEL 6
REMARK VINA RESULT:      -7.4      2.036      7.525
REMARK  Name = 
REMARK  7 active torsions:
REMARK  status: ('A' for Active; 'I' for Inactive)
REMARK    1  A    between atoms: C_7  and  C_8
REMARK    2  A    between atoms: C_8  and  C_9
REMARK    3  A    between atoms: C_8  and  N_20
REMARK    4  A    between atoms: N_13  and  C_14
REMARK    5  A    between atoms: C_14  and  C_15
REMARK    6  A    between atoms: N_23  and  C_24
REMARK    7  A    between atoms: C_24  and  C_25
REMARK                            x       y       z     vdW  Elec       q    Type
REMARK                         _______ _______ _______ _____ _____    ______ ____
ROOT
ATOM      1  C   UNL     1       4.949   4.693  18.739  0.00  0.00    +0.000 C 
ENDROOT
BRANCH   1   8
ATOM      2 CL   UNL     1       4.520   2.095  20.859  0.00  0.00    +0.000 Cl
ATOM      3  C   UNL     1       3.301   2.695  19.732  0.00  0.00    +0.000 A 
ATOM      4  C   UNL     1       1.774   2.020  19.829  0.00  0.00    +0.000 A 
ATOM      5  C   UNL     1       0.576   2.506  18.777  0.00  0.00    +0.000 A 
ATOM      6  C   UNL     1       0.900   3.666  17.616  0.00  0.00    +0.000 A 
ATOM      7  C   UNL     1       2.419   4.367  17.530  0.00  0.00    +0.000 A 
ATOM      8  C   UNL     1       3.632   3.924  18.599  0.00  0.00    +0.000 A 
ENDBRANCH   1   8
BRANCH   1   9
ATOM      9  N   UNL     1       4.630   6.131  18.978  0.00  0.00    +0.000 NA
ATOM     10  C   UNL     1       5.113   7.169  18.074  0.00  0.00    +0.000 C 
ATOM     11  C   UNL     1       3.986   7.558  17.115  0.00  0.00    +0.000 C 
ATOM     12  N   UNL     1       2.720   7.910  17.816  0.00  0.00    +0.000 NA
ATOM     13  C   UNL     1       2.358   7.093  18.997  0.00  0.00    +0.000 C 
ATOM     14  C   UNL     1       3.522   6.621  19.820  0.00  0.00    +0.000 C 
BRANCH  12  15
ATOM     15  C   UNL     1       2.371   9.339  17.794  0.00  0.00    +0.000 C 
BRANCH  15  16
ATOM     16  C   UNL     1       1.025   9.650  18.404  0.00  0.00    +0.000 A 
ATOM     17  C   UNL     1       0.788  10.021  19.715  0.00  0.00    +0.000 A 
ATOM     18  C   UNL     1      -0.579  10.160  19.824  0.00  0.00    +0.000 A 
ATOM     19  C   UNL     1      -1.097   9.870  18.580  0.00  0.00    +0.000 A 
ATOM     20  O   UNL     1      -0.119   9.562  17.763  0.00  0.00    +0.000 OA
ENDBRANCH  15  16
ENDBRANCH  12  15
ENDBRANCH   1   9
BRANCH   1  21
ATOM     21  C   UNL     1       6.150   4.477  17.760  0.00  0.00    +0.000 A 
ATOM     22  N   UNL     1       7.398   4.390  18.300  0.00  0.00    +0.000 NA
ATOM     23  N   UNL     1       8.252   4.272  17.306  0.00  0.00    +0.000 NA
ATOM     24  N   UNL     1       7.592   4.279  16.168  0.00  0.00    +0.000 NA
ATOM     25  N   UNL     1       6.284   4.392  16.391  0.00  0.00    +0.000 N 
BRANCH  25  26
ATOM     26  C   UNL     1       5.414   4.387  15.218  0.00  0.00    +0.000 C 
BRANCH  26  27
ATOM     27  C   UNL     1       6.264   4.460  13.991  0.00  0.00    +0.000 A 
ATOM     28  C   UNL     1       6.189   3.560  12.964  0.00  0.00    +0.000 A 
ATOM     29  C   UNL     1       7.118   3.950  12.051  0.00  0.00    +0.000 A 
ATOM     30  C   UNL     1       7.721   5.074  12.576  0.00  0.00    +0.000 A 
ATOM     31  O   UNL     1       7.180   5.365  13.742  0.00  0.00    +0.000 OA
ENDBRANCH  26  27
ENDBRANCH  25  26
ENDBRANCH   1  21
TORSDOF 7
ENDMDL
MODEL 7
REMARK VINA RESULT:      -7.3      6.632      8.535
REMARK  Name = 
REMARK  7 active torsions:
REMARK  status: ('A' for Active; 'I' for Inactive)
REMARK    1  A    between atoms: C_7  and  C_8
REMARK    2  A    between atoms: C_8  and  C_9
REMARK    3  A    between atoms: C_8  and  N_20
REMARK    4  A    between atoms: N_13  and  C_14
REMARK    5  A    between atoms: C_14  and  C_15
REMARK    6  A    between atoms: N_23  and  C_24
REMARK    7  A    between atoms: C_24  and  C_25
REMARK                            x       y       z     vdW  Elec       q    Type
REMARK                         _______ _______ _______ _____ _____    ______ ____
ROOT
ATOM      1  C   UNL     1      -1.852  12.100  19.668  0.00  0.00    +0.000 C 
ENDROOT
BRANCH   1   8
ATOM      2 CL   UNL     1       0.192   9.828  18.224  0.00  0.00    +0.000 Cl
ATOM      3  C   UNL     1      -0.054  10.008  19.963  0.00  0.00    +0.000 A 
ATOM      4  C   UNL     1       0.908   9.084  20.970  0.00  0.00    +0.000 A 
ATOM      5  C   UNL     1       0.713   9.169  22.624  0.00  0.00    +0.000 A 
ATOM      6  C   UNL     1      -0.451  10.175  23.279  0.00  0.00    +0.000 A 
ATOM      7  C   UNL     1      -1.401  11.125  22.279  0.00  0.00    +0.000 A 
ATOM      8  C   UNL     1      -1.202  11.087  20.614  0.00  0.00    +0.000 A 
ENDBRANCH   1   8
BRANCH   1   9
ATOM      9  N   UNL     1      -0.896  13.227  19.457  0.00  0.00    +0.000 NA
ATOM     10  C   UNL     1      -0.290  13.921  20.588  0.00  0.00    +0.000 C 
ATOM     11  C   UNL     1       1.122  13.376  20.809  0.00  0.00    +0.000 C 
ATOM     12  N   UNL     1       1.954  13.395  19.574  0.00  0.00    +0.000 NA
ATOM     13  C   UNL     1       1.278  13.041  18.304  0.00  0.00    +0.000 C 
ATOM     14  C   UNL     1      -0.155  13.481  18.207  0.00  0.00    +0.000 C 
BRANCH  12  15
ATOM     15  C   UNL     1       3.029  14.398  19.561  0.00  0.00    +0.000 C 
BRANCH  15  16
ATOM     16  C   UNL     1       2.766  15.568  18.643  0.00  0.00    +0.000 A 
ATOM     17  C   UNL     1       3.480  15.891  17.504  0.00  0.00    +0.000 A 
ATOM     18  C   UNL     1       2.911  17.048  17.018  0.00  0.00    +0.000 A 
ATOM     19  C   UNL     1       1.884  17.364  17.882  0.00  0.00    +0.000 A 
ATOM     20  O   UNL     1       1.832  16.471  18.840  0.00  0.00    +0.000 OA
ENDBRANCH  15  16
ENDBRANCH  12  15
ENDBRANCH   1   9
BRANCH   1  21
ATOM     21  C   UNL     1      -3.336  12.568  19.837  0.00  0.00    +0.000 A 
ATOM     22  N   UNL     1      -3.565  13.685  20.582  0.00  0.00    +0.000 NA
ATOM     23  N   UNL     1      -4.867  13.861  20.642  0.00  0.00    +0.000 NA
ATOM     24  N   UNL     1      -5.462  12.904  19.964  0.00  0.00    +0.000 NA
ATOM     25  N   UNL     1      -4.560  12.081  19.434  0.00  0.00    +0.000 N 
BRANCH  25  26
ATOM     26  C   UNL     1      -5.071  10.977  18.625  0.00  0.00    +0.000 C 
BRANCH  26  27
ATOM     27  C   UNL     1      -4.173  10.792  17.446  0.00  0.00    +0.000 A 
ATOM     28  C   UNL     1      -3.278   9.764  17.331  0.00  0.00    +0.000 A 
ATOM     29  C   UNL     1      -2.645   9.945  16.141  0.00  0.00    +0.000 A 
ATOM     30  C   UNL     1      -3.187  11.088  15.590  0.00  0.00    +0.000 A 
ATOM     31  O   UNL     1      -4.114  11.572  16.393  0.00  0.00    +0.000 OA
ENDBRANCH  26  27
ENDBRANCH  25  26
ENDBRANCH   1  21
TORSDOF 7
ENDMDL
MODEL 8
REMARK VINA RESULT:      -7.1      7.015      9.510
REMARK  Name = 
REMARK  7 active torsions:
REMARK  status: ('A' for Active; 'I' for Inactive)
REMARK    1  A    between atoms: C_7  and  C_8
REMARK    2  A    between atoms: C_8  and  C_9
REMARK    3  A    between atoms: C_8  and  N_20
REMARK    4  A    between atoms: N_13  and  C_14
REMARK    5  A    between atoms: C_14  and  C_15
REMARK    6  A    between atoms: N_23  and  C_24
REMARK    7  A    between atoms: C_24  and  C_25
REMARK                            x       y       z     vdW  Elec       q    Type
REMARK                         _______ _______ _______ _____ _____    ______ ____
ROOT
ATOM      1  C   UNL     1      -2.214  12.518  21.616  0.00  0.00    +0.000 C 
ENDROOT
BRANCH   1   8
ATOM      2 CL   UNL     1      -1.237  11.284  18.626  0.00  0.00    +0.000 Cl
ATOM      3  C   UNL     1      -0.696  10.683  20.195  0.00  0.00    +0.000 A 
ATOM      4  C   UNL     1       0.500   9.515  20.194  0.00  0.00    +0.000 A 
ATOM      5  C   UNL     1       1.041   8.870  21.633  0.00  0.00    +0.000 A 
ATOM      6  C   UNL     1       0.382   9.385  23.081  0.00  0.00    +0.000 A 
ATOM      7  C   UNL     1      -0.797  10.573  23.093  0.00  0.00    +0.000 A 
ATOM      8  C   UNL     1      -1.334  11.267  21.664  0.00  0.00    +0.000 A 
ENDBRANCH   1   8
BRANCH   1   9
ATOM      9  N   UNL     1      -1.358  13.706  21.905  0.00  0.00    +0.000 NA
ATOM     10  C   UNL     1       0.057  13.719  21.549  0.00  0.00    +0.000 C 
ATOM     11  C   UNL     1       0.234  14.490  20.240  0.00  0.00    +0.000 C 
ATOM     12  N   UNL     1      -0.392  15.841  20.270  0.00  0.00    +0.000 NA
ATOM     13  C   UNL     1      -1.698  15.959  20.959  0.00  0.00    +0.000 C 
ATOM     14  C   UNL     1      -1.863  15.069  22.157  0.00  0.00    +0.000 C 
BRANCH  12  15
ATOM     15  C   UNL     1       0.554  16.966  20.320  0.00  0.00    +0.000 C 
BRANCH  15  16
ATOM     16  C   UNL     1       1.744  16.806  19.404  0.00  0.00    +0.000 A 
ATOM     17  C   UNL     1       1.765  17.041  18.041  0.00  0.00    +0.000 A 
ATOM     18  C   UNL     1       3.040  16.726  17.625  0.00  0.00    +0.000 A 
ATOM     19  C   UNL     1       3.724  16.321  18.751  0.00  0.00    +0.000 A 
ATOM     20  O   UNL     1       2.924  16.371  19.787  0.00  0.00    +0.000 OA
ENDBRANCH  15  16
ENDBRANCH  12  15
ENDBRANCH   1   9
BRANCH   1  21
ATOM     21  C   UNL     1      -3.616  12.580  22.309  0.00  0.00    +0.000 A 
ATOM     22  N   UNL     1      -3.698  12.175  23.607  0.00  0.00    +0.000 NA
ATOM     23  N   UNL     1      -4.961  12.252  23.967  0.00  0.00    +0.000 NA
ATOM     24  N   UNL     1      -5.672  12.691  22.951  0.00  0.00    +0.000 NA
ATOM     25  N   UNL     1      -4.887  12.922  21.900  0.00  0.00    +0.000 N 
BRANCH  25  26
ATOM     26  C   UNL     1      -5.533  13.441  20.698  0.00  0.00    +0.000 C 
BRANCH  26  27
ATOM     27  C   UNL     1      -5.695  12.322  19.720  0.00  0.00    +0.000 A 
ATOM     28  C   UNL     1      -6.833  11.572  19.613  0.00  0.00    +0.000 A 
ATOM     29  C   UNL     1      -6.592  10.657  18.636  0.00  0.00    +0.000 A 
ATOM     30  C   UNL     1      -5.305  10.895  18.199  0.00  0.00    +0.000 A 
ATOM     31  O   UNL     1      -4.792  11.912  18.863  0.00  0.00    +0.000 OA
ENDBRANCH  26  27
ENDBRANCH  25  26
ENDBRANCH   1  21
TORSDOF 7
ENDMDL
MODEL 9
REMARK VINA RESULT:      -7.1      7.027      9.284
REMARK  Name = 
REMARK  7 active torsions:
REMARK  status: ('A' for Active; 'I' for Inactive)
REMARK    1  A    between atoms: C_7  and  C_8
REMARK    2  A    between atoms: C_8  and  C_9
REMARK    3  A    between atoms: C_8  and  N_20
REMARK    4  A    between atoms: N_13  and  C_14
REMARK    5  A    between atoms: C_14  and  C_15
REMARK    6  A    between atoms: N_23  and  C_24
REMARK    7  A    between atoms: C_24  and  C_25
REMARK                            x       y       z     vdW  Elec       q    Type
REMARK                         _______ _______ _______ _____ _____    ______ ____
ROOT
ATOM      1  C   UNL     1      -0.876  11.385  19.665  0.00  0.00    +0.000 C 
ENDROOT
BRANCH   1   8
ATOM      2 CL   UNL     1      -3.950  12.745  20.011  0.00  0.00    +0.000 Cl
ATOM      3  C   UNL     1      -3.427  11.759  18.644  0.00  0.00    +0.000 A 
ATOM      4  C   UNL     1      -4.486  11.613  17.358  0.00  0.00    +0.000 A 
ATOM      5  C   UNL     1      -4.082  10.670  16.044  0.00  0.00    +0.000 A 
ATOM      6  C   UNL     1      -2.619   9.862  16.011  0.00  0.00    +0.000 A 
ATOM      7  C   UNL     1      -1.540  10.024  17.282  0.00  0.00    +0.000 A 
ATOM      8  C   UNL     1      -1.904  10.995  18.600  0.00  0.00    +0.000 A 
ENDBRANCH   1   8
BRANCH   1   9
ATOM      9  N   UNL     1       0.186  12.208  19.013  0.00  0.00    +0.000 NA
ATOM     10  C   UNL     1      -0.140  13.459  18.338  0.00  0.00    +0.000 C 
ATOM     11  C   UNL     1       0.178  14.627  19.274  0.00  0.00    +0.000 C 
ATOM     12  N   UNL     1       1.564  14.579  19.817  0.00  0.00    +0.000 NA
ATOM     13  C   UNL     1       2.092  13.246  20.188  0.00  0.00    +0.000 C 
ATOM     14  C   UNL     1       1.628  12.116  19.314  0.00  0.00    +0.000 C 
BRANCH  12  15
ATOM     15  C   UNL     1       2.481  15.593  19.276  0.00  0.00    +0.000 C 
BRANCH  15  16
ATOM     16  C   UNL     1       1.785  16.802  18.698  0.00  0.00    +0.000 A 
ATOM     17  C   UNL     1       1.046  17.735  19.403  0.00  0.00    +0.000 A 
ATOM     18  C   UNL     1       0.573  18.626  18.464  0.00  0.00    +0.000 A 
ATOM     19  C   UNL     1       1.049  18.192  17.246  0.00  0.00    +0.000 A 
ATOM     20  O   UNL     1       1.757  17.102  17.419  0.00  0.00    +0.000 OA
ENDBRANCH  15  16
ENDBRANCH  12  15
ENDBRANCH   1   9
BRANCH   1  21
ATOM     21  C   UNL     1      -0.314  10.355  20.701  0.00  0.00    +0.000 A 
ATOM     22  N   UNL     1       0.552   9.408  20.245  0.00  0.00    +0.000 NA
ATOM     23  N   UNL     1       0.847   8.621  21.257  0.00  0.00    +0.000 NA
ATOM     24  N   UNL     1       0.205   9.037  22.327  0.00  0.00    +0.000 NA
ATOM     25  N   UNL     1      -0.520  10.117  22.042  0.00  0.00    +0.000 N 
BRANCH  25  26
ATOM     26  C   UNL     1      -1.272  10.714  23.144  0.00  0.00    +0.000 C 
BRANCH  26  27
ATOM     27  C   UNL     1      -1.227  12.201  23.003  0.00  0.00    +0.000 A 
ATOM     28  C   UNL     1      -2.342  12.992  22.987  0.00  0.00    +0.000 A 
ATOM     29  C   UNL     1      -1.898  14.268  22.830  0.00  0.00    +0.000 A 
ATOM     30  C   UNL     1      -0.523  14.187  22.752  0.00  0.00    +0.000 A 
ATOM     31  O   UNL     1      -0.144  12.929  22.870  0.00  0.00    +0.000 OA
ENDBRANCH  26  27
ENDBRANCH  25  26
ENDBRANCH   1  21
TORSDOF 7
ENDMDL
