MODEL 1
REMARK VINA RESULT:      -7.8      0.000      0.000
REMARK  Name = 
REMARK  6 active torsions:
REMARK  status: ('A' for Active; 'I' for Inactive)
REMARK    1  A    between atoms: C_1  and  C_2
REMARK    2  A    between atoms: C_2  and  C_3
REMARK    3  A    between atoms: N_5  and  C_6
REMARK    4  A    between atoms: C_6  and  C_7
REMARK    5  A    between atoms: N_9  and  C_10
REMARK    6  A    between atoms: C_10  and  C_11
REMARK                            x       y       z     vdW  Elec       q    Type
REMARK                         _______ _______ _______ _____ _____    ______ ____
ROOT
ATOM      1  C   UNL     1       6.576   4.765  18.346  0.00  0.00    +0.000 A 
ATOM      2  N   UNL     1       5.845   4.191  19.256  0.00  0.00    +0.000 NA
ATOM      3  N   UNL     1       4.673   3.544  18.871  0.00  0.00    +0.000 N 
ATOM      4  C   UNL     1       4.243   3.422  17.545  0.00  0.00    +0.000 A 
ATOM      5  O   UNL     1       3.245   2.771  17.235  0.00  0.00    +0.000 OA
ATOM      6  C   UNL     1       5.067   4.114  16.591  0.00  0.00    +0.000 A 
ATOM      7  C   UNL     1       4.926   4.291  15.228  0.00  0.00    +0.000 A 
ATOM      8  C   UNL     1       6.024   5.063  14.789  0.00  0.00    +0.000 A 
ATOM      9  C   UNL     1       6.809   5.323  15.893  0.00  0.00    +0.000 A 
ATOM     10  N   UNL     1       6.209   4.758  16.998  0.00  0.00    +0.000 N 
ENDROOT
BRANCH   1  12
ATOM     11  C   UNL     1       7.776   6.938  18.424  0.00  0.00    +0.000 C 
ATOM     12  C   UNL     1       7.865   5.449  18.711  0.00  0.00    +0.000 C 
ENDBRANCH   1  12
BRANCH   3  13
ATOM     13  C   UNL     1       3.841   3.035  19.955  0.00  0.00    +0.000 C 
BRANCH  13  14
ATOM     14  C   UNL     1       2.708   3.984  20.336  0.00  0.00    +0.000 C 
ATOM     15  O   UNL     1       1.615   3.566  20.717  0.00  0.00    +0.000 OA
ATOM     16  N   UNL     1       3.029   5.325  20.333  0.00  0.00    +0.000 N 
ATOM     17  H   UNL     1       3.925   5.629  19.961  0.00  0.00    +0.000 HD
BRANCH  16  18
ATOM     18  C   UNL     1       2.052   6.322  20.711  0.00  0.00    +0.000 C 
BRANCH  18  19
ATOM     19  C   UNL     1       2.009   7.469  19.737  0.00  0.00    +0.000 A 
ATOM     20  C   UNL     1       2.648   7.378  18.492  0.00  0.00    +0.000 A 
ATOM     21  C   UNL     1       2.567   8.428  17.575  0.00  0.00    +0.000 A 
ATOM     22  C   UNL     1       1.843   9.578  17.889  0.00  0.00    +0.000 A 
ATOM     23  C   UNL     1       1.199   9.679  19.121  0.00  0.00    +0.000 A 
ATOM     24  C   UNL     1       1.277   8.629  20.038  0.00  0.00    +0.000 A 
ENDBRANCH  18  19
ENDBRANCH  16  18
ENDBRANCH  13  14
ENDBRANCH   3  13
TORSDOF 5
ENDMDL
MODEL 2
REMARK VINA RESULT:      -7.7      0.119      1.013
REMARK  Name = 
REMARK  6 active torsions:
REMARK  status: ('A' for Active; 'I' for Inactive)
REMARK    1  A    between atoms: C_1  and  C_2
REMARK    2  A    between atoms: C_2  and  C_3
REMARK    3  A    between atoms: N_5  and  C_6
REMARK    4  A    between atoms: C_6  and  C_7
REMARK    5  A    between atoms: N_9  and  C_10
REMARK    6  A    between atoms: C_10  and  C_11
REMARK                            x       y       z     vdW  Elec       q    Type
REMARK                         _______ _______ _______ _____ _____    ______ ____
ROOT
ATOM      1  C   UNL     1       6.466   4.772  18.473  0.00  0.00    +0.000 A 
ATOM      2  N   UNL     1       5.696   4.194  19.349  0.00  0.00    +0.000 NA
ATOM      3  N   UNL     1       4.540   3.552  18.910  0.00  0.00    +0.000 N 
ATOM      4  C   UNL     1       4.167   3.438  17.567  0.00  0.00    +0.000 A 
ATOM      5  O   UNL     1       3.182   2.791  17.210  0.00  0.00    +0.000 OA
ATOM      6  C   UNL     1       5.033   4.133  16.652  0.00  0.00    +0.000 A 
ATOM      7  C   UNL     1       4.950   4.317  15.285  0.00  0.00    +0.000 A 
ATOM      8  C   UNL     1       6.068   5.090  14.898  0.00  0.00    +0.000 A 
ATOM      9  C   UNL     1       6.805   5.342  16.036  0.00  0.00    +0.000 A 
ATOM     10  N   UNL     1       6.158   4.772  17.111  0.00  0.00    +0.000 N 
ENDROOT
BRANCH   1  12
ATOM     11  C   UNL     1       7.750   6.897  18.433  0.00  0.00    +0.000 C 
ATOM     12  C   UNL     1       7.740   5.451  18.897  0.00  0.00    +0.000 C 
ENDBRANCH   1  12
BRANCH   3  13
ATOM     13  C   UNL     1       3.661   3.039  19.955  0.00  0.00    +0.000 C 
BRANCH  13  14
ATOM     14  C   UNL     1       2.586   4.037  20.376  0.00  0.00    +0.000 C 
ATOM     15  O   UNL     1       1.491   3.667  20.799  0.00  0.00    +0.000 OA
ATOM     16  N   UNL     1       2.964   5.362  20.355  0.00  0.00    +0.000 N 
ATOM     17  H   UNL     1       3.857   5.627  19.947  0.00  0.00    +0.000 HD
BRANCH  16  18
ATOM     18  C   UNL     1       2.045   6.401  20.766  0.00  0.00    +0.000 C 
BRANCH  18  19
ATOM     19  C   UNL     1       1.943   7.502  19.744  0.00  0.00    +0.000 A 
ATOM     20  C   UNL     1       1.274   8.698  20.042  0.00  0.00    +0.000 A 
ATOM     21  C   UNL     1       1.221   9.733  19.106  0.00  0.00    +0.000 A 
ATOM     22  C   UNL     1       1.840   9.587  17.865  0.00  0.00    +0.000 A 
ATOM     23  C   UNL     1       2.512   8.405  17.558  0.00  0.00    +0.000 A 
ATOM     24  C   UNL     1       2.568   7.370  18.493  0.00  0.00    +0.000 A 
ENDBRANCH  18  19
ENDBRANCH  16  18
ENDBRANCH  13  14
ENDBRANCH   3  13
TORSDOF 5
ENDMDL
MODEL 3
REMARK VINA RESULT:      -7.5      2.055      6.218
REMARK  Name = 
REMARK  6 active torsions:
REMARK  status: ('A' for Active; 'I' for Inactive)
REMARK    1  A    between atoms: C_1  and  C_2
REMARK    2  A    between atoms: C_2  and  C_3
REMARK    3  A    between atoms: N_5  and  C_6
REMARK    4  A    between atoms: C_6  and  C_7
REMARK    5  A    between atoms: N_9  and  C_10
REMARK    6  A    between atoms: C_10  and  C_11
REMARK                            x       y       z     vdW  Elec       q    Type
REMARK                         _______ _______ _______ _____ _____    ______ ____
ROOT
ATOM      1  C   UNL     1       3.118   5.890  19.463  0.00  0.00    +0.000 A 
ATOM      2  N   UNL     1       4.399   5.856  19.241  0.00  0.00    +0.000 NA
ATOM      3  N   UNL     1       5.068   4.638  19.339  0.00  0.00    +0.000 N 
ATOM      4  C   UNL     1       4.441   3.417  19.615  0.00  0.00    +0.000 A 
ATOM      5  O   UNL     1       5.052   2.348  19.612  0.00  0.00    +0.000 OA
ATOM      6  C   UNL     1       3.034   3.527  19.894  0.00  0.00    +0.000 A 
ATOM      7  C   UNL     1       2.108   2.576  20.280  0.00  0.00    +0.000 A 
ATOM      8  C   UNL     1       0.866   3.235  20.425  0.00  0.00    +0.000 A 
ATOM      9  C   UNL     1       1.069   4.562  20.110  0.00  0.00    +0.000 A 
ATOM     10  N   UNL     1       2.401   4.742  19.806  0.00  0.00    +0.000 N 
ENDROOT
BRANCH   1  12
ATOM     11  C   UNL     1       2.428   7.706  17.916  0.00  0.00    +0.000 C 
ATOM     12  C   UNL     1       2.349   7.177  19.338  0.00  0.00    +0.000 C 
ENDBRANCH   1  12
BRANCH   3  13
ATOM     13  C   UNL     1       6.519   4.695  19.205  0.00  0.00    +0.000 C 
BRANCH  13  14
ATOM     14  C   UNL     1       6.978   5.525  18.010  0.00  0.00    +0.000 C 
ATOM     15  O   UNL     1       7.713   6.502  18.146  0.00  0.00    +0.000 OA
ATOM     16  N   UNL     1       6.608   5.043  16.773  0.00  0.00    +0.000 N 
ATOM     17  H   UNL     1       5.956   4.265  16.709  0.00  0.00    +0.000 HD
BRANCH  16  18
ATOM     18  C   UNL     1       7.011   5.722  15.561  0.00  0.00    +0.000 C 
BRANCH  18  19
ATOM     19  C   UNL     1       6.674   4.927  14.328  0.00  0.00    +0.000 A 
ATOM     20  C   UNL     1       7.531   4.926  13.218  0.00  0.00    +0.000 A 
ATOM     21  C   UNL     1       7.235   4.151  12.095  0.00  0.00    +0.000 A 
ATOM     22  C   UNL     1       6.082   3.367  12.069  0.00  0.00    +0.000 A 
ATOM     23  C   UNL     1       5.224   3.356  13.168  0.00  0.00    +0.000 A 
ATOM     24  C   UNL     1       5.520   4.127  14.292  0.00  0.00    +0.000 A 
ENDBRANCH  18  19
ENDBRANCH  16  18
ENDBRANCH  13  14
ENDBRANCH   3  13
TORSDOF 5
ENDMDL
MODEL 4
REMARK VINA RESULT:      -7.4      2.146      6.347
REMARK  Name = 
REMARK  6 active torsions:
REMARK  status: ('A' for Active; 'I' for Inactive)
REMARK    1  A    between atoms: C_1  and  C_2
REMARK    2  A    between atoms: C_2  and  C_3
REMARK    3  A    between atoms: N_5  and  C_6
REMARK    4  A    between atoms: C_6  and  C_7
REMARK    5  A    between atoms: N_9  and  C_10
REMARK    6  A    between atoms: C_10  and  C_11
REMARK                            x       y       z     vdW  Elec       q    Type
REMARK                         _______ _______ _______ _____ _____    ______ ____
ROOT
ATOM      1  C   UNL     1       3.075   5.467  18.773  0.00  0.00    +0.000 A 
ATOM      2  N   UNL     1       4.367   5.445  18.623  0.00  0.00    +0.000 NA
ATOM      3  N   UNL     1       5.090   4.384  19.162  0.00  0.00    +0.000 N 
ATOM      4  C   UNL     1       4.511   3.294  19.822  0.00  0.00    +0.000 A 
ATOM      5  O   UNL     1       5.175   2.333  20.212  0.00  0.00    +0.000 OA
ATOM      6  C   UNL     1       3.087   3.398  19.995  0.00  0.00    +0.000 A 
ATOM      7  C   UNL     1       2.190   2.578  20.654  0.00  0.00    +0.000 A 
ATOM      8  C   UNL     1       0.911   3.161  20.517  0.00  0.00    +0.000 A 
ATOM      9  C   UNL     1       1.063   4.309  19.768  0.00  0.00    +0.000 A 
ATOM     10  N   UNL     1       2.399   4.462  19.468  0.00  0.00    +0.000 N 
ENDROOT
BRANCH   1  12
ATOM     11  C   UNL     1       2.262   7.792  19.094  0.00  0.00    +0.000 C 
ATOM     12  C   UNL     1       2.250   6.578  18.181  0.00  0.00    +0.000 C 
ENDBRANCH   1  12
BRANCH   3  13
ATOM     13  C   UNL     1       6.542   4.488  19.068  0.00  0.00    +0.000 C 
BRANCH  13  14
ATOM     14  C   UNL     1       7.007   5.310  17.869  0.00  0.00    +0.000 C 
ATOM     15  O   UNL     1       7.584   6.387  18.009  0.00  0.00    +0.000 OA
ATOM     16  N   UNL     1       6.837   4.714  16.637  0.00  0.00    +0.000 N 
ATOM     17  H   UNL     1       6.307   3.850  16.563  0.00  0.00    +0.000 HD
BRANCH  16  18
ATOM     18  C   UNL     1       7.270   5.378  15.427  0.00  0.00    +0.000 C 
BRANCH  18  19
ATOM     19  C   UNL     1       6.785   4.671  14.190  0.00  0.00    +0.000 A 
ATOM     20  C   UNL     1       5.527   4.053  14.163  0.00  0.00    +0.000 A 
ATOM     21  C   UNL     1       5.064   3.437  12.998  0.00  0.00    +0.000 A 
ATOM     22  C   UNL     1       5.851   3.436  11.847  0.00  0.00    +0.000 A 
ATOM     23  C   UNL     1       7.102   4.051  11.859  0.00  0.00    +0.000 A 
ATOM     24  C   UNL     1       7.565   4.669  13.022  0.00  0.00    +0.000 A 
ENDBRANCH  18  19
ENDBRANCH  16  18
ENDBRANCH  13  14
ENDBRANCH   3  13
TORSDOF 5
ENDMDL
MODEL 5
REMARK VINA RESULT:      -7.3      3.320      5.904
REMARK  Name = 
REMARK  6 active torsions:
REMARK  status: ('A' for Active; 'I' for Inactive)
REMARK    1  A    between atoms: C_1  and  C_2
REMARK    2  A    between atoms: C_2  and  C_3
REMARK    3  A    between atoms: N_5  and  C_6
REMARK    4  A    between atoms: C_6  and  C_7
REMARK    5  A    between atoms: N_9  and  C_10
REMARK    6  A    between atoms: C_10  and  C_11
REMARK                            x       y       z     vdW  Elec       q    Type
REMARK                         _______ _______ _______ _____ _____    ______ ____
ROOT
ATOM      1  C   UNL     1       3.238   6.553  17.850  0.00  0.00    +0.000 A 
ATOM      2  N   UNL     1       4.376   7.003  17.409  0.00  0.00    +0.000 NA
ATOM      3  N   UNL     1       5.305   6.100  16.897  0.00  0.00    +0.000 N 
ATOM      4  C   UNL     1       5.079   4.725  16.775  0.00  0.00    +0.000 A 
ATOM      5  O   UNL     1       5.891   3.969  16.241  0.00  0.00    +0.000 OA
ATOM      6  C   UNL     1       3.823   4.282  17.319  0.00  0.00    +0.000 A 
ATOM      7  C   UNL     1       3.288   3.016  17.455  0.00  0.00    +0.000 A 
ATOM      8  C   UNL     1       2.022   3.159  18.067  0.00  0.00    +0.000 A 
ATOM      9  C   UNL     1       1.818   4.508  18.272  0.00  0.00    +0.000 A 
ATOM     10  N   UNL     1       2.930   5.191  17.832  0.00  0.00    +0.000 N 
ENDROOT
BRANCH   1  12
ATOM     11  C   UNL     1       2.283   8.839  17.683  0.00  0.00    +0.000 C 
ATOM     12  C   UNL     1       2.192   7.494  18.382  0.00  0.00    +0.000 C 
ENDBRANCH   1  12
BRANCH   3  13
ATOM     13  C   UNL     1       6.606   6.657  16.541  0.00  0.00    +0.000 C 
BRANCH  13  14
ATOM     14  C   UNL     1       7.470   6.984  17.755  0.00  0.00    +0.000 C 
ATOM     15  O   UNL     1       7.790   6.120  18.572  0.00  0.00    +0.000 OA
ATOM     16  N   UNL     1       7.955   8.273  17.811  0.00  0.00    +0.000 N 
ATOM     17  H   UNL     1       7.622   8.966  17.147  0.00  0.00    +0.000 HD
BRANCH  16  18
ATOM     18  C   UNL     1       8.815   8.695  18.895  0.00  0.00    +0.000 C 
BRANCH  18  19
ATOM     19  C   UNL     1       9.016  10.187  18.909  0.00  0.00    +0.000 A 
ATOM     20  C   UNL     1       8.672  10.968  17.797  0.00  0.00    +0.000 A 
ATOM     21  C   UNL     1       8.819  12.357  17.833  0.00  0.00    +0.000 A 
ATOM     22  C   UNL     1       9.306  12.979  18.981  0.00  0.00    +0.000 A 
ATOM     23  C   UNL     1       9.647  12.215  20.095  0.00  0.00    +0.000 A 
ATOM     24  C   UNL     1       9.499  10.827  20.062  0.00  0.00    +0.000 A 
ENDBRANCH  18  19
ENDBRANCH  16  18
ENDBRANCH  13  14
ENDBRANCH   3  13
TORSDOF 5
ENDMDL
MODEL 6
REMARK VINA RESULT:      -7.2      3.660      6.334
REMARK  Name = 
REMARK  6 active torsions:
REMARK  status: ('A' for Active; 'I' for Inactive)
REMARK    1  A    between atoms: C_1  and  C_2
REMARK    2  A    between atoms: C_2  and  C_3
REMARK    3  A    between atoms: N_5  and  C_6
REMARK    4  A    between atoms: C_6  and  C_7
REMARK    5  A    between atoms: N_9  and  C_10
REMARK    6  A    between atoms: C_10  and  C_11
REMARK                            x       y       z     vdW  Elec       q    Type
REMARK                         _______ _______ _______ _____ _____    ______ ____
ROOT
ATOM      1  C   UNL     1       6.021   4.126  16.256  0.00  0.00    +0.000 A 
ATOM      2  N   UNL     1       6.975   4.817  16.809  0.00  0.00    +0.000 NA
ATOM      3  N   UNL     1       6.767   5.362  18.073  0.00  0.00    +0.000 N 
ATOM      4  C   UNL     1       5.603   5.175  18.828  0.00  0.00    +0.000 A 
ATOM      5  O   UNL     1       5.487   5.604  19.976  0.00  0.00    +0.000 OA
ATOM      6  C   UNL     1       4.570   4.442  18.146  0.00  0.00    +0.000 A 
ATOM      7  C   UNL     1       3.277   4.131  18.523  0.00  0.00    +0.000 A 
ATOM      8  C   UNL     1       2.697   3.396  17.465  0.00  0.00    +0.000 A 
ATOM      9  C   UNL     1       3.656   3.269  16.482  0.00  0.00    +0.000 A 
ATOM     10  N   UNL     1       4.795   3.927  16.893  0.00  0.00    +0.000 N 
ENDROOT
BRANCH   1  12
ATOM     11  C   UNL     1       5.711   4.417  13.809  0.00  0.00    +0.000 C 
ATOM     12  C   UNL     1       6.213   3.492  14.905  0.00  0.00    +0.000 C 
ENDBRANCH   1  12
BRANCH   3  13
ATOM     13  C   UNL     1       7.826   6.230  18.576  0.00  0.00    +0.000 C 
BRANCH  13  14
ATOM     14  C   UNL     1       7.825   7.612  17.931  0.00  0.00    +0.000 C 
ATOM     15  O   UNL     1       7.147   7.859  16.933  0.00  0.00    +0.000 OA
ATOM     16  N   UNL     1       8.537   8.583  18.602  0.00  0.00    +0.000 N 
ATOM     17  H   UNL     1       9.125   8.324  19.389  0.00  0.00    +0.000 HD
BRANCH  16  18
ATOM     18  C   UNL     1       8.583   9.943  18.109  0.00  0.00    +0.000 C 
BRANCH  18  19
ATOM     19  C   UNL     1       9.646  10.758  18.797  0.00  0.00    +0.000 A 
ATOM     20  C   UNL     1      10.696  11.331  18.066  0.00  0.00    +0.000 A 
ATOM     21  C   UNL     1      11.654  12.123  18.703  0.00  0.00    +0.000 A 
ATOM     22  C   UNL     1      11.570  12.355  20.075  0.00  0.00    +0.000 A 
ATOM     23  C   UNL     1      10.528  11.794  20.813  0.00  0.00    +0.000 A 
ATOM     24  C   UNL     1       9.569  11.004  20.177  0.00  0.00    +0.000 A 
ENDBRANCH  18  19
ENDBRANCH  16  18
ENDBRANCH  13  14
ENDBRANCH   3  13
TORSDOF 5
ENDMDL
MODEL 7
REMARK VINA RESULT:      -7.1      2.392      6.579
REMARK  Name = 
REMARK  6 active torsions:
REMARK  status: ('A' for Active; 'I' for Inactive)
REMARK    1  A    between atoms: C_1  and  C_2
REMARK    2  A    between atoms: C_2  and  C_3
REMARK    3  A    between atoms: N_5  and  C_6
REMARK    4  A    between atoms: C_6  and  C_7
REMARK    5  A    between atoms: N_9  and  C_10
REMARK    6  A    between atoms: C_10  and  C_11
REMARK                            x       y       z     vdW  Elec       q    Type
REMARK                         _______ _______ _______ _____ _____    ______ ____
ROOT
ATOM      1  C   UNL     1       3.231   5.853  18.207  0.00  0.00    +0.000 A 
ATOM      2  N   UNL     1       4.481   5.700  17.877  0.00  0.00    +0.000 NA
ATOM      3  N   UNL     1       5.201   4.647  18.437  0.00  0.00    +0.000 N 
ATOM      4  C   UNL     1       4.655   3.697  19.306  0.00  0.00    +0.000 A 
ATOM      5  O   UNL     1       5.301   2.732  19.717  0.00  0.00    +0.000 OA
ATOM      6  C   UNL     1       3.285   3.945  19.668  0.00  0.00    +0.000 A 
ATOM      7  C   UNL     1       2.445   3.290  20.547  0.00  0.00    +0.000 A 
ATOM      8  C   UNL     1       1.203   3.964  20.522  0.00  0.00    +0.000 A 
ATOM      9  C   UNL     1       1.319   5.000  19.619  0.00  0.00    +0.000 A 
ATOM     10  N   UNL     1       2.601   4.998  19.113  0.00  0.00    +0.000 N 
ENDROOT
BRANCH   1  12
ATOM     11  C   UNL     1       2.495   8.212  18.453  0.00  0.00    +0.000 C 
ATOM     12  C   UNL     1       2.406   6.956  17.603  0.00  0.00    +0.000 C 
ENDBRANCH   1  12
BRANCH   3  13
ATOM     13  C   UNL     1       6.625   4.612  18.123  0.00  0.00    +0.000 C 
BRANCH  13  14
ATOM     14  C   UNL     1       6.959   5.259  16.782  0.00  0.00    +0.000 C 
ATOM     15  O   UNL     1       7.452   6.384  16.712  0.00  0.00    +0.000 OA
ATOM     16  N   UNL     1       6.777   4.459  15.674  0.00  0.00    +0.000 N 
ATOM     17  H   UNL     1       6.318   3.558  15.772  0.00  0.00    +0.000 HD
BRANCH  16  18
ATOM     18  C   UNL     1       7.092   4.946  14.349  0.00  0.00    +0.000 C 
BRANCH  18  19
ATOM     19  C   UNL     1       6.450   4.112  13.272  0.00  0.00    +0.000 A 
ATOM     20  C   UNL     1       7.232   3.371  12.376  0.00  0.00    +0.000 A 
ATOM     21  C   UNL     1       6.629   2.564  11.408  0.00  0.00    +0.000 A 
ATOM     22  C   UNL     1       5.239   2.486  11.329  0.00  0.00    +0.000 A 
ATOM     23  C   UNL     1       4.450   3.215  12.217  0.00  0.00    +0.000 A 
ATOM     24  C   UNL     1       5.051   4.019  13.186  0.00  0.00    +0.000 A 
ENDBRANCH  18  19
ENDBRANCH  16  18
ENDBRANCH  13  14
ENDBRANCH   3  13
TORSDOF 5
ENDMDL
MODEL 8
REMARK VINA RESULT:      -7.1      3.655      6.295
REMARK  Name = 
REMARK  6 active torsions:
REMARK  status: ('A' for Active; 'I' for Inactive)
REMARK    1  A    between atoms: C_1  and  C_2
REMARK    2  A    between atoms: C_2  and  C_3
REMARK    3  A    between atoms: N_5  and  C_6
REMARK    4  A    between atoms: C_6  and  C_7
REMARK    5  A    between atoms: N_9  and  C_10
REMARK    6  A    between atoms: C_10  and  C_11
REMARK                            x       y       z     vdW  Elec       q    Type
REMARK                         _______ _______ _______ _____ _____    ______ ____
ROOT
ATOM      1  C   UNL     1       3.536   6.602  17.830  0.00  0.00    +0.000 A 
ATOM      2  N   UNL     1       4.650   7.102  17.378  0.00  0.00    +0.000 NA
ATOM      3  N   UNL     1       5.681   6.237  17.022  0.00  0.00    +0.000 N 
ATOM      4  C   UNL     1       5.588   4.841  17.069  0.00  0.00    +0.000 A 
ATOM      5  O   UNL     1       6.492   4.107  16.669  0.00  0.00    +0.000 OA
ATOM      6  C   UNL     1       4.352   4.351  17.619  0.00  0.00    +0.000 A 
ATOM      7  C   UNL     1       3.929   3.065  17.896  0.00  0.00    +0.000 A 
ATOM      8  C   UNL     1       2.626   3.161  18.436  0.00  0.00    +0.000 A 
ATOM      9  C   UNL     1       2.290   4.498  18.458  0.00  0.00    +0.000 A 
ATOM     10  N   UNL     1       3.356   5.226  17.976  0.00  0.00    +0.000 N 
ENDROOT
BRANCH   1  12
ATOM     11  C   UNL     1       2.314   7.681  19.703  0.00  0.00    +0.000 C 
ATOM     12  C   UNL     1       2.384   7.497  18.197  0.00  0.00    +0.000 C 
ENDBRANCH   1  12
BRANCH   3  13
ATOM     13  C   UNL     1       6.941   6.868  16.647  0.00  0.00    +0.000 C 
BRANCH  13  14
ATOM     14  C   UNL     1       7.694   7.457  17.836  0.00  0.00    +0.000 C 
ATOM     15  O   UNL     1       8.077   6.754  18.771  0.00  0.00    +0.000 OA
ATOM     16  N   UNL     1       8.010   8.795  17.737  0.00  0.00    +0.000 N 
ATOM     17  H   UNL     1       7.628   9.349  16.975  0.00  0.00    +0.000 HD
BRANCH  16  18
ATOM     18  C   UNL     1       8.753   9.461  18.785  0.00  0.00    +0.000 C 
BRANCH  18  19
ATOM     19  C   UNL     1       9.331  10.772  18.323  0.00  0.00    +0.000 A 
ATOM     20  C   UNL     1       8.496  11.815  17.899  0.00  0.00    +0.000 A 
ATOM     21  C   UNL     1       9.035  13.044  17.514  0.00  0.00    +0.000 A 
ATOM     22  C   UNL     1      10.414  13.246  17.553  0.00  0.00    +0.000 A 
ATOM     23  C   UNL     1      11.256  12.219  17.977  0.00  0.00    +0.000 A 
ATOM     24  C   UNL     1      10.718  10.991  18.364  0.00  0.00    +0.000 A 
ENDBRANCH  18  19
ENDBRANCH  16  18
ENDBRANCH  13  14
ENDBRANCH   3  13
TORSDOF 5
ENDMDL
MODEL 9
REMARK VINA RESULT:      -7.1      4.045      6.592
REMARK  Name = 
REMARK  6 active torsions:
REMARK  status: ('A' for Active; 'I' for Inactive)
REMARK    1  A    between atoms: C_1  and  C_2
REMARK    2  A    between atoms: C_2  and  C_3
REMARK    3  A    between atoms: N_5  and  C_6
REMARK    4  A    between atoms: C_6  and  C_7
REMARK    5  A    between atoms: N_9  and  C_10
REMARK    6  A    between atoms: C_10  and  C_11
REMARK                            x       y       z     vdW  Elec       q    Type
REMARK                         _______ _______ _______ _____ _____    ______ ____
ROOT
ATOM      1  C   UNL     1       5.847   5.105  16.278  0.00  0.00    +0.000 A 
ATOM      2  N   UNL     1       6.836   5.863  16.653  0.00  0.00    +0.000 NA
ATOM      3  N   UNL     1       7.148   5.943  18.008  0.00  0.00    +0.000 N 
ATOM      4  C   UNL     1       6.495   5.215  19.009  0.00  0.00    +0.000 A 
ATOM      5  O   UNL     1       6.852   5.249  20.186  0.00  0.00    +0.000 OA
ATOM      6  C   UNL     1       5.383   4.432  18.539  0.00  0.00    +0.000 A 
ATOM      7  C   UNL     1       4.464   3.660  19.222  0.00  0.00    +0.000 A 
ATOM      8  C   UNL     1       3.580   3.115  18.264  0.00  0.00    +0.000 A 
ATOM      9  C   UNL     1       3.995   3.559  17.026  0.00  0.00    +0.000 A 
ATOM     10  N   UNL     1       5.087   4.381  17.199  0.00  0.00    +0.000 N 
ENDROOT
BRANCH   1  12
ATOM     11  C   UNL     1       6.408   3.953  14.151  0.00  0.00    +0.000 C 
ATOM     12  C   UNL     1       5.493   4.963  14.823  0.00  0.00    +0.000 C 
ENDBRANCH   1  12
BRANCH   3  13
ATOM     13  C   UNL     1       8.182   6.907  18.367  0.00  0.00    +0.000 C 
BRANCH  13  14
ATOM     14  C   UNL     1       7.893   8.314  17.855  0.00  0.00    +0.000 C 
ATOM     15  O   UNL     1       6.904   8.560  17.165  0.00  0.00    +0.000 OA
ATOM     16  N   UNL     1       8.744   9.299  18.308  0.00  0.00    +0.000 N 
ATOM     17  H   UNL     1       9.578   9.044  18.831  0.00  0.00    +0.000 HD
BRANCH  16  18
ATOM     18  C   UNL     1       8.553  10.680  17.921  0.00  0.00    +0.000 C 
BRANCH  18  19
ATOM     19  C   UNL     1       9.509  11.603  18.629  0.00  0.00    +0.000 A 
ATOM     20  C   UNL     1      10.106  11.227  19.840  0.00  0.00    +0.000 A 
ATOM     21  C   UNL     1      11.026  12.069  20.468  0.00  0.00    +0.000 A 
ATOM     22  C   UNL     1      11.362  13.293  19.892  0.00  0.00    +0.000 A 
ATOM     23  C   UNL     1      10.779  13.677  18.685  0.00  0.00    +0.000 A 
ATOM     24  C   UNL     1       9.861  12.835  18.055  0.00  0.00    +0.000 A 
ENDBRANCH  18  19
ENDBRANCH  16  18
ENDBRANCH  13  14
ENDBRANCH   3  13
TORSDOF 5
ENDMDL
