MODEL 1
REMARK VINA RESULT:      -7.1      0.000      0.000
REMARK  Name = 
REMARK  10 active torsions:
REMARK  status: ('A' for Active; 'I' for Inactive)
REMARK    1  A    between atoms: C_2  and  C_4
REMARK    2  A    between atoms: C_4  and  C_5
REMARK    3  A    between atoms: C_4  and  N_12
REMARK    4  A    between atoms: C_5  and  C_6
REMARK    5  A    between atoms: C_13  and  C_15
REMARK    6  A    between atoms: C_15  and  C_16
REMARK    7  A    between atoms: C_16  and  C_17
REMARK    8  A    between atoms: C_26  and  O_28
REMARK    9  A    between atoms: O_28  and  C_29
REMARK   10  A    between atoms: C_29  and  C_30
REMARK                            x       y       z     vdW  Elec       q    Type
REMARK                         _______ _______ _______ _____ _____    ______ ____
ROOT
ATOM      1  C   UNL     1      -1.597  11.903  19.542  0.00  0.00    +0.000 C 
ATOM      2  C   UNL     1      -0.753  12.540  18.397  0.00  0.00    +0.000 C 
ATOM      3  C   UNL     1       0.452  11.715  18.850  0.00  0.00    +0.000 C 
ATOM      4  N   UNL     1      -0.297  11.399  20.052  0.00  0.00    +0.000 N 
ATOM      5  C   UNL     1       0.183  11.315  21.327  0.00  0.00    +0.000 C 
ATOM      6  O   UNL     1      -0.338  11.840  22.300  0.00  0.00    +0.000 OA
ENDROOT
BRANCH   1   8
ATOM      7  N   UNL     1      -3.444  12.294  21.231  0.00  0.00    +0.000 N 
ATOM      8  C   UNL     1      -2.403  12.879  20.533  0.00  0.00    +0.000 C 
ATOM      9  O   UNL     1      -2.141  14.066  20.745  0.00  0.00    +0.000 OA
ATOM     10  H   UNL     1      -3.677  11.326  21.070  0.00  0.00    +0.000 HD
BRANCH   7  11
ATOM     11  C   UNL     1      -4.270  13.042  22.194  0.00  0.00    +0.000 C 
BRANCH  11  13
ATOM     12  N   UNL     1      -2.644  13.486  24.012  0.00  0.00    +0.000 N 
ATOM     13  C   UNL     1      -3.803  12.847  23.656  0.00  0.00    +0.000 C 
ATOM     14  O   UNL     1      -4.459  12.267  24.515  0.00  0.00    +0.000 OA
ATOM     15  H   UNL     1      -2.437  13.496  25.001  0.00  0.00    +0.000 HD
ATOM     16  H   UNL     1      -2.356  14.296  23.475  0.00  0.00    +0.000 HD
ENDBRANCH  11  13
BRANCH  11  17
ATOM     17  C   UNL     1      -5.769  12.745  22.028  0.00  0.00    +0.000 C 
BRANCH  17  18
ATOM     18  C   UNL     1      -6.216  12.603  20.588  0.00  0.00    +0.000 A 
ATOM     19  C   UNL     1      -6.264  13.720  19.746  0.00  0.00    +0.000 A 
ATOM     20  C   UNL     1      -6.733  13.600  18.437  0.00  0.00    +0.000 A 
ATOM     21  C   UNL     1      -7.158  12.363  17.960  0.00  0.00    +0.000 A 
ATOM     22  C   UNL     1      -7.104  11.241  18.786  0.00  0.00    +0.000 A 
ATOM     23  C   UNL     1      -6.627  11.358  20.091  0.00  0.00    +0.000 A 
ENDBRANCH  17  18
ENDBRANCH  11  17
ENDBRANCH   7  11
ENDBRANCH   1   8
BRANCH   1  24
ATOM     24  C   UNL     1      -2.432  10.661  19.128  0.00  0.00    +0.000 C 
BRANCH  24  25
ATOM     25  C   UNL     1      -2.804  10.633  17.659  0.00  0.00    +0.000 A 
ATOM     26  C   UNL     1      -2.173   9.787  16.741  0.00  0.00    +0.000 A 
ATOM     27  C   UNL     1      -2.537   9.794  15.392  0.00  0.00    +0.000 A 
ATOM     28  C   UNL     1      -3.560  10.633  14.945  0.00  0.00    +0.000 A 
ATOM     29  C   UNL     1      -4.216  11.457  15.852  0.00  0.00    +0.000 A 
ATOM     30  C   UNL     1      -3.842  11.459  17.197  0.00  0.00    +0.000 A 
ENDBRANCH  24  25
ENDBRANCH   1  24
BRANCH   5  31
ATOM     31  O   UNL     1       1.297  10.536  21.375  0.00  0.00    +0.000 OA
BRANCH  31  32
ATOM     32  C   UNL     1       1.082   9.149  21.672  0.00  0.00    +0.000 C 
BRANCH  32  33
ATOM     33  C   UNL     1       1.550   8.245  20.551  0.00  0.00    +0.000 A 
ATOM     34  C   UNL     1       1.772   8.752  19.261  0.00  0.00    +0.000 A 
ATOM     35  C   UNL     1       2.272   7.930  18.247  0.00  0.00    +0.000 A 
ATOM     36  C   UNL     1       2.542   6.587  18.503  0.00  0.00    +0.000 A 
ATOM     37  C   UNL     1       2.305   6.065  19.773  0.00  0.00    +0.000 A 
ATOM     38  C   UNL     1       1.810   6.886  20.791  0.00  0.00    +0.000 A 
ENDBRANCH  32  33
ENDBRANCH  31  32
ENDBRANCH   5  31
TORSDOF 10
ENDMDL
MODEL 2
REMARK VINA RESULT:      -6.9      4.979     10.788
REMARK  Name = 
REMARK  10 active torsions:
REMARK  status: ('A' for Active; 'I' for Inactive)
REMARK    1  A    between atoms: C_2  and  C_4
REMARK    2  A    between atoms: C_4  and  C_5
REMARK    3  A    between atoms: C_4  and  N_12
REMARK    4  A    between atoms: C_5  and  C_6
REMARK    5  A    between atoms: C_13  and  C_15
REMARK    6  A    between atoms: C_15  and  C_16
REMARK    7  A    between atoms: C_16  and  C_17
REMARK    8  A    between atoms: C_26  and  O_28
REMARK    9  A    between atoms: O_28  and  C_29
REMARK   10  A    between atoms: C_29  and  C_30
REMARK                            x       y       z     vdW  Elec       q    Type
REMARK                         _______ _______ _______ _____ _____    ______ ____
ROOT
ATOM      1  C   UNL     1       3.046   6.279  18.305  0.00  0.00    +0.000 C 
ATOM      2  C   UNL     1       3.208   6.035  19.836  0.00  0.00    +0.000 C 
ATOM      3  C   UNL     1       2.080   7.036  20.097  0.00  0.00    +0.000 C 
ATOM      4  N   UNL     1       2.193   7.427  18.704  0.00  0.00    +0.000 N 
ATOM      5  C   UNL     1       2.108   8.689  18.191  0.00  0.00    +0.000 C 
ATOM      6  O   UNL     1       2.897   9.165  17.387  0.00  0.00    +0.000 OA
ENDROOT
BRANCH   1   8
ATOM      7  N   UNL     1       5.565   6.430  18.079  0.00  0.00    +0.000 N 
ATOM      8  C   UNL     1       4.355   6.649  17.447  0.00  0.00    +0.000 C 
ATOM      9  O   UNL     1       4.359   7.060  16.283  0.00  0.00    +0.000 OA
ATOM     10  H   UNL     1       5.583   6.097  19.031  0.00  0.00    +0.000 HD
BRANCH   7  11
ATOM     11  C   UNL     1       6.858   6.697  17.427  0.00  0.00    +0.000 C 
BRANCH  11  13
ATOM     12  N   UNL     1       7.150   5.691  15.180  0.00  0.00    +0.000 N 
ATOM     13  C   UNL     1       7.325   5.526  16.529  0.00  0.00    +0.000 C 
ATOM     14  O   UNL     1       7.932   4.543  16.942  0.00  0.00    +0.000 OA
ATOM     15  H   UNL     1       7.607   5.006  14.593  0.00  0.00    +0.000 HD
ATOM     16  H   UNL     1       7.080   6.633  14.814  0.00  0.00    +0.000 HD
ENDBRANCH  11  13
BRANCH  11  17
ATOM     17  C   UNL     1       7.942   7.112  18.434  0.00  0.00    +0.000 C 
BRANCH  17  18
ATOM     18  C   UNL     1       8.307   8.581  18.380  0.00  0.00    +0.000 A 
ATOM     19  C   UNL     1       9.198   9.127  19.314  0.00  0.00    +0.000 A 
ATOM     20  C   UNL     1       9.487  10.492  19.301  0.00  0.00    +0.000 A 
ATOM     21  C   UNL     1       8.888  11.322  18.357  0.00  0.00    +0.000 A 
ATOM     22  C   UNL     1       8.009  10.789  17.416  0.00  0.00    +0.000 A 
ATOM     23  C   UNL     1       7.727   9.422  17.421  0.00  0.00    +0.000 A 
ENDBRANCH  17  18
ENDBRANCH  11  17
ENDBRANCH   7  11
ENDBRANCH   1   8
BRANCH   1  24
ATOM     24  C   UNL     1       2.126   5.266  17.573  0.00  0.00    +0.000 C 
BRANCH  24  25
ATOM     25  C   UNL     1       2.262   3.841  18.070  0.00  0.00    +0.000 A 
ATOM     26  C   UNL     1       1.313   3.244  18.906  0.00  0.00    +0.000 A 
ATOM     27  C   UNL     1       1.476   1.931  19.352  0.00  0.00    +0.000 A 
ATOM     28  C   UNL     1       2.583   1.183  18.946  0.00  0.00    +0.000 A 
ATOM     29  C   UNL     1       3.519   1.753  18.091  0.00  0.00    +0.000 A 
ATOM     30  C   UNL     1       3.362   3.071  17.657  0.00  0.00    +0.000 A 
ENDBRANCH  24  25
ENDBRANCH   1  24
BRANCH   5  31
ATOM     31  O   UNL     1       1.006   9.331  18.663  0.00  0.00    +0.000 OA
BRANCH  31  32
ATOM     32  C   UNL     1       1.250  10.527  19.419  0.00  0.00    +0.000 C 
BRANCH  32  33
ATOM     33  C   UNL     1       0.427  10.579  20.688  0.00  0.00    +0.000 A 
ATOM     34  C   UNL     1       0.215   9.425  21.458  0.00  0.00    +0.000 A 
ATOM     35  C   UNL     1      -0.485   9.491  22.667  0.00  0.00    +0.000 A 
ATOM     36  C   UNL     1      -0.996  10.708  23.114  0.00  0.00    +0.000 A 
ATOM     37  C   UNL     1      -0.812  11.858  22.349  0.00  0.00    +0.000 A 
ATOM     38  C   UNL     1      -0.108  11.795  21.142  0.00  0.00    +0.000 A 
ENDBRANCH  32  33
ENDBRANCH  31  32
ENDBRANCH   5  31
TORSDOF 10
ENDMDL
MODEL 3
REMARK VINA RESULT:      -6.9      5.002     10.750
REMARK  Name = 
REMARK  10 active torsions:
REMARK  status: ('A' for Active; 'I' for Inactive)
REMARK    1  A    between atoms: C_2  and  C_4
REMARK    2  A    between atoms: C_4  and  C_5
REMARK    3  A    between atoms: C_4  and  N_12
REMARK    4  A    between atoms: C_5  and  C_6
REMARK    5  A    between atoms: C_13  and  C_15
REMARK    6  A    between atoms: C_15  and  C_16
REMARK    7  A    between atoms: C_16  and  C_17
REMARK    8  A    between atoms: C_26  and  O_28
REMARK    9  A    between atoms: O_28  and  C_29
REMARK   10  A    between atoms: C_29  and  C_30
REMARK                            x       y       z     vdW  Elec       q    Type
REMARK                         _______ _______ _______ _____ _____    ______ ____
ROOT
ATOM      1  C   UNL     1       3.049   6.256  18.304  0.00  0.00    +0.000 C 
ATOM      2  C   UNL     1       3.218   6.012  19.834  0.00  0.00    +0.000 C 
ATOM      3  C   UNL     1       2.096   7.017  20.100  0.00  0.00    +0.000 C 
ATOM      4  N   UNL     1       2.202   7.407  18.706  0.00  0.00    +0.000 N 
ATOM      5  C   UNL     1       2.117   8.668  18.192  0.00  0.00    +0.000 C 
ATOM      6  O   UNL     1       2.903   9.141  17.384  0.00  0.00    +0.000 OA
ENDROOT
BRANCH   1   8
ATOM      7  N   UNL     1       5.566   6.422  18.072  0.00  0.00    +0.000 N 
ATOM      8  C   UNL     1       4.354   6.620  17.438  0.00  0.00    +0.000 C 
ATOM      9  O   UNL     1       4.354   7.011  16.267  0.00  0.00    +0.000 OA
ATOM     10  H   UNL     1       5.588   6.106  19.030  0.00  0.00    +0.000 HD
BRANCH   7  11
ATOM     11  C   UNL     1       6.857   6.687  17.414  0.00  0.00    +0.000 C 
BRANCH  11  13
ATOM     12  N   UNL     1       7.142   5.669  15.172  0.00  0.00    +0.000 N 
ATOM     13  C   UNL     1       7.323   5.512  16.522  0.00  0.00    +0.000 C 
ATOM     14  O   UNL     1       7.933   4.533  16.938  0.00  0.00    +0.000 OA
ATOM     15  H   UNL     1       7.598   4.981  14.588  0.00  0.00    +0.000 HD
ATOM     16  H   UNL     1       7.069   6.609  14.801  0.00  0.00    +0.000 HD
ENDBRANCH  11  13
BRANCH  11  17
ATOM     17  C   UNL     1       7.944   7.110  18.415  0.00  0.00    +0.000 C 
BRANCH  17  18
ATOM     18  C   UNL     1       8.298   8.581  18.359  0.00  0.00    +0.000 A 
ATOM     19  C   UNL     1       9.202   9.130  19.278  0.00  0.00    +0.000 A 
ATOM     20  C   UNL     1       9.483  10.497  19.264  0.00  0.00    +0.000 A 
ATOM     21  C   UNL     1       8.861  11.327  18.334  0.00  0.00    +0.000 A 
ATOM     22  C   UNL     1       7.968  10.790  17.408  0.00  0.00    +0.000 A 
ATOM     23  C   UNL     1       7.694   9.422  17.414  0.00  0.00    +0.000 A 
ENDBRANCH  17  18
ENDBRANCH  11  17
ENDBRANCH   7  11
ENDBRANCH   1   8
BRANCH   1  24
ATOM     24  C   UNL     1       2.122   5.244  17.578  0.00  0.00    +0.000 C 
BRANCH  24  25
ATOM     25  C   UNL     1       2.296   3.811  18.039  0.00  0.00    +0.000 A 
ATOM     26  C   UNL     1       3.403   3.036  17.678  0.00  0.00    +0.000 A 
ATOM     27  C   UNL     1       3.527   1.715  18.115  0.00  0.00    +0.000 A 
ATOM     28  C   UNL     1       2.553   1.156  18.945  0.00  0.00    +0.000 A 
ATOM     29  C   UNL     1       1.463   1.924  19.337  0.00  0.00    +0.000 A 
ATOM     30  C   UNL     1       1.333   3.240  18.887  0.00  0.00    +0.000 A 
ENDBRANCH  24  25
ENDBRANCH   1  24
BRANCH   5  31
ATOM     31  O   UNL     1       1.020   9.314  18.670  0.00  0.00    +0.000 OA
BRANCH  31  32
ATOM     32  C   UNL     1       1.258  10.588  19.286  0.00  0.00    +0.000 C 
BRANCH  32  33
ATOM     33  C   UNL     1       0.524  10.733  20.602  0.00  0.00    +0.000 A 
ATOM     34  C   UNL     1       0.101  11.992  21.056  0.00  0.00    +0.000 A 
ATOM     35  C   UNL     1      -0.639  12.113  22.237  0.00  0.00    +0.000 A 
ATOM     36  C   UNL     1      -0.951  10.981  22.987  0.00  0.00    +0.000 A 
ATOM     37  C   UNL     1      -0.518   9.728  22.559  0.00  0.00    +0.000 A 
ATOM     38  C   UNL     1       0.218   9.603  21.377  0.00  0.00    +0.000 A 
ENDBRANCH  32  33
ENDBRANCH  31  32
ENDBRANCH   5  31
TORSDOF 10
ENDMDL
MODEL 4
REMARK VINA RESULT:      -6.6      1.143      1.918
REMARK  Name = 
REMARK  10 active torsions:
REMARK  status: ('A' for Active; 'I' for Inactive)
REMARK    1  A    between atoms: C_2  and  C_4
REMARK    2  A    between atoms: C_4  and  C_5
REMARK    3  A    between atoms: C_4  and  N_12
REMARK    4  A    between atoms: C_5  and  C_6
REMARK    5  A    between atoms: C_13  and  C_15
REMARK    6  A    between atoms: C_15  and  C_16
REMARK    7  A    between atoms: C_16  and  C_17
REMARK    8  A    between atoms: C_26  and  O_28
REMARK    9  A    between atoms: O_28  and  C_29
REMARK   10  A    between atoms: C_29  and  C_30
REMARK                            x       y       z     vdW  Elec       q    Type
REMARK                         _______ _______ _______ _____ _____    ______ ____
ROOT
ATOM      1  C   UNL     1      -0.820  11.263  19.449  0.00  0.00    +0.000 C 
ATOM      2  C   UNL     1       0.119  11.544  18.236  0.00  0.00    +0.000 C 
ATOM      3  C   UNL     1       1.072  10.461  18.746  0.00  0.00    +0.000 C 
ATOM      4  N   UNL     1       0.314  10.467  19.984  0.00  0.00    +0.000 N 
ATOM      5  C   UNL     1       0.804  10.364  21.253  0.00  0.00    +0.000 C 
ATOM      6  O   UNL     1       0.484  11.093  22.181  0.00  0.00    +0.000 OA
ENDROOT
BRANCH   1   8
ATOM      7  N   UNL     1      -2.412  12.284  21.134  0.00  0.00    +0.000 N 
ATOM      8  C   UNL     1      -1.290  12.503  20.357  0.00  0.00    +0.000 C 
ATOM      9  O   UNL     1      -0.713  13.592  20.443  0.00  0.00    +0.000 OA
ATOM     10  H   UNL     1      -2.900  11.402  21.076  0.00  0.00    +0.000 HD
BRANCH   7  11
ATOM     11  C   UNL     1      -2.963  13.308  22.037  0.00  0.00    +0.000 C 
BRANCH  11  13
ATOM     12  N   UNL     1      -3.425  13.725  24.437  0.00  0.00    +0.000 N 
ATOM     13  C   UNL     1      -3.180  12.780  23.475  0.00  0.00    +0.000 C 
ATOM     14  O   UNL     1      -3.259  11.591  23.765  0.00  0.00    +0.000 OA
ATOM     15  H   UNL     1      -3.732  13.368  25.332  0.00  0.00    +0.000 HD
ATOM     16  H   UNL     1      -3.799  14.621  24.147  0.00  0.00    +0.000 HD
ENDBRANCH  11  13
BRANCH  11  17
ATOM     17  C   UNL     1      -4.235  13.959  21.470  0.00  0.00    +0.000 C 
BRANCH  17  18
ATOM     18  C   UNL     1      -5.429  13.029  21.401  0.00  0.00    +0.000 A 
ATOM     19  C   UNL     1      -5.623  12.205  20.285  0.00  0.00    +0.000 A 
ATOM     20  C   UNL     1      -6.754  11.393  20.195  0.00  0.00    +0.000 A 
ATOM     21  C   UNL     1      -7.699  11.397  21.218  0.00  0.00    +0.000 A 
ATOM     22  C   UNL     1      -7.510  12.204  22.339  0.00  0.00    +0.000 A 
ATOM     23  C   UNL     1      -6.375  13.010  22.435  0.00  0.00    +0.000 A 
ENDBRANCH  17  18
ENDBRANCH  11  17
ENDBRANCH   7  11
ENDBRANCH   1   8
BRANCH   1  24
ATOM     24  C   UNL     1      -1.976  10.267  19.165  0.00  0.00    +0.000 C 
BRANCH  24  25
ATOM     25  C   UNL     1      -2.635  10.460  17.814  0.00  0.00    +0.000 A 
ATOM     26  C   UNL     1      -3.646  11.402  17.600  0.00  0.00    +0.000 A 
ATOM     27  C   UNL     1      -4.237  11.547  16.342  0.00  0.00    +0.000 A 
ATOM     28  C   UNL     1      -3.804  10.766  15.269  0.00  0.00    +0.000 A 
ATOM     29  C   UNL     1      -2.779   9.847  15.459  0.00  0.00    +0.000 A 
ATOM     30  C   UNL     1      -2.199   9.693  16.720  0.00  0.00    +0.000 A 
ENDBRANCH  24  25
ENDBRANCH   1  24
BRANCH   5  31
ATOM     31  O   UNL     1       1.665   9.317  21.357  0.00  0.00    +0.000 OA
BRANCH  31  32
ATOM     32  C   UNL     1       1.068   8.012  21.392  0.00  0.00    +0.000 C 
BRANCH  32  33
ATOM     33  C   UNL     1       1.723   7.057  20.418  0.00  0.00    +0.000 A 
ATOM     34  C   UNL     1       1.721   5.673  20.654  0.00  0.00    +0.000 A 
ATOM     35  C   UNL     1       2.263   4.788  19.717  0.00  0.00    +0.000 A 
ATOM     36  C   UNL     1       2.830   5.275  18.541  0.00  0.00    +0.000 A 
ATOM     37  C   UNL     1       2.858   6.647  18.304  0.00  0.00    +0.000 A 
ATOM     38  C   UNL     1       2.311   7.534  19.236  0.00  0.00    +0.000 A 
ENDBRANCH  32  33
ENDBRANCH  31  32
ENDBRANCH   5  31
TORSDOF 10
ENDMDL
MODEL 5
REMARK VINA RESULT:      -6.6      7.596     11.027
REMARK  Name = 
REMARK  10 active torsions:
REMARK  status: ('A' for Active; 'I' for Inactive)
REMARK    1  A    between atoms: C_2  and  C_4
REMARK    2  A    between atoms: C_4  and  C_5
REMARK    3  A    between atoms: C_4  and  N_12
REMARK    4  A    between atoms: C_5  and  C_6
REMARK    5  A    between atoms: C_13  and  C_15
REMARK    6  A    between atoms: C_15  and  C_16
REMARK    7  A    between atoms: C_16  and  C_17
REMARK    8  A    between atoms: C_26  and  O_28
REMARK    9  A    between atoms: O_28  and  C_29
REMARK   10  A    between atoms: C_29  and  C_30
REMARK                            x       y       z     vdW  Elec       q    Type
REMARK                         _______ _______ _______ _____ _____    ______ ____
ROOT
ATOM      1  C   UNL     1       6.420   5.412  16.803  0.00  0.00    +0.000 C 
ATOM      2  C   UNL     1       5.322   6.154  15.983  0.00  0.00    +0.000 C 
ATOM      3  C   UNL     1       6.237   7.377  15.899  0.00  0.00    +0.000 C 
ATOM      4  N   UNL     1       7.070   6.743  16.904  0.00  0.00    +0.000 N 
ATOM      5  C   UNL     1       7.701   7.344  17.954  0.00  0.00    +0.000 C 
ATOM      6  O   UNL     1       7.674   6.934  19.105  0.00  0.00    +0.000 OA
ENDROOT
BRANCH   1   8
ATOM      7  N   UNL     1       4.649   4.522  18.381  0.00  0.00    +0.000 N 
ATOM      8  C   UNL     1       6.003   4.732  18.200  0.00  0.00    +0.000 C 
ATOM      9  O   UNL     1       6.785   4.355  19.078  0.00  0.00    +0.000 OA
ATOM     10  H   UNL     1       3.993   4.825  17.677  0.00  0.00    +0.000 HD
BRANCH   7  11
ATOM     11  C   UNL     1       4.101   3.892  19.594  0.00  0.00    +0.000 C 
BRANCH  11  13
ATOM     12  N   UNL     1       3.843   1.651  18.566  0.00  0.00    +0.000 N 
ATOM     13  C   UNL     1       4.336   2.362  19.629  0.00  0.00    +0.000 C 
ATOM     14  O   UNL     1       5.020   1.791  20.471  0.00  0.00    +0.000 OA
ATOM     15  H   UNL     1       4.144   0.688  18.508  0.00  0.00    +0.000 HD
ATOM     16  H   UNL     1       3.691   2.137  17.690  0.00  0.00    +0.000 HD
ENDBRANCH  11  13
BRANCH  11  17
ATOM     17  C   UNL     1       2.623   4.249  19.818  0.00  0.00    +0.000 C 
BRANCH  17  18
ATOM     18  C   UNL     1       2.299   5.711  19.594  0.00  0.00    +0.000 A 
ATOM     19  C   UNL     1       2.504   6.300  18.340  0.00  0.00    +0.000 A 
ATOM     20  C   UNL     1       2.262   7.662  18.151  0.00  0.00    +0.000 A 
ATOM     21  C   UNL     1       1.815   8.445  19.212  0.00  0.00    +0.000 A 
ATOM     22  C   UNL     1       1.596   7.866  20.461  0.00  0.00    +0.000 A 
ATOM     23  C   UNL     1       1.828   6.504  20.650  0.00  0.00    +0.000 A 
ENDBRANCH  17  18
ENDBRANCH  11  17
ENDBRANCH   7  11
ENDBRANCH   1   8
BRANCH   1  24
ATOM     24  C   UNL     1       7.366   4.509  15.966  0.00  0.00    +0.000 C 
BRANCH  24  25
ATOM     25  C   UNL     1       6.914   4.309  14.533  0.00  0.00    +0.000 A 
ATOM     26  C   UNL     1       5.763   3.587  14.203  0.00  0.00    +0.000 A 
ATOM     27  C   UNL     1       5.381   3.415  12.871  0.00  0.00    +0.000 A 
ATOM     28  C   UNL     1       6.135   3.989  11.845  0.00  0.00    +0.000 A 
ATOM     29  C   UNL     1       7.265   4.735  12.159  0.00  0.00    +0.000 A 
ATOM     30  C   UNL     1       7.653   4.894  13.491  0.00  0.00    +0.000 A 
ENDBRANCH  24  25
ENDBRANCH   1  24
BRANCH   5  31
ATOM     31  O   UNL     1       8.396   8.437  17.540  0.00  0.00    +0.000 OA
BRANCH  31  32
ATOM     32  C   UNL     1       7.998   9.691  18.115  0.00  0.00    +0.000 C 
BRANCH  32  33
ATOM     33  C   UNL     1       9.180  10.486  18.627  0.00  0.00    +0.000 A 
ATOM     34  C   UNL     1       9.346  10.727  20.000  0.00  0.00    +0.000 A 
ATOM     35  C   UNL     1      10.476  11.400  20.476  0.00  0.00    +0.000 A 
ATOM     36  C   UNL     1      11.446  11.855  19.585  0.00  0.00    +0.000 A 
ATOM     37  C   UNL     1      11.284  11.641  18.218  0.00  0.00    +0.000 A 
ATOM     38  C   UNL     1      10.157  10.964  17.740  0.00  0.00    +0.000 A 
ENDBRANCH  32  33
ENDBRANCH  31  32
ENDBRANCH   5  31
TORSDOF 10
ENDMDL
MODEL 6
REMARK VINA RESULT:      -6.5      4.908     10.781
REMARK  Name = 
REMARK  10 active torsions:
REMARK  status: ('A' for Active; 'I' for Inactive)
REMARK    1  A    between atoms: C_2  and  C_4
REMARK    2  A    between atoms: C_4  and  C_5
REMARK    3  A    between atoms: C_4  and  N_12
REMARK    4  A    between atoms: C_5  and  C_6
REMARK    5  A    between atoms: C_13  and  C_15
REMARK    6  A    between atoms: C_15  and  C_16
REMARK    7  A    between atoms: C_16  and  C_17
REMARK    8  A    between atoms: C_26  and  O_28
REMARK    9  A    between atoms: O_28  and  C_29
REMARK   10  A    between atoms: C_29  and  C_30
REMARK                            x       y       z     vdW  Elec       q    Type
REMARK                         _______ _______ _______ _____ _____    ______ ____
ROOT
ATOM      1  C   UNL     1       3.023   6.449  18.296  0.00  0.00    +0.000 C 
ATOM      2  C   UNL     1       3.195   6.195  19.825  0.00  0.00    +0.000 C 
ATOM      3  C   UNL     1       2.129   7.257  20.103  0.00  0.00    +0.000 C 
ATOM      4  N   UNL     1       2.241   7.642  18.708  0.00  0.00    +0.000 N 
ATOM      5  C   UNL     1       2.217   8.907  18.196  0.00  0.00    +0.000 C 
ATOM      6  O   UNL     1       3.018   9.339  17.379  0.00  0.00    +0.000 OA
ENDROOT
BRANCH   1   8
ATOM      7  N   UNL     1       5.542   6.591  18.074  0.00  0.00    +0.000 N 
ATOM      8  C   UNL     1       4.336   6.746  17.417  0.00  0.00    +0.000 C 
ATOM      9  O   UNL     1       4.347   7.051  16.221  0.00  0.00    +0.000 OA
ATOM     10  H   UNL     1       5.555   6.345  19.052  0.00  0.00    +0.000 HD
BRANCH   7  11
ATOM     11  C   UNL     1       6.839   6.804  17.409  0.00  0.00    +0.000 C 
BRANCH  11  13
ATOM     12  N   UNL     1       7.282   4.380  17.137  0.00  0.00    +0.000 N 
ATOM     13  C   UNL     1       7.258   5.606  16.524  0.00  0.00    +0.000 C 
ATOM     14  O   UNL     1       7.448   5.678  15.314  0.00  0.00    +0.000 OA
ATOM     15  H   UNL     1       7.388   3.586  16.520  0.00  0.00    +0.000 HD
ATOM     16  H   UNL     1       6.714   4.245  17.965  0.00  0.00    +0.000 HD
ENDBRANCH  11  13
BRANCH  11  17
ATOM     17  C   UNL     1       7.945   7.195  18.403  0.00  0.00    +0.000 C 
BRANCH  17  18
ATOM     18  C   UNL     1       8.317   8.662  18.369  0.00  0.00    +0.000 A 
ATOM     19  C   UNL     1       9.205   9.192  19.314  0.00  0.00    +0.000 A 
ATOM     20  C   UNL     1       9.501  10.556  19.319  0.00  0.00    +0.000 A 
ATOM     21  C   UNL     1       8.913  11.401  18.381  0.00  0.00    +0.000 A 
ATOM     22  C   UNL     1       8.037  10.882  17.429  0.00  0.00    +0.000 A 
ATOM     23  C   UNL     1       7.747   9.518  17.416  0.00  0.00    +0.000 A 
ENDBRANCH  17  18
ENDBRANCH  11  17
ENDBRANCH   7  11
ENDBRANCH   1   8
BRANCH   1  24
ATOM     24  C   UNL     1       2.037   5.488  17.579  0.00  0.00    +0.000 C 
BRANCH  24  25
ATOM     25  C   UNL     1       2.198   4.035  17.976  0.00  0.00    +0.000 A 
ATOM     26  C   UNL     1       3.305   3.271  17.594  0.00  0.00    +0.000 A 
ATOM     27  C   UNL     1       3.417   1.930  17.971  0.00  0.00    +0.000 A 
ATOM     28  C   UNL     1       2.430   1.339  18.763  0.00  0.00    +0.000 A 
ATOM     29  C   UNL     1       1.339   2.095  19.176  0.00  0.00    +0.000 A 
ATOM     30  C   UNL     1       1.222   3.430  18.786  0.00  0.00    +0.000 A 
ENDBRANCH  24  25
ENDBRANCH   1  24
BRANCH   5  31
ATOM     31  O   UNL     1       1.160   9.608  18.685  0.00  0.00    +0.000 OA
BRANCH  31  32
ATOM     32  C   UNL     1      -0.028   9.601  17.879  0.00  0.00    +0.000 C 
BRANCH  32  33
ATOM     33  C   UNL     1      -1.085  10.546  18.410  0.00  0.00    +0.000 A 
ATOM     34  C   UNL     1      -2.304  10.714  17.735  0.00  0.00    +0.000 A 
ATOM     35  C   UNL     1      -3.306  11.533  18.266  0.00  0.00    +0.000 A 
ATOM     36  C   UNL     1      -3.097  12.207  19.468  0.00  0.00    +0.000 A 
ATOM     37  C   UNL     1      -1.883  12.065  20.136  0.00  0.00    +0.000 A 
ATOM     38  C   UNL     1      -0.881  11.243  19.611  0.00  0.00    +0.000 A 
ENDBRANCH  32  33
ENDBRANCH  31  32
ENDBRANCH   5  31
TORSDOF 10
ENDMDL
MODEL 7
REMARK VINA RESULT:      -6.5      9.627     12.926
REMARK  Name = 
REMARK  10 active torsions:
REMARK  status: ('A' for Active; 'I' for Inactive)
REMARK    1  A    between atoms: C_2  and  C_4
REMARK    2  A    between atoms: C_4  and  C_5
REMARK    3  A    between atoms: C_4  and  N_12
REMARK    4  A    between atoms: C_5  and  C_6
REMARK    5  A    between atoms: C_13  and  C_15
REMARK    6  A    between atoms: C_15  and  C_16
REMARK    7  A    between atoms: C_16  and  C_17
REMARK    8  A    between atoms: C_26  and  O_28
REMARK    9  A    between atoms: O_28  and  C_29
REMARK   10  A    between atoms: C_29  and  C_30
REMARK                            x       y       z     vdW  Elec       q    Type
REMARK                         _______ _______ _______ _____ _____    ______ ____
ROOT
ATOM      1  C   UNL     1       6.058   5.866  17.515  0.00  0.00    +0.000 C 
ATOM      2  C   UNL     1       6.700   4.754  18.398  0.00  0.00    +0.000 C 
ATOM      3  C   UNL     1       7.484   5.830  19.152  0.00  0.00    +0.000 C 
ATOM      4  N   UNL     1       7.082   6.760  18.113  0.00  0.00    +0.000 N 
ATOM      5  C   UNL     1       7.839   7.744  17.546  0.00  0.00    +0.000 C 
ATOM      6  O   UNL     1       7.933   7.940  16.343  0.00  0.00    +0.000 OA
ENDROOT
BRANCH   1   8
ATOM      7  N   UNL     1       7.147   4.915  15.436  0.00  0.00    +0.000 N 
ATOM      8  C   UNL     1       6.120   5.706  15.917  0.00  0.00    +0.000 C 
ATOM      9  O   UNL     1       5.316   6.187  15.113  0.00  0.00    +0.000 OA
ATOM     10  H   UNL     1       7.818   4.516  16.075  0.00  0.00    +0.000 HD
BRANCH   7  11
ATOM     11  C   UNL     1       7.336   4.650  13.999  0.00  0.00    +0.000 C 
BRANCH  11  13
ATOM     12  N   UNL     1       7.831   6.154  12.091  0.00  0.00    +0.000 N 
ATOM     13  C   UNL     1       8.247   5.696  13.315  0.00  0.00    +0.000 C 
ATOM     14  O   UNL     1       9.226   6.208  13.848  0.00  0.00    +0.000 OA
ATOM     15  H   UNL     1       8.333   6.954  11.731  0.00  0.00    +0.000 HD
ATOM     16  H   UNL     1       6.846   6.089  11.862  0.00  0.00    +0.000 HD
ENDBRANCH  11  13
BRANCH  11  17
ATOM     17  C   UNL     1       5.999   4.485  13.258  0.00  0.00    +0.000 C 
BRANCH  17  18
ATOM     18  C   UNL     1       5.946   3.283  12.338  0.00  0.00    +0.000 A 
ATOM     19  C   UNL     1       7.118   2.595  12.000  0.00  0.00    +0.000 A 
ATOM     20  C   UNL     1       7.077   1.525  11.105  0.00  0.00    +0.000 A 
ATOM     21  C   UNL     1       5.865   1.134  10.541  0.00  0.00    +0.000 A 
ATOM     22  C   UNL     1       4.690   1.804  10.880  0.00  0.00    +0.000 A 
ATOM     23  C   UNL     1       4.728   2.867  11.782  0.00  0.00    +0.000 A 
ENDBRANCH  17  18
ENDBRANCH  11  17
ENDBRANCH   7  11
ENDBRANCH   1   8
BRANCH   1  24
ATOM     24  C   UNL     1       4.674   6.374  18.005  0.00  0.00    +0.000 C 
BRANCH  24  25
ATOM     25  C   UNL     1       3.739   5.270  18.454  0.00  0.00    +0.000 A 
ATOM     26  C   UNL     1       3.375   5.093  19.792  0.00  0.00    +0.000 A 
ATOM     27  C   UNL     1       2.515   4.059  20.171  0.00  0.00    +0.000 A 
ATOM     28  C   UNL     1       1.985   3.199  19.208  0.00  0.00    +0.000 A 
ATOM     29  C   UNL     1       2.313   3.381  17.870  0.00  0.00    +0.000 A 
ATOM     30  C   UNL     1       3.184   4.407  17.494  0.00  0.00    +0.000 A 
ENDBRANCH  24  25
ENDBRANCH   1  24
BRANCH   5  31
ATOM     31  O   UNL     1       8.442   8.502  18.501  0.00  0.00    +0.000 OA
BRANCH  31  32
ATOM     32  C   UNL     1       8.247   9.920  18.396  0.00  0.00    +0.000 C 
BRANCH  32  33
ATOM     33  C   UNL     1       9.474  10.699  18.817  0.00  0.00    +0.000 A 
ATOM     34  C   UNL     1       9.671  11.064  20.157  0.00  0.00    +0.000 A 
ATOM     35  C   UNL     1      10.840  11.722  20.554  0.00  0.00    +0.000 A 
ATOM     36  C   UNL     1      11.819  12.038  19.614  0.00  0.00    +0.000 A 
ATOM     37  C   UNL     1      11.626  11.700  18.276  0.00  0.00    +0.000 A 
ATOM     38  C   UNL     1      10.461  11.038  17.877  0.00  0.00    +0.000 A 
ENDBRANCH  32  33
ENDBRANCH  31  32
ENDBRANCH   5  31
TORSDOF 10
ENDMDL
MODEL 8
REMARK VINA RESULT:      -6.4      2.233      6.402
REMARK  Name = 
REMARK  10 active torsions:
REMARK  status: ('A' for Active; 'I' for Inactive)
REMARK    1  A    between atoms: C_2  and  C_4
REMARK    2  A    between atoms: C_4  and  C_5
REMARK    3  A    between atoms: C_4  and  N_12
REMARK    4  A    between atoms: C_5  and  C_6
REMARK    5  A    between atoms: C_13  and  C_15
REMARK    6  A    between atoms: C_15  and  C_16
REMARK    7  A    between atoms: C_16  and  C_17
REMARK    8  A    between atoms: C_26  and  O_28
REMARK    9  A    between atoms: O_28  and  C_29
REMARK   10  A    between atoms: C_29  and  C_30
REMARK                            x       y       z     vdW  Elec       q    Type
REMARK                         _______ _______ _______ _____ _____    ______ ____
ROOT
ATOM      1  C   UNL     1      -0.579  12.553  19.002  0.00  0.00    +0.000 C 
ATOM      2  C   UNL     1      -0.167  13.767  18.115  0.00  0.00    +0.000 C 
ATOM      3  C   UNL     1      -0.520  14.706  19.269  0.00  0.00    +0.000 C 
ATOM      4  N   UNL     1      -1.156  13.572  19.913  0.00  0.00    +0.000 N 
ATOM      5  C   UNL     1      -2.325  13.572  20.619  0.00  0.00    +0.000 C 
ATOM      6  O   UNL     1      -3.226  12.761  20.465  0.00  0.00    +0.000 OA
ENDROOT
BRANCH   1   8
ATOM      7  N   UNL     1      -2.642  12.014  17.633  0.00  0.00    +0.000 N 
ATOM      8  C   UNL     1      -1.621  11.485  18.402  0.00  0.00    +0.000 C 
ATOM      9  O   UNL     1      -1.554  10.260  18.536  0.00  0.00    +0.000 OA
ATOM     10  H   UNL     1      -2.717  13.013  17.514  0.00  0.00    +0.000 HD
BRANCH   7  11
ATOM     11  C   UNL     1      -3.669  11.173  16.994  0.00  0.00    +0.000 C 
BRANCH  11  13
ATOM     12  N   UNL     1      -2.449   9.473  15.665  0.00  0.00    +0.000 N 
ATOM     13  C   UNL     1      -3.211  10.612  15.627  0.00  0.00    +0.000 C 
ATOM     14  O   UNL     1      -3.583  11.051  14.544  0.00  0.00    +0.000 OA
ATOM     15  H   UNL     1      -2.298   9.019  14.774  0.00  0.00    +0.000 HD
ATOM     16  H   UNL     1      -2.517   8.874  16.479  0.00  0.00    +0.000 HD
ENDBRANCH  11  13
BRANCH  11  17
ATOM     17  C   UNL     1      -5.025  11.889  16.893  0.00  0.00    +0.000 C 
BRANCH  17  18
ATOM     18  C   UNL     1      -5.879  11.777  18.139  0.00  0.00    +0.000 A 
ATOM     19  C   UNL     1      -6.202  10.521  18.667  0.00  0.00    +0.000 A 
ATOM     20  C   UNL     1      -7.038  10.416  19.780  0.00  0.00    +0.000 A 
ATOM     21  C   UNL     1      -7.557  11.564  20.373  0.00  0.00    +0.000 A 
ATOM     22  C   UNL     1      -7.233  12.820  19.862  0.00  0.00    +0.000 A 
ATOM     23  C   UNL     1      -6.390  12.927  18.756  0.00  0.00    +0.000 A 
ENDBRANCH  17  18
ENDBRANCH  11  17
ENDBRANCH   7  11
ENDBRANCH   1   8
BRANCH   1  24
ATOM     24  C   UNL     1       0.589  11.873  19.766  0.00  0.00    +0.000 C 
BRANCH  24  25
ATOM     25  C   UNL     1       0.139  10.955  20.884  0.00  0.00    +0.000 A 
ATOM     26  C   UNL     1       0.298   9.566  20.825  0.00  0.00    +0.000 A 
ATOM     27  C   UNL     1      -0.136   8.750  21.872  0.00  0.00    +0.000 A 
ATOM     28  C   UNL     1      -0.714   9.315  23.010  0.00  0.00    +0.000 A 
ATOM     29  C   UNL     1      -0.851  10.695  23.096  0.00  0.00    +0.000 A 
ATOM     30  C   UNL     1      -0.429  11.510  22.043  0.00  0.00    +0.000 A 
ENDBRANCH  24  25
ENDBRANCH   1  24
BRANCH   5  31
ATOM     31  O   UNL     1      -2.333  14.569  21.543  0.00  0.00    +0.000 OA
BRANCH  31  32
ATOM     32  C   UNL     1      -3.627  15.056  21.931  0.00  0.00    +0.000 C 
BRANCH  32  33
ATOM     33  C   UNL     1      -4.312  14.135  22.918  0.00  0.00    +0.000 A 
ATOM     34  C   UNL     1      -5.700  13.935  22.871  0.00  0.00    +0.000 A 
ATOM     35  C   UNL     1      -6.320  13.029  23.738  0.00  0.00    +0.000 A 
ATOM     36  C   UNL     1      -5.564  12.324  24.673  0.00  0.00    +0.000 A 
ATOM     37  C   UNL     1      -4.188  12.530  24.744  0.00  0.00    +0.000 A 
ATOM     38  C   UNL     1      -3.565  13.432  23.875  0.00  0.00    +0.000 A 
ENDBRANCH  32  33
ENDBRANCH  31  32
ENDBRANCH   5  31
TORSDOF 10
ENDMDL
MODEL 9
REMARK VINA RESULT:      -6.3      7.113     10.594
REMARK  Name = 
REMARK  10 active torsions:
REMARK  status: ('A' for Active; 'I' for Inactive)
REMARK    1  A    between atoms: C_2  and  C_4
REMARK    2  A    between atoms: C_4  and  C_5
REMARK    3  A    between atoms: C_4  and  N_12
REMARK    4  A    between atoms: C_5  and  C_6
REMARK    5  A    between atoms: C_13  and  C_15
REMARK    6  A    between atoms: C_15  and  C_16
REMARK    7  A    between atoms: C_16  and  C_17
REMARK    8  A    between atoms: C_26  and  O_28
REMARK    9  A    between atoms: O_28  and  C_29
REMARK   10  A    between atoms: C_29  and  C_30
REMARK                            x       y       z     vdW  Elec       q    Type
REMARK                         _______ _______ _______ _____ _____    ______ ____
ROOT
ATOM      1  C   UNL     1       6.252   5.285  17.009  0.00  0.00    +0.000 C 
ATOM      2  C   UNL     1       5.544   6.419  16.208  0.00  0.00    +0.000 C 
ATOM      3  C   UNL     1       6.673   7.375  16.599  0.00  0.00    +0.000 C 
ATOM      4  N   UNL     1       7.105   6.371  17.553  0.00  0.00    +0.000 N 
ATOM      5  C   UNL     1       7.575   6.580  18.817  0.00  0.00    +0.000 C 
ATOM      6  O   UNL     1       7.199   5.969  19.807  0.00  0.00    +0.000 OA
ENDROOT
BRANCH   1   8
ATOM      7  N   UNL     1       4.030   4.688  18.069  0.00  0.00    +0.000 N 
ATOM      8  C   UNL     1       5.394   4.464  18.093  0.00  0.00    +0.000 C 
ATOM      9  O   UNL     1       5.845   3.638  18.892  0.00  0.00    +0.000 OA
ATOM     10  H   UNL     1       3.641   5.361  17.425  0.00  0.00    +0.000 HD
BRANCH   7  11
ATOM     11  C   UNL     1       3.098   4.002  18.981  0.00  0.00    +0.000 C 
BRANCH  11  13
ATOM     12  N   UNL     1       1.502   2.136  18.640  0.00  0.00    +0.000 N 
ATOM     13  C   UNL     1       1.884   3.390  18.241  0.00  0.00    +0.000 C 
ATOM     14  O   UNL     1       1.197   3.999  17.428  0.00  0.00    +0.000 OA
ATOM     15  H   UNL     1       0.614   1.814  18.278  0.00  0.00    +0.000 HD
ATOM     16  H   UNL     1       1.756   1.828  19.572  0.00  0.00    +0.000 HD
ENDBRANCH  11  13
BRANCH  11  17
ATOM     17  C   UNL     1       2.663   4.900  20.150  0.00  0.00    +0.000 C 
BRANCH  17  18
ATOM     18  C   UNL     1       2.331   6.322  19.748  0.00  0.00    +0.000 A 
ATOM     19  C   UNL     1       1.684   7.181  20.646  0.00  0.00    +0.000 A 
ATOM     20  C   UNL     1       1.325   8.471  20.255  0.00  0.00    +0.000 A 
ATOM     21  C   UNL     1       1.608   8.913  18.965  0.00  0.00    +0.000 A 
ATOM     22  C   UNL     1       2.262   8.071  18.067  0.00  0.00    +0.000 A 
ATOM     23  C   UNL     1       2.630   6.784  18.459  0.00  0.00    +0.000 A 
ENDBRANCH  17  18
ENDBRANCH  11  17
ENDBRANCH   7  11
ENDBRANCH   1   8
BRANCH   1  24
ATOM     24  C   UNL     1       7.175   4.365  16.166  0.00  0.00    +0.000 C 
BRANCH  24  25
ATOM     25  C   UNL     1       6.741   4.217  14.722  0.00  0.00    +0.000 A 
ATOM     26  C   UNL     1       5.551   3.578  14.357  0.00  0.00    +0.000 A 
ATOM     27  C   UNL     1       5.186   3.453  13.014  0.00  0.00    +0.000 A 
ATOM     28  C   UNL     1       5.998   3.991  12.013  0.00  0.00    +0.000 A 
ATOM     29  C   UNL     1       7.168   4.655  12.362  0.00  0.00    +0.000 A 
ATOM     30  C   UNL     1       7.538   4.766  13.704  0.00  0.00    +0.000 A 
ENDBRANCH  24  25
ENDBRANCH   1  24
BRANCH   5  31
ATOM     31  O   UNL     1       8.547   7.532  18.822  0.00  0.00    +0.000 OA
BRANCH  31  32
ATOM     32  C   UNL     1       8.221   8.767  18.169  0.00  0.00    +0.000 C 
BRANCH  32  33
ATOM     33  C   UNL     1       9.029   9.929  18.707  0.00  0.00    +0.000 A 
ATOM     34  C   UNL     1       9.668  10.826  17.837  0.00  0.00    +0.000 A 
ATOM     35  C   UNL     1      10.353  11.939  18.335  0.00  0.00    +0.000 A 
ATOM     36  C   UNL     1      10.424  12.160  19.709  0.00  0.00    +0.000 A 
ATOM     37  C   UNL     1       9.813  11.265  20.585  0.00  0.00    +0.000 A 
ATOM     38  C   UNL     1       9.122  10.155  20.089  0.00  0.00    +0.000 A 
ENDBRANCH  32  33
ENDBRANCH  31  32
ENDBRANCH   5  31
TORSDOF 10
ENDMDL
