MODEL 1
REMARK VINA RESULT:      -6.9      0.000      0.000
REMARK  Name = 
REMARK  4 active torsions:
REMARK  status: ('A' for Active; 'I' for Inactive)
REMARK    1  A    between atoms: C_1  and  O_2
REMARK    2  A    between atoms: O_2  and  C_3
REMARK    3  A    between atoms: C_11  and  C_12
REMARK    4  A    between atoms: N_13  and  C_14
REMARK                            x       y       z     vdW  Elec       q    Type
REMARK                         _______ _______ _______ _____ _____    ______ ____
ROOT
ATOM      1  C   UNL     1       3.939   3.812  18.890  0.00  0.00    +0.000 A 
ATOM      2  C   UNL     1       4.151   4.480  17.685  0.00  0.00    +0.000 A 
ATOM      3  C   UNL     1       3.680   5.775  17.488  0.00  0.00    +0.000 A 
ATOM      4  C   UNL     1       2.973   6.423  18.520  0.00  0.00    +0.000 A 
ATOM      5  C   UNL     1       2.768   5.740  19.712  0.00  0.00    +0.000 A 
ATOM      6  C   UNL     1       3.236   4.442  19.932  0.00  0.00    +0.000 A 
ATOM      7  N   UNL     1       2.053   6.576  20.538  0.00  0.00    +0.000 N 
ATOM      8  C   UNL     1       1.797   7.788  19.923  0.00  0.00    +0.000 A 
ATOM      9  C   UNL     1       1.119   8.925  20.392  0.00  0.00    +0.000 A 
ATOM     10  C   UNL     1       0.515   9.002  21.765  0.00  0.00    +0.000 C 
ATOM     11  N   UNL     1       1.036   9.974  19.523  0.00  0.00    +0.000 N 
ATOM     12  C   UNL     1       0.351  11.239  19.886  0.00  0.00    +0.000 C 
ATOM     13  C   UNL     1       1.570   9.926  18.285  0.00  0.00    +0.000 A 
ATOM     14  C   UNL     1       2.244   8.813  17.806  0.00  0.00    +0.000 A 
ATOM     15  C   UNL     1       2.362   7.709  18.655  0.00  0.00    +0.000 A 
ATOM     16  H   UNL     1       1.767   6.314  21.471  0.00  0.00    +0.000 HD
ENDROOT
BRANCH   1  18
ATOM     17  C   UNL     1       3.557   1.506  18.571  0.00  0.00    +0.000 C 
ATOM     18  O   UNL     1       4.356   2.535  19.151  0.00  0.00    +0.000 OA
ENDBRANCH   1  18
TORSDOF 1
ENDMDL
MODEL 2
REMARK VINA RESULT:      -6.8      4.272      5.928
REMARK  Name = 
REMARK  4 active torsions:
REMARK  status: ('A' for Active; 'I' for Inactive)
REMARK    1  A    between atoms: C_1  and  O_2
REMARK    2  A    between atoms: O_2  and  C_3
REMARK    3  A    between atoms: C_11  and  C_12
REMARK    4  A    between atoms: N_13  and  C_14
REMARK                            x       y       z     vdW  Elec       q    Type
REMARK                         _______ _______ _______ _____ _____    ______ ____
ROOT
ATOM      1  C   UNL     1       7.418   7.264  17.716  0.00  0.00    +0.000 A 
ATOM      2  C   UNL     1       7.910   6.362  18.657  0.00  0.00    +0.000 A 
ATOM      3  C   UNL     1       7.115   5.329  19.147  0.00  0.00    +0.000 A 
ATOM      4  C   UNL     1       5.789   5.194  18.689  0.00  0.00    +0.000 A 
ATOM      5  C   UNL     1       5.316   6.105  17.753  0.00  0.00    +0.000 A 
ATOM      6  C   UNL     1       6.099   7.146  17.246  0.00  0.00    +0.000 A 
ATOM      7  N   UNL     1       4.011   5.765  17.484  0.00  0.00    +0.000 N 
ATOM      8  C   UNL     1       3.624   4.651  18.206  0.00  0.00    +0.000 A 
ATOM      9  C   UNL     1       2.402   3.961  18.235  0.00  0.00    +0.000 A 
ATOM     10  C   UNL     1       1.219   4.366  17.402  0.00  0.00    +0.000 C 
ATOM     11  N   UNL     1       2.342   2.884  19.073  0.00  0.00    +0.000 N 
ATOM     12  C   UNL     1       1.115   2.060  19.201  0.00  0.00    +0.000 C 
ATOM     13  C   UNL     1       3.390   2.504  19.830  0.00  0.00    +0.000 A 
ATOM     14  C   UNL     1       4.605   3.172  19.814  0.00  0.00    +0.000 A 
ATOM     15  C   UNL     1       4.724   4.281  18.972  0.00  0.00    +0.000 A 
ATOM     16  H   UNL     1       3.432   6.279  16.834  0.00  0.00    +0.000 HD
ENDROOT
BRANCH   1  18
ATOM     17  C   UNL     1       8.317   9.413  18.089  0.00  0.00    +0.000 C 
ATOM     18  O   UNL     1       8.133   8.312  17.202  0.00  0.00    +0.000 OA
ENDBRANCH   1  18
TORSDOF 1
ENDMDL
MODEL 3
REMARK VINA RESULT:      -6.8      3.788      5.441
REMARK  Name = 
REMARK  4 active torsions:
REMARK  status: ('A' for Active; 'I' for Inactive)
REMARK    1  A    between atoms: C_1  and  O_2
REMARK    2  A    between atoms: O_2  and  C_3
REMARK    3  A    between atoms: C_11  and  C_12
REMARK    4  A    between atoms: N_13  and  C_14
REMARK                            x       y       z     vdW  Elec       q    Type
REMARK                         _______ _______ _______ _____ _____    ______ ____
ROOT
ATOM      1  C   UNL     1       6.686   5.481  15.703  0.00  0.00    +0.000 A 
ATOM      2  C   UNL     1       5.578   6.324  15.634  0.00  0.00    +0.000 A 
ATOM      3  C   UNL     1       4.504   6.175  16.507  0.00  0.00    +0.000 A 
ATOM      4  C   UNL     1       4.533   5.152  17.476  0.00  0.00    +0.000 A 
ATOM      5  C   UNL     1       5.644   4.320  17.528  0.00  0.00    +0.000 A 
ATOM      6  C   UNL     1       6.734   4.456  16.663  0.00  0.00    +0.000 A 
ATOM      7  N   UNL     1       5.422   3.413  18.537  0.00  0.00    +0.000 N 
ATOM      8  C   UNL     1       4.205   3.638  19.154  0.00  0.00    +0.000 A 
ATOM      9  C   UNL     1       3.586   2.970  20.223  0.00  0.00    +0.000 A 
ATOM     10  C   UNL     1       4.215   1.803  20.926  0.00  0.00    +0.000 C 
ATOM     11  N   UNL     1       2.362   3.446  20.597  0.00  0.00    +0.000 N 
ATOM     12  C   UNL     1       1.595   2.840  21.714  0.00  0.00    +0.000 C 
ATOM     13  C   UNL     1       1.777   4.492  19.979  0.00  0.00    +0.000 A 
ATOM     14  C   UNL     1       2.374   5.163  18.923  0.00  0.00    +0.000 A 
ATOM     15  C   UNL     1       3.630   4.722  18.499  0.00  0.00    +0.000 A 
ATOM     16  H   UNL     1       6.082   2.687  18.779  0.00  0.00    +0.000 HD
ENDROOT
BRANCH   1  18
ATOM     17  C   UNL     1       7.556   5.050  13.553  0.00  0.00    +0.000 C 
ATOM     18  O   UNL     1       7.768   5.557  14.869  0.00  0.00    +0.000 OA
ENDBRANCH   1  18
TORSDOF 1
ENDMDL
MODEL 4
REMARK VINA RESULT:      -6.8      3.799      5.466
REMARK  Name = 
REMARK  4 active torsions:
REMARK  status: ('A' for Active; 'I' for Inactive)
REMARK    1  A    between atoms: C_1  and  O_2
REMARK    2  A    between atoms: O_2  and  C_3
REMARK    3  A    between atoms: C_11  and  C_12
REMARK    4  A    between atoms: N_13  and  C_14
REMARK                            x       y       z     vdW  Elec       q    Type
REMARK                         _______ _______ _______ _____ _____    ______ ____
ROOT
ATOM      1  C   UNL     1       6.916   5.320  15.662  0.00  0.00    +0.000 A 
ATOM      2  C   UNL     1       6.799   6.392  16.545  0.00  0.00    +0.000 A 
ATOM      3  C   UNL     1       5.899   6.355  17.606  0.00  0.00    +0.000 A 
ATOM      4  C   UNL     1       5.088   5.217  17.790  0.00  0.00    +0.000 A 
ATOM      5  C   UNL     1       5.217   4.160  16.898  0.00  0.00    +0.000 A 
ATOM      6  C   UNL     1       6.117   4.177  15.829  0.00  0.00    +0.000 A 
ATOM      7  N   UNL     1       4.319   3.193  17.286  0.00  0.00    +0.000 N 
ATOM      8  C   UNL     1       3.619   3.583  18.413  0.00  0.00    +0.000 A 
ATOM      9  C   UNL     1       2.627   2.914  19.148  0.00  0.00    +0.000 A 
ATOM     10  C   UNL     1       2.133   1.542  18.787  0.00  0.00    +0.000 C 
ATOM     11  N   UNL     1       2.126   3.586  20.226  0.00  0.00    +0.000 N 
ATOM     12  C   UNL     1       1.076   2.998  21.095  0.00  0.00    +0.000 C 
ATOM     13  C   UNL     1       2.553   4.818  20.567  0.00  0.00    +0.000 A 
ATOM     14  C   UNL     1       3.532   5.492  19.854  0.00  0.00    +0.000 A 
ATOM     15  C   UNL     1       4.084   4.851  18.742  0.00  0.00    +0.000 A 
ATOM     16  H   UNL     1       4.208   2.317  16.794  0.00  0.00    +0.000 HD
ENDROOT
BRANCH   1  18
ATOM     17  C   UNL     1       7.203   4.773  13.384  0.00  0.00    +0.000 C 
ATOM     18  O   UNL     1       7.765   5.292  14.588  0.00  0.00    +0.000 OA
ENDBRANCH   1  18
TORSDOF 1
ENDMDL
MODEL 5
REMARK VINA RESULT:      -6.7      2.578      5.861
REMARK  Name = 
REMARK  4 active torsions:
REMARK  status: ('A' for Active; 'I' for Inactive)
REMARK    1  A    between atoms: C_1  and  O_2
REMARK    2  A    between atoms: O_2  and  C_3
REMARK    3  A    between atoms: C_11  and  C_12
REMARK    4  A    between atoms: N_13  and  C_14
REMARK                            x       y       z     vdW  Elec       q    Type
REMARK                         _______ _______ _______ _____ _____    ______ ____
ROOT
ATOM      1  C   UNL     1       1.094  10.001  19.464  0.00  0.00    +0.000 A 
ATOM      2  C   UNL     1       1.655   9.815  18.202  0.00  0.00    +0.000 A 
ATOM      3  C   UNL     1       2.212   8.593  17.835  0.00  0.00    +0.000 A 
ATOM      4  C   UNL     1       2.212   7.525  18.754  0.00  0.00    +0.000 A 
ATOM      5  C   UNL     1       1.650   7.730  20.008  0.00  0.00    +0.000 A 
ATOM      6  C   UNL     1       1.084   8.948  20.394  0.00  0.00    +0.000 A 
ATOM      7  N   UNL     1       1.786   6.554  20.708  0.00  0.00    +0.000 N 
ATOM      8  C   UNL     1       2.407   5.584  19.942  0.00  0.00    +0.000 A 
ATOM      9  C   UNL     1       2.735   4.253  20.246  0.00  0.00    +0.000 A 
ATOM     10  C   UNL     1       2.427   3.622  21.573  0.00  0.00    +0.000 C 
ATOM     11  N   UNL     1       3.358   3.549  19.255  0.00  0.00    +0.000 N 
ATOM     12  C   UNL     1       3.759   2.132  19.436  0.00  0.00    +0.000 C 
ATOM     13  C   UNL     1       3.646   4.096  18.057  0.00  0.00    +0.000 A 
ATOM     14  C   UNL     1       3.329   5.408  17.740  0.00  0.00    +0.000 A 
ATOM     15  C   UNL     1       2.686   6.176  18.715  0.00  0.00    +0.000 A 
ATOM     16  H   UNL     1       1.461   6.440  21.658  0.00  0.00    +0.000 HD
ENDROOT
BRANCH   1  18
ATOM     17  C   UNL     1       0.132  11.182  21.266  0.00  0.00    +0.000 C 
ATOM     18  O   UNL     1       0.545  11.176  19.900  0.00  0.00    +0.000 OA
ENDBRANCH   1  18
TORSDOF 1
ENDMDL
MODEL 6
REMARK VINA RESULT:      -6.6      3.739      5.452
REMARK  Name = 
REMARK  4 active torsions:
REMARK  status: ('A' for Active; 'I' for Inactive)
REMARK    1  A    between atoms: C_1  and  O_2
REMARK    2  A    between atoms: O_2  and  C_3
REMARK    3  A    between atoms: C_11  and  C_12
REMARK    4  A    between atoms: N_13  and  C_14
REMARK                            x       y       z     vdW  Elec       q    Type
REMARK                         _______ _______ _______ _____ _____    ______ ____
ROOT
ATOM      1  C   UNL     1       7.063   6.459  16.822  0.00  0.00    +0.000 A 
ATOM      2  C   UNL     1       7.023   5.283  16.074  0.00  0.00    +0.000 A 
ATOM      3  C   UNL     1       6.030   4.330  16.283  0.00  0.00    +0.000 A 
ATOM      4  C   UNL     1       5.049   4.554  17.269  0.00  0.00    +0.000 A 
ATOM      5  C   UNL     1       5.106   5.730  18.007  0.00  0.00    +0.000 A 
ATOM      6  C   UNL     1       6.093   6.700  17.810  0.00  0.00    +0.000 A 
ATOM      7  N   UNL     1       4.059   5.699  18.897  0.00  0.00    +0.000 N 
ATOM      8  C   UNL     1       3.312   4.544  18.752  0.00  0.00    +0.000 A 
ATOM      9  C   UNL     1       2.165   4.107  19.434  0.00  0.00    +0.000 A 
ATOM     10  C   UNL     1       1.513   4.908  20.525  0.00  0.00    +0.000 C 
ATOM     11  N   UNL     1       1.663   2.898  19.048  0.00  0.00    +0.000 N 
ATOM     12  C   UNL     1       0.454   2.315  19.680  0.00  0.00    +0.000 C 
ATOM     13  C   UNL     1       2.233   2.161  18.073  0.00  0.00    +0.000 A 
ATOM     14  C   UNL     1       3.365   2.578  17.388  0.00  0.00    +0.000 A 
ATOM     15  C   UNL     1       3.920   3.811  17.739  0.00  0.00    +0.000 A 
ATOM     16  H   UNL     1       3.879   6.441  19.559  0.00  0.00    +0.000 HD
ENDROOT
BRANCH   1  18
ATOM     17  C   UNL     1       7.991   8.450  17.682  0.00  0.00    +0.000 C 
ATOM     18  O   UNL     1       8.016   7.431  16.684  0.00  0.00    +0.000 OA
ENDBRANCH   1  18
TORSDOF 1
ENDMDL
MODEL 7
REMARK VINA RESULT:      -6.6      3.280      5.331
REMARK  Name = 
REMARK  4 active torsions:
REMARK  status: ('A' for Active; 'I' for Inactive)
REMARK    1  A    between atoms: C_1  and  O_2
REMARK    2  A    between atoms: O_2  and  C_3
REMARK    3  A    between atoms: C_11  and  C_12
REMARK    4  A    between atoms: N_13  and  C_14
REMARK                            x       y       z     vdW  Elec       q    Type
REMARK                         _______ _______ _______ _____ _____    ______ ____
ROOT
ATOM      1  C   UNL     1       6.894   5.068  14.812  0.00  0.00    +0.000 A 
ATOM      2  C   UNL     1       6.415   3.777  14.596  0.00  0.00    +0.000 A 
ATOM      3  C   UNL     1       5.365   3.263  15.352  0.00  0.00    +0.000 A 
ATOM      4  C   UNL     1       4.778   4.057  16.358  0.00  0.00    +0.000 A 
ATOM      5  C   UNL     1       5.272   5.340  16.561  0.00  0.00    +0.000 A 
ATOM      6  C   UNL     1       6.322   5.876  15.809  0.00  0.00    +0.000 A 
ATOM      7  N   UNL     1       4.547   5.893  17.590  0.00  0.00    +0.000 N 
ATOM      8  C   UNL     1       3.586   5.013  18.055  0.00  0.00    +0.000 A 
ATOM      9  C   UNL     1       2.630   5.160  19.072  0.00  0.00    +0.000 A 
ATOM     10  C   UNL     1       2.491   6.417  19.883  0.00  0.00    +0.000 C 
ATOM     11  N   UNL     1       1.817   4.085  19.290  0.00  0.00    +0.000 N 
ATOM     12  C   UNL     1       0.760   4.101  20.330  0.00  0.00    +0.000 C 
ATOM     13  C   UNL     1       1.925   2.946  18.575  0.00  0.00    +0.000 A 
ATOM     14  C   UNL     1       2.862   2.784  17.567  0.00  0.00    +0.000 A 
ATOM     15  C   UNL     1       3.719   3.855  17.297  0.00  0.00    +0.000 A 
ATOM     16  H   UNL     1       4.713   6.826  17.940  0.00  0.00    +0.000 HD
ENDROOT
BRANCH   1  18
ATOM     17  C   UNL     1       7.980   5.312  12.731  0.00  0.00    +0.000 C 
ATOM     18  O   UNL     1       7.931   5.633  14.121  0.00  0.00    +0.000 OA
ENDBRANCH   1  18
TORSDOF 1
ENDMDL
MODEL 8
REMARK VINA RESULT:      -6.5      1.082      1.161
REMARK  Name = 
REMARK  4 active torsions:
REMARK  status: ('A' for Active; 'I' for Inactive)
REMARK    1  A    between atoms: C_1  and  O_2
REMARK    2  A    between atoms: O_2  and  C_3
REMARK    3  A    between atoms: C_11  and  C_12
REMARK    4  A    between atoms: N_13  and  C_14
REMARK                            x       y       z     vdW  Elec       q    Type
REMARK                         _______ _______ _______ _____ _____    ______ ____
ROOT
ATOM      1  C   UNL     1       3.068   4.121  19.672  0.00  0.00    +0.000 A 
ATOM      2  C   UNL     1       3.377   4.574  18.391  0.00  0.00    +0.000 A 
ATOM      3  C   UNL     1       3.091   5.880  18.002  0.00  0.00    +0.000 A 
ATOM      4  C   UNL     1       2.477   6.759  18.916  0.00  0.00    +0.000 A 
ATOM      5  C   UNL     1       2.174   6.288  20.187  0.00  0.00    +0.000 A 
ATOM      6  C   UNL     1       2.456   4.982  20.598  0.00  0.00    +0.000 A 
ATOM      7  N   UNL     1       1.579   7.323  20.869  0.00  0.00    +0.000 N 
ATOM      8  C   UNL     1       1.497   8.459  20.085  0.00  0.00    +0.000 A 
ATOM      9  C   UNL     1       0.981   9.733  20.373  0.00  0.00    +0.000 A 
ATOM     10  C   UNL     1       0.388  10.086  21.707  0.00  0.00    +0.000 C 
ATOM     11  N   UNL     1       1.048  10.649  19.363  0.00  0.00    +0.000 N 
ATOM     12  C   UNL     1       0.545  12.034  19.529  0.00  0.00    +0.000 C 
ATOM     13  C   UNL     1       1.575  10.352  18.158  0.00  0.00    +0.000 A 
ATOM     14  C   UNL     1       2.090   9.101  17.856  0.00  0.00    +0.000 A 
ATOM     15  C   UNL     1       2.051   8.123  18.854  0.00  0.00    +0.000 A 
ATOM     16  H   UNL     1       1.255   7.238  21.823  0.00  0.00    +0.000 HD
ENDROOT
BRANCH   1  18
ATOM     17  C   UNL     1       2.694   2.523  21.368  0.00  0.00    +0.000 C 
ATOM     18  O   UNL     1       3.303   2.849  20.120  0.00  0.00    +0.000 OA
ENDBRANCH   1  18
TORSDOF 1
ENDMDL
MODEL 9
REMARK VINA RESULT:      -6.3      2.993      6.183
REMARK  Name = 
REMARK  4 active torsions:
REMARK  status: ('A' for Active; 'I' for Inactive)
REMARK    1  A    between atoms: C_1  and  O_2
REMARK    2  A    between atoms: O_2  and  C_3
REMARK    3  A    between atoms: C_11  and  C_12
REMARK    4  A    between atoms: N_13  and  C_14
REMARK                            x       y       z     vdW  Elec       q    Type
REMARK                         _______ _______ _______ _____ _____    ______ ____
ROOT
ATOM      1  C   UNL     1      -0.369  10.383  22.273  0.00  0.00    +0.000 A 
ATOM      2  C   UNL     1      -0.219  11.107  21.092  0.00  0.00    +0.000 A 
ATOM      3  C   UNL     1       0.489  10.584  20.013  0.00  0.00    +0.000 A 
ATOM      4  C   UNL     1       1.068   9.304  20.116  0.00  0.00    +0.000 A 
ATOM      5  C   UNL     1       0.911   8.599  21.302  0.00  0.00    +0.000 A 
ATOM      6  C   UNL     1       0.201   9.104  22.395  0.00  0.00    +0.000 A 
ATOM      7  N   UNL     1       1.571   7.402  21.152  0.00  0.00    +0.000 N 
ATOM      8  C   UNL     1       2.141   7.300  19.896  0.00  0.00    +0.000 A 
ATOM      9  C   UNL     1       2.888   6.262  19.314  0.00  0.00    +0.000 A 
ATOM     10  C   UNL     1       3.204   4.984  20.036  0.00  0.00    +0.000 C 
ATOM     11  N   UNL     1       3.318   6.478  18.036  0.00  0.00    +0.000 N 
ATOM     12  C   UNL     1       4.112   5.467  17.297  0.00  0.00    +0.000 C 
ATOM     13  C   UNL     1       3.046   7.618  17.369  0.00  0.00    +0.000 A 
ATOM     14  C   UNL     1       2.310   8.652  17.927  0.00  0.00    +0.000 A 
ATOM     15  C   UNL     1       1.841   8.485  19.233  0.00  0.00    +0.000 A 
ATOM     16  H   UNL     1       1.614   6.702  21.879  0.00  0.00    +0.000 HD
ENDROOT
BRANCH   1  18
ATOM     17  C   UNL     1      -2.055  11.801  23.119  0.00  0.00    +0.000 C 
ATOM     18  O   UNL     1      -1.035  10.838  23.379  0.00  0.00    +0.000 OA
ENDBRANCH   1  18
TORSDOF 1
ENDMDL
