MODEL 1
REMARK VINA RESULT:      -7.0      0.000      0.000
REMARK  Name = 
REMARK  6 active torsions:
REMARK  status: ('A' for Active; 'I' for Inactive)
REMARK    1  A    between atoms: N_1  and  C_2
REMARK    2  A    between atoms: C_2  and  C_3
REMARK    3  A    between atoms: C_3  and  C_4
REMARK    4  A    between atoms: C_7  and  O_8
REMARK    5  A    between atoms: O_8  and  C_9
REMARK    6  A    between atoms: C_9  and  C_10
REMARK                            x       y       z     vdW  Elec       q    Type
REMARK                         _______ _______ _______ _____ _____    ______ ____
ROOT
ATOM      1  C   UNL     1       1.994   4.216  19.183  0.00  0.00    +0.000 A 
ATOM      2  C   UNL     1       2.452   5.446  18.676  0.00  0.00    +0.000 A 
ATOM      3  C   UNL     1       3.359   5.486  17.625  0.00  0.00    +0.000 A 
ATOM      4  C   UNL     1       3.825   4.298  17.033  0.00  0.00    +0.000 A 
ATOM      5  C   UNL     1       3.337   3.071  17.500  0.00  0.00    +0.000 A 
ATOM      6  C   UNL     1       2.435   3.030  18.570  0.00  0.00    +0.000 A 
ENDROOT
BRANCH   1   7
ATOM      7  C   UNL     1       1.062   4.117  20.376  0.00  0.00    +0.000 C 
BRANCH   7   8
ATOM      8  C   UNL     1       1.211   2.848  21.235  0.00  0.00    +0.000 C 
BRANCH   8   9
ATOM      9  N   UNL     1       2.329   2.969  22.170  0.00  0.00    +0.000 NA
ATOM     10  H   UNL     1       2.236   3.868  22.695  0.00  0.00    +0.000 HD
ATOM     11  H   UNL     1       2.314   2.178  22.853  0.00  0.00    +0.000 HD
ENDBRANCH   8   9
ENDBRANCH   7   8
ENDBRANCH   1   7
BRANCH   4  12
ATOM     12  O   UNL     1       4.748   4.309  16.037  0.00  0.00    +0.000 OA
BRANCH  12  13
ATOM     13  C   UNL     1       6.088   4.020  16.233  0.00  0.00    +0.000 C 
BRANCH  13  14
ATOM     14  C   UNL     1       6.763   5.114  16.999  0.00  0.00    +0.000 A 
ATOM     15  C   UNL     1       7.356   4.839  18.242  0.00  0.00    +0.000 A 
ATOM     16  C   UNL     1       8.007   5.849  18.952  0.00  0.00    +0.000 A 
ATOM     17  C   UNL     1       8.067   7.144  18.429  0.00  0.00    +0.000 A 
ATOM     18  F   UNL     1       8.700   8.121  19.120  0.00  0.00    +0.000 F 
ATOM     19  C   UNL     1       7.477   7.426  17.193  0.00  0.00    +0.000 A 
ATOM     20  C   UNL     1       6.830   6.414  16.474  0.00  0.00    +0.000 A 
ENDBRANCH  13  14
ENDBRANCH  12  13
ENDBRANCH   4  12
TORSDOF 6
ENDMDL
MODEL 2
REMARK VINA RESULT:      -6.9      0.397      1.208
REMARK  Name = 
REMARK  6 active torsions:
REMARK  status: ('A' for Active; 'I' for Inactive)
REMARK    1  A    between atoms: N_1  and  C_2
REMARK    2  A    between atoms: C_2  and  C_3
REMARK    3  A    between atoms: C_3  and  C_4
REMARK    4  A    between atoms: C_7  and  O_8
REMARK    5  A    between atoms: O_8  and  C_9
REMARK    6  A    between atoms: C_9  and  C_10
REMARK                            x       y       z     vdW  Elec       q    Type
REMARK                         _______ _______ _______ _____ _____    ______ ____
ROOT
ATOM      1  C   UNL     1       1.745   3.622  19.196  0.00  0.00    +0.000 A 
ATOM      2  C   UNL     1       2.077   4.923  18.775  0.00  0.00    +0.000 A 
ATOM      3  C   UNL     1       3.018   5.126  17.776  0.00  0.00    +0.000 A 
ATOM      4  C   UNL     1       3.649   4.036  17.150  0.00  0.00    +0.000 A 
ATOM      5  C   UNL     1       3.289   2.737  17.528  0.00  0.00    +0.000 A 
ATOM      6  C   UNL     1       2.351   2.531  18.548  0.00  0.00    +0.000 A 
ENDROOT
BRANCH   1   7
ATOM      7  C   UNL     1       0.778   3.349  20.332  0.00  0.00    +0.000 C 
BRANCH   7   8
ATOM      8  C   UNL     1       1.346   2.536  21.510  0.00  0.00    +0.000 C 
BRANCH   8   9
ATOM      9  N   UNL     1       2.420   3.261  22.187  0.00  0.00    +0.000 NA
ATOM     10  H   UNL     1       3.210   2.602  22.373  0.00  0.00    +0.000 HD
ATOM     11  H   UNL     1       2.767   4.039  21.582  0.00  0.00    +0.000 HD
ENDBRANCH   8   9
ENDBRANCH   7   8
ENDBRANCH   1   7
BRANCH   4  12
ATOM     12  O   UNL     1       4.608   4.210  16.204  0.00  0.00    +0.000 OA
BRANCH  12  13
ATOM     13  C   UNL     1       5.940   3.884  16.397  0.00  0.00    +0.000 C 
BRANCH  13  14
ATOM     14  C   UNL     1       6.670   5.003  17.071  0.00  0.00    +0.000 A 
ATOM     15  C   UNL     1       6.761   6.259  16.448  0.00  0.00    +0.000 A 
ATOM     16  C   UNL     1       7.422   7.314  17.079  0.00  0.00    +0.000 A 
ATOM     17  C   UNL     1       8.001   7.122  18.337  0.00  0.00    +0.000 A 
ATOM     18  F   UNL     1       8.640   8.148  18.947  0.00  0.00    +0.000 F 
ATOM     19  C   UNL     1       7.918   5.874  18.962  0.00  0.00    +0.000 A 
ATOM     20  C   UNL     1       7.249   4.816  18.335  0.00  0.00    +0.000 A 
ENDBRANCH  13  14
ENDBRANCH  12  13
ENDBRANCH   4  12
TORSDOF 6
ENDMDL
MODEL 3
REMARK VINA RESULT:      -6.8      0.250      1.152
REMARK  Name = 
REMARK  6 active torsions:
REMARK  status: ('A' for Active; 'I' for Inactive)
REMARK    1  A    between atoms: N_1  and  C_2
REMARK    2  A    between atoms: C_2  and  C_3
REMARK    3  A    between atoms: C_3  and  C_4
REMARK    4  A    between atoms: C_7  and  O_8
REMARK    5  A    between atoms: O_8  and  C_9
REMARK    6  A    between atoms: C_9  and  C_10
REMARK                            x       y       z     vdW  Elec       q    Type
REMARK                         _______ _______ _______ _____ _____    ______ ____
ROOT
ATOM      1  C   UNL     1       2.233   4.063  19.210  0.00  0.00    +0.000 A 
ATOM      2  C   UNL     1       2.907   2.902  18.788  0.00  0.00    +0.000 A 
ATOM      3  C   UNL     1       3.776   2.941  17.707  0.00  0.00    +0.000 A 
ATOM      4  C   UNL     1       4.016   4.145  17.020  0.00  0.00    +0.000 A 
ATOM      5  C   UNL     1       3.387   5.315  17.463  0.00  0.00    +0.000 A 
ATOM      6  C   UNL     1       2.498   5.273  18.545  0.00  0.00    +0.000 A 
ENDROOT
BRANCH   1   7
ATOM      7  C   UNL     1       1.220   4.059  20.338  0.00  0.00    +0.000 C 
BRANCH   7   8
ATOM      8  C   UNL     1       1.260   2.830  21.266  0.00  0.00    +0.000 C 
BRANCH   8   9
ATOM      9  N   UNL     1       2.291   2.974  22.293  0.00  0.00    +0.000 NA
ATOM     10  H   UNL     1       2.812   3.865  22.127  0.00  0.00    +0.000 HD
ATOM     11  H   UNL     1       1.852   3.013  23.241  0.00  0.00    +0.000 HD
ENDBRANCH   8   9
ENDBRANCH   7   8
ENDBRANCH   1   7
BRANCH   4  12
ATOM     12  O   UNL     1       4.824   4.199  15.929  0.00  0.00    +0.000 OA
BRANCH  12  13
ATOM     13  C   UNL     1       6.195   4.023  15.984  0.00  0.00    +0.000 C 
BRANCH  13  14
ATOM     14  C   UNL     1       6.833   5.070  16.842  0.00  0.00    +0.000 A 
ATOM     15  C   UNL     1       7.423   4.713  18.066  0.00  0.00    +0.000 A 
ATOM     16  C   UNL     1       8.039   5.681  18.861  0.00  0.00    +0.000 A 
ATOM     17  C   UNL     1       8.067   7.014  18.443  0.00  0.00    +0.000 A 
ATOM     18  F   UNL     1       8.667   7.950  19.216  0.00  0.00    +0.000 F 
ATOM     19  C   UNL     1       7.480   7.378  17.227  0.00  0.00    +0.000 A 
ATOM     20  C   UNL     1       6.868   6.409  16.423  0.00  0.00    +0.000 A 
ENDBRANCH  13  14
ENDBRANCH  12  13
ENDBRANCH   4  12
TORSDOF 6
ENDMDL
MODEL 4
REMARK VINA RESULT:      -6.7      0.507      1.687
REMARK  Name = 
REMARK  6 active torsions:
REMARK  status: ('A' for Active; 'I' for Inactive)
REMARK    1  A    between atoms: N_1  and  C_2
REMARK    2  A    between atoms: C_2  and  C_3
REMARK    3  A    between atoms: C_3  and  C_4
REMARK    4  A    between atoms: C_7  and  O_8
REMARK    5  A    between atoms: O_8  and  C_9
REMARK    6  A    between atoms: C_9  and  C_10
REMARK                            x       y       z     vdW  Elec       q    Type
REMARK                         _______ _______ _______ _____ _____    ______ ____
ROOT
ATOM      1  C   UNL     1       1.885   3.359  19.218  0.00  0.00    +0.000 A 
ATOM      2  C   UNL     1       2.395   2.343  18.390  0.00  0.00    +0.000 A 
ATOM      3  C   UNL     1       3.284   2.641  17.367  0.00  0.00    +0.000 A 
ATOM      4  C   UNL     1       3.708   3.965  17.146  0.00  0.00    +0.000 A 
ATOM      5  C   UNL     1       3.243   4.975  17.997  0.00  0.00    +0.000 A 
ATOM      6  C   UNL     1       2.334   4.676  19.019  0.00  0.00    +0.000 A 
ENDROOT
BRANCH   1   7
ATOM      7  C   UNL     1       0.857   3.095  20.302  0.00  0.00    +0.000 C 
BRANCH   7   8
ATOM      8  C   UNL     1       1.403   3.048  21.741  0.00  0.00    +0.000 C 
BRANCH   8   9
ATOM      9  N   UNL     1       2.784   2.569  21.769  0.00  0.00    +0.000 NA
ATOM     10  H   UNL     1       3.189   2.759  22.714  0.00  0.00    +0.000 HD
ATOM     11  H   UNL     1       2.813   1.539  21.592  0.00  0.00    +0.000 HD
ENDBRANCH   8   9
ENDBRANCH   7   8
ENDBRANCH   1   7
BRANCH   4  12
ATOM     12  O   UNL     1       4.538   4.289  16.122  0.00  0.00    +0.000 OA
BRANCH  12  13
ATOM     13  C   UNL     1       5.895   4.015  16.121  0.00  0.00    +0.000 C 
BRANCH  13  14
ATOM     14  C   UNL     1       6.647   5.044  16.906  0.00  0.00    +0.000 A 
ATOM     15  C   UNL     1       6.680   6.378  16.466  0.00  0.00    +0.000 A 
ATOM     16  C   UNL     1       7.361   7.347  17.204  0.00  0.00    +0.000 A 
ATOM     17  C   UNL     1       8.018   6.992  18.386  0.00  0.00    +0.000 A 
ATOM     18  F   UNL     1       8.676   7.936  19.100  0.00  0.00    +0.000 F 
ATOM     19  C   UNL     1       7.991   5.666  18.829  0.00  0.00    +0.000 A 
ATOM     20  C   UNL     1       7.303   4.693  18.096  0.00  0.00    +0.000 A 
ENDBRANCH  13  14
ENDBRANCH  12  13
ENDBRANCH   4  12
TORSDOF 6
ENDMDL
MODEL 5
REMARK VINA RESULT:      -6.5      4.025      6.542
REMARK  Name = 
REMARK  6 active torsions:
REMARK  status: ('A' for Active; 'I' for Inactive)
REMARK    1  A    between atoms: N_1  and  C_2
REMARK    2  A    between atoms: C_2  and  C_3
REMARK    3  A    between atoms: C_3  and  C_4
REMARK    4  A    between atoms: C_7  and  O_8
REMARK    5  A    between atoms: O_8  and  C_9
REMARK    6  A    between atoms: C_9  and  C_10
REMARK                            x       y       z     vdW  Elec       q    Type
REMARK                         _______ _______ _______ _____ _____    ______ ____
ROOT
ATOM      1  C   UNL     1       6.460   4.640  14.724  0.00  0.00    +0.000 A 
ATOM      2  C   UNL     1       5.313   5.426  14.941  0.00  0.00    +0.000 A 
ATOM      3  C   UNL     1       4.946   5.805  16.225  0.00  0.00    +0.000 A 
ATOM      4  C   UNL     1       5.723   5.427  17.336  0.00  0.00    +0.000 A 
ATOM      5  C   UNL     1       6.892   4.687  17.125  0.00  0.00    +0.000 A 
ATOM      6  C   UNL     1       7.254   4.290  15.831  0.00  0.00    +0.000 A 
ENDROOT
BRANCH   1   7
ATOM      7  C   UNL     1       6.863   4.138  13.351  0.00  0.00    +0.000 C 
BRANCH   7   8
ATOM      8  C   UNL     1       5.747   3.460  12.535  0.00  0.00    +0.000 C 
BRANCH   8   9
ATOM      9  N   UNL     1       6.223   2.228  11.907  0.00  0.00    +0.000 NA
ATOM     10  H   UNL     1       6.417   2.415  10.897  0.00  0.00    +0.000 HD
ATOM     11  H   UNL     1       7.105   1.907  12.366  0.00  0.00    +0.000 HD
ENDBRANCH   8   9
ENDBRANCH   7   8
ENDBRANCH   1   7
BRANCH   4  12
ATOM     12  O   UNL     1       5.359   5.745  18.605  0.00  0.00    +0.000 OA
BRANCH  12  13
ATOM     13  C   UNL     1       5.095   4.801  19.583  0.00  0.00    +0.000 C 
BRANCH  13  14
ATOM     14  C   UNL     1       3.818   4.075  19.293  0.00  0.00    +0.000 A 
ATOM     15  C   UNL     1       3.835   2.690  19.064  0.00  0.00    +0.000 A 
ATOM     16  C   UNL     1       2.646   2.002  18.814  0.00  0.00    +0.000 A 
ATOM     17  C   UNL     1       1.431   2.693  18.787  0.00  0.00    +0.000 A 
ATOM     18  F   UNL     1       0.280   2.022  18.546  0.00  0.00    +0.000 F 
ATOM     19  C   UNL     1       1.407   4.073  19.011  0.00  0.00    +0.000 A 
ATOM     20  C   UNL     1       2.596   4.765  19.270  0.00  0.00    +0.000 A 
ENDBRANCH  13  14
ENDBRANCH  12  13
ENDBRANCH   4  12
TORSDOF 6
ENDMDL
MODEL 6
REMARK VINA RESULT:      -6.5      3.617      6.588
REMARK  Name = 
REMARK  6 active torsions:
REMARK  status: ('A' for Active; 'I' for Inactive)
REMARK    1  A    between atoms: N_1  and  C_2
REMARK    2  A    between atoms: C_2  and  C_3
REMARK    3  A    between atoms: C_3  and  C_4
REMARK    4  A    between atoms: C_7  and  O_8
REMARK    5  A    between atoms: O_8  and  C_9
REMARK    6  A    between atoms: C_9  and  C_10
REMARK                            x       y       z     vdW  Elec       q    Type
REMARK                         _______ _______ _______ _____ _____    ______ ____
ROOT
ATOM      1  C   UNL     1       7.215   6.736  17.899  0.00  0.00    +0.000 A 
ATOM      2  C   UNL     1       7.317   5.347  18.093  0.00  0.00    +0.000 A 
ATOM      3  C   UNL     1       6.260   4.506  17.771  0.00  0.00    +0.000 A 
ATOM      4  C   UNL     1       5.071   5.024  17.225  0.00  0.00    +0.000 A 
ATOM      5  C   UNL     1       4.980   6.400  16.983  0.00  0.00    +0.000 A 
ATOM      6  C   UNL     1       6.040   7.250  17.323  0.00  0.00    +0.000 A 
ENDROOT
BRANCH   1   7
ATOM      7  C   UNL     1       8.311   7.704  18.302  0.00  0.00    +0.000 C 
BRANCH   7   8
ATOM      8  C   UNL     1       8.097   9.168  17.879  0.00  0.00    +0.000 C 
BRANCH   8   9
ATOM      9  N   UNL     1       9.013  10.065  18.583  0.00  0.00    +0.000 NA
ATOM     10  H   UNL     1       9.065   9.775  19.587  0.00  0.00    +0.000 HD
ATOM     11  H   UNL     1       9.969  10.003  18.166  0.00  0.00    +0.000 HD
ENDBRANCH   8   9
ENDBRANCH   7   8
ENDBRANCH   1   7
BRANCH   4  12
ATOM     12  O   UNL     1       4.006   4.229  16.947  0.00  0.00    +0.000 OA
BRANCH  12  13
ATOM     13  C   UNL     1       3.885   2.927  17.400  0.00  0.00    +0.000 C 
BRANCH  13  14
ATOM     14  C   UNL     1       3.088   2.875  18.666  0.00  0.00    +0.000 A 
ATOM     15  C   UNL     1       1.690   2.999  18.622  0.00  0.00    +0.000 A 
ATOM     16  C   UNL     1       0.938   2.929  19.796  0.00  0.00    +0.000 A 
ATOM     17  C   UNL     1       1.576   2.740  21.024  0.00  0.00    +0.000 A 
ATOM     18  F   UNL     1       0.844   2.671  22.161  0.00  0.00    +0.000 F 
ATOM     19  C   UNL     1       2.969   2.618  21.077  0.00  0.00    +0.000 A 
ATOM     20  C   UNL     1       3.725   2.679  19.900  0.00  0.00    +0.000 A 
ENDBRANCH  13  14
ENDBRANCH  12  13
ENDBRANCH   4  12
TORSDOF 6
ENDMDL
MODEL 7
REMARK VINA RESULT:      -6.5      4.041      6.574
REMARK  Name = 
REMARK  6 active torsions:
REMARK  status: ('A' for Active; 'I' for Inactive)
REMARK    1  A    between atoms: N_1  and  C_2
REMARK    2  A    between atoms: C_2  and  C_3
REMARK    3  A    between atoms: C_3  and  C_4
REMARK    4  A    between atoms: C_7  and  O_8
REMARK    5  A    between atoms: O_8  and  C_9
REMARK    6  A    between atoms: C_9  and  C_10
REMARK                            x       y       z     vdW  Elec       q    Type
REMARK                         _______ _______ _______ _____ _____    ______ ____
ROOT
ATOM      1  C   UNL     1       6.420   4.628  14.574  0.00  0.00    +0.000 A 
ATOM      2  C   UNL     1       7.069   4.104  15.707  0.00  0.00    +0.000 A 
ATOM      3  C   UNL     1       6.716   4.523  16.982  0.00  0.00    +0.000 A 
ATOM      4  C   UNL     1       5.690   5.466  17.171  0.00  0.00    +0.000 A 
ATOM      5  C   UNL     1       5.005   5.956  16.052  0.00  0.00    +0.000 A 
ATOM      6  C   UNL     1       5.371   5.545  14.764  0.00  0.00    +0.000 A 
ENDROOT
BRANCH   1   7
ATOM      7  C   UNL     1       6.816   4.258  13.157  0.00  0.00    +0.000 C 
BRANCH   7   8
ATOM      8  C   UNL     1       5.802   3.394  12.385  0.00  0.00    +0.000 C 
BRANCH   8   9
ATOM      9  N   UNL     1       6.427   2.176  11.870  0.00  0.00    +0.000 NA
ATOM     10  H   UNL     1       6.278   2.130  10.836  0.00  0.00    +0.000 HD
ATOM     11  H   UNL     1       7.454   2.188  12.062  0.00  0.00    +0.000 HD
ENDBRANCH   8   9
ENDBRANCH   7   8
ENDBRANCH   1   7
BRANCH   4  12
ATOM     12  O   UNL     1       5.360   5.928  18.405  0.00  0.00    +0.000 OA
BRANCH  12  13
ATOM     13  C   UNL     1       5.070   5.102  19.478  0.00  0.00    +0.000 C 
BRANCH  13  14
ATOM     14  C   UNL     1       3.851   4.279  19.203  0.00  0.00    +0.000 A 
ATOM     15  C   UNL     1       3.927   2.877  19.240  0.00  0.00    +0.000 A 
ATOM     16  C   UNL     1       2.789   2.102  19.006  0.00  0.00    +0.000 A 
ATOM     17  C   UNL     1       1.567   2.721  18.728  0.00  0.00    +0.000 A 
ATOM     18  F   UNL     1       0.466   1.967  18.503  0.00  0.00    +0.000 F 
ATOM     19  C   UNL     1       1.485   4.117  18.686  0.00  0.00    +0.000 A 
ATOM     20  C   UNL     1       2.621   4.897  18.929  0.00  0.00    +0.000 A 
ENDBRANCH  13  14
ENDBRANCH  12  13
ENDBRANCH   4  12
TORSDOF 6
ENDMDL
MODEL 8
REMARK VINA RESULT:      -6.4      4.008      6.616
REMARK  Name = 
REMARK  6 active torsions:
REMARK  status: ('A' for Active; 'I' for Inactive)
REMARK    1  A    between atoms: N_1  and  C_2
REMARK    2  A    between atoms: C_2  and  C_3
REMARK    3  A    between atoms: C_3  and  C_4
REMARK    4  A    between atoms: C_7  and  O_8
REMARK    5  A    between atoms: O_8  and  C_9
REMARK    6  A    between atoms: C_9  and  C_10
REMARK                            x       y       z     vdW  Elec       q    Type
REMARK                         _______ _______ _______ _____ _____    ______ ____
ROOT
ATOM      1  C   UNL     1       6.322   4.158  14.385  0.00  0.00    +0.000 A 
ATOM      2  C   UNL     1       5.191   3.633  15.036  0.00  0.00    +0.000 A 
ATOM      3  C   UNL     1       4.970   3.882  16.383  0.00  0.00    +0.000 A 
ATOM      4  C   UNL     1       5.862   4.679  17.123  0.00  0.00    +0.000 A 
ATOM      5  C   UNL     1       6.964   5.246  16.471  0.00  0.00    +0.000 A 
ATOM      6  C   UNL     1       7.197   4.981  15.115  0.00  0.00    +0.000 A 
ENDROOT
BRANCH   1   7
ATOM      7  C   UNL     1       6.648   3.855  12.934  0.00  0.00    +0.000 C 
BRANCH   7   8
ATOM      8  C   UNL     1       5.507   3.228  12.112  0.00  0.00    +0.000 C 
BRANCH   8   9
ATOM      9  N   UNL     1       5.863   1.888  11.647  0.00  0.00    +0.000 NA
ATOM     10  H   UNL     1       4.997   1.404  11.315  0.00  0.00    +0.000 HD
ATOM     11  H   UNL     1       6.539   1.950  10.853  0.00  0.00    +0.000 HD
ENDBRANCH   8   9
ENDBRANCH   7   8
ENDBRANCH   1   7
BRANCH   4  12
ATOM     12  O   UNL     1       5.694   4.897  18.453  0.00  0.00    +0.000 OA
BRANCH  12  13
ATOM     13  C   UNL     1       4.696   5.701  18.976  0.00  0.00    +0.000 C 
BRANCH  13  14
ATOM     14  C   UNL     1       3.652   4.876  19.662  0.00  0.00    +0.000 A 
ATOM     15  C   UNL     1       3.883   3.512  19.905  0.00  0.00    +0.000 A 
ATOM     16  C   UNL     1       2.923   2.741  20.564  0.00  0.00    +0.000 A 
ATOM     17  C   UNL     1       1.724   3.324  20.981  0.00  0.00    +0.000 A 
ATOM     18  F   UNL     1       0.796   2.574  21.621  0.00  0.00    +0.000 F 
ATOM     19  C   UNL     1       1.486   4.681  20.740  0.00  0.00    +0.000 A 
ATOM     20  C   UNL     1       2.449   5.460  20.087  0.00  0.00    +0.000 A 
ENDBRANCH  13  14
ENDBRANCH  12  13
ENDBRANCH   4  12
TORSDOF 6
ENDMDL
MODEL 9
REMARK VINA RESULT:      -6.4      3.643      6.557
REMARK  Name = 
REMARK  6 active torsions:
REMARK  status: ('A' for Active; 'I' for Inactive)
REMARK    1  A    between atoms: N_1  and  C_2
REMARK    2  A    between atoms: C_2  and  C_3
REMARK    3  A    between atoms: C_3  and  C_4
REMARK    4  A    between atoms: C_7  and  O_8
REMARK    5  A    between atoms: O_8  and  C_9
REMARK    6  A    between atoms: C_9  and  C_10
REMARK                            x       y       z     vdW  Elec       q    Type
REMARK                         _______ _______ _______ _____ _____    ______ ____
ROOT
ATOM      1  C   UNL     1       7.190   6.739  17.939  0.00  0.00    +0.000 A 
ATOM      2  C   UNL     1       7.097   5.462  18.521  0.00  0.00    +0.000 A 
ATOM      3  C   UNL     1       6.019   4.633  18.243  0.00  0.00    +0.000 A 
ATOM      4  C   UNL     1       5.004   5.046  17.360  0.00  0.00    +0.000 A 
ATOM      5  C   UNL     1       5.113   6.296  16.739  0.00  0.00    +0.000 A 
ATOM      6  C   UNL     1       6.193   7.138  17.031  0.00  0.00    +0.000 A 
ENDROOT
BRANCH   1   7
ATOM      7  C   UNL     1       8.309   7.710  18.266  0.00  0.00    +0.000 C 
BRANCH   7   8
ATOM      8  C   UNL     1       8.021   9.189  17.949  0.00  0.00    +0.000 C 
BRANCH   8   9
ATOM      9  N   UNL     1       8.993  10.070  18.598  0.00  0.00    +0.000 NA
ATOM     10  H   UNL     1       8.960  11.007  18.137  0.00  0.00    +0.000 HD
ATOM     11  H   UNL     1       8.757  10.184  19.609  0.00  0.00    +0.000 HD
ENDBRANCH   8   9
ENDBRANCH   7   8
ENDBRANCH   1   7
BRANCH   4  12
ATOM     12  O   UNL     1       3.915   4.274  17.110  0.00  0.00    +0.000 OA
BRANCH  12  13
ATOM     13  C   UNL     1       3.799   2.958  17.524  0.00  0.00    +0.000 C 
BRANCH  13  14
ATOM     14  C   UNL     1       2.993   2.864  18.781  0.00  0.00    +0.000 A 
ATOM     15  C   UNL     1       3.637   2.716  20.020  0.00  0.00    +0.000 A 
ATOM     16  C   UNL     1       2.893   2.650  21.199  0.00  0.00    +0.000 A 
ATOM     17  C   UNL     1       1.498   2.725  21.150  0.00  0.00    +0.000 A 
ATOM     18  F   UNL     1       0.779   2.661  22.296  0.00  0.00    +0.000 F 
ATOM     19  C   UNL     1       0.849   2.868  19.920  0.00  0.00    +0.000 A 
ATOM     20  C   UNL     1       1.592   2.944  18.736  0.00  0.00    +0.000 A 
ENDBRANCH  13  14
ENDBRANCH  12  13
ENDBRANCH   4  12
TORSDOF 6
ENDMDL
