MODEL 1
REMARK VINA RESULT:      -7.8      0.000      0.000
REMARK  Name = 
REMARK  11 active torsions:
REMARK  status: ('A' for Active; 'I' for Inactive)
REMARK    1  A    between atoms: C_1  and  C_2
REMARK    2  A    between atoms: C_2  and  N_3
REMARK    3  A    between atoms: N_3  and  C_4
REMARK    4  A    between atoms: N_3  and  S_10
REMARK    5  A    between atoms: S_10  and  C_13
REMARK    6  A    between atoms: C_17  and  C_18
REMARK    7  A    between atoms: N_20  and  C_21
REMARK    8  A    between atoms: C_21  and  C_22
REMARK    9  A    between atoms: C_22  and  N_23
REMARK   10  A    between atoms: N_23  and  C_24
REMARK   11  A    between atoms: N_23  and  C_25
REMARK                            x       y       z     vdW  Elec       q    Type
REMARK                         _______ _______ _______ _____ _____    ______ ____
ROOT
ATOM      1  C   UNL     1       0.739  10.560  20.195  0.00  0.00    +0.000 A 
ATOM      2  C   UNL     1       0.537   9.937  21.434  0.00  0.00    +0.000 A 
ATOM      3  C   UNL     1       0.982   8.631  21.628  0.00  0.00    +0.000 A 
ATOM      4  C   UNL     1       1.616   7.951  20.587  0.00  0.00    +0.000 A 
ATOM      5  C   UNL     1       1.814   8.571  19.340  0.00  0.00    +0.000 A 
ATOM      6  C   UNL     1       1.368   9.879  19.144  0.00  0.00    +0.000 A 
ENDROOT
BRANCH   5   7
ATOM      7  C   UNL     1       2.538   7.802  18.296  0.00  0.00    +0.000 C 
ATOM      8  O   UNL     1       2.722   8.320  17.198  0.00  0.00    +0.000 OA
ATOM      9  N   UNL     1       2.987   6.531  18.605  0.00  0.00    +0.000 N 
ATOM     10  H   UNL     1       2.871   6.103  19.514  0.00  0.00    +0.000 HD
BRANCH   9  11
ATOM     11  C   UNL     1       3.671   5.776  17.574  0.00  0.00    +0.000 C 
BRANCH  11  12
ATOM     12  C   UNL     1       4.281   4.387  17.996  0.00  0.00    +0.000 C 
ATOM     13  C   UNL     1       4.936   3.782  16.714  0.00  0.00    +0.000 C 
ATOM     14  C   UNL     1       6.107   4.622  16.177  0.00  0.00    +0.000 C 
ATOM     15  C   UNL     1       7.167   4.894  17.241  0.00  0.00    +0.000 C 
ATOM     16  C   UNL     1       6.584   5.458  18.533  0.00  0.00    +0.000 C 
ATOM     17  C   UNL     1       5.419   4.612  19.041  0.00  0.00    +0.000 C 
BRANCH  12  18
ATOM     18  N   UNL     1       3.218   3.514  18.611  0.00  0.00    +0.000 NA
ATOM     19  C   UNL     1       2.500   2.659  17.659  0.00  0.00    +0.000 C 
ATOM     20  C   UNL     1       3.667   2.672  19.729  0.00  0.00    +0.000 C 
ENDBRANCH  12  18
ENDBRANCH  11  12
ENDBRANCH   9  11
ENDBRANCH   5   7
BRANCH   1  21
ATOM     21  S   UNL     1       0.015  12.161  19.879  0.00  0.00    +0.000 S 
ATOM     22  O   UNL     1       0.254  12.454  18.479  0.00  0.00    +0.000 OA
ATOM     23  O   UNL     1       0.510  13.056  20.902  0.00  0.00    +0.000 OA
BRANCH  21  24
ATOM     24  N   UNL     1      -1.659  11.933  20.101  0.00  0.00    +0.000 N 
BRANCH  24  25
ATOM     25  C   UNL     1      -2.410  11.405  18.999  0.00  0.00    +0.000 A 
ATOM     26  C   UNL     1      -3.613  12.035  18.669  0.00  0.00    +0.000 A 
ATOM     27  C   UNL     1      -4.365  11.594  17.580  0.00  0.00    +0.000 A 
ATOM     28  C   UNL     1      -3.919  10.511  16.823  0.00  0.00    +0.000 A 
ATOM     29  C   UNL     1      -2.724   9.865  17.166  0.00  0.00    +0.000 A 
ATOM     30  C   UNL     1      -1.972  10.309  18.254  0.00  0.00    +0.000 A 
ENDBRANCH  24  25
BRANCH  24  32
ATOM     31  C   UNL     1      -2.380  12.095  22.496  0.00  0.00    +0.000 C 
ATOM     32  C   UNL     1      -2.324  12.767  21.129  0.00  0.00    +0.000 C 
ENDBRANCH  24  32
ENDBRANCH  21  24
ENDBRANCH   1  21
TORSDOF 8
ENDMDL
MODEL 2
REMARK VINA RESULT:      -7.6      2.172      3.894
REMARK  Name = 
REMARK  11 active torsions:
REMARK  status: ('A' for Active; 'I' for Inactive)
REMARK    1  A    between atoms: C_1  and  C_2
REMARK    2  A    between atoms: C_2  and  N_3
REMARK    3  A    between atoms: N_3  and  C_4
REMARK    4  A    between atoms: N_3  and  S_10
REMARK    5  A    between atoms: S_10  and  C_13
REMARK    6  A    between atoms: C_17  and  C_18
REMARK    7  A    between atoms: N_20  and  C_21
REMARK    8  A    between atoms: C_21  and  C_22
REMARK    9  A    between atoms: C_22  and  N_23
REMARK   10  A    between atoms: N_23  and  C_24
REMARK   11  A    between atoms: N_23  and  C_25
REMARK                            x       y       z     vdW  Elec       q    Type
REMARK                         _______ _______ _______ _____ _____    ______ ____
ROOT
ATOM      1  C   UNL     1       0.760  10.294  19.830  0.00  0.00    +0.000 A 
ATOM      2  C   UNL     1       1.130  10.703  18.542  0.00  0.00    +0.000 A 
ATOM      3  C   UNL     1       1.849   9.834  17.723  0.00  0.00    +0.000 A 
ATOM      4  C   UNL     1       2.201   8.568  18.195  0.00  0.00    +0.000 A 
ATOM      5  C   UNL     1       1.837   8.157  19.489  0.00  0.00    +0.000 A 
ATOM      6  C   UNL     1       1.119   9.027  20.311  0.00  0.00    +0.000 A 
ENDROOT
BRANCH   5   7
ATOM      7  C   UNL     1       2.207   6.780  19.904  0.00  0.00    +0.000 C 
ATOM      8  O   UNL     1       1.578   6.245  20.811  0.00  0.00    +0.000 OA
ATOM      9  N   UNL     1       3.245   6.148  19.243  0.00  0.00    +0.000 N 
ATOM     10  H   UNL     1       3.752   6.565  18.473  0.00  0.00    +0.000 HD
BRANCH   9  11
ATOM     11  C   UNL     1       3.618   4.814  19.668  0.00  0.00    +0.000 C 
BRANCH  11  12
ATOM     12  C   UNL     1       3.740   3.718  18.545  0.00  0.00    +0.000 C 
ATOM     13  C   UNL     1       3.495   2.341  19.240  0.00  0.00    +0.000 C 
ATOM     14  C   UNL     1       2.080   2.201  19.826  0.00  0.00    +0.000 C 
ATOM     15  C   UNL     1       0.990   2.481  18.796  0.00  0.00    +0.000 C 
ATOM     16  C   UNL     1       1.192   3.801  18.058  0.00  0.00    +0.000 C 
ATOM     17  C   UNL     1       2.605   3.919  17.492  0.00  0.00    +0.000 C 
BRANCH  12  18
ATOM     18  N   UNL     1       5.074   3.826  17.852  0.00  0.00    +0.000 NA
ATOM     19  C   UNL     1       5.006   4.282  16.459  0.00  0.00    +0.000 C 
ATOM     20  C   UNL     1       6.079   4.641  18.549  0.00  0.00    +0.000 C 
ENDBRANCH  12  18
ENDBRANCH  11  12
ENDBRANCH   9  11
ENDBRANCH   5   7
BRANCH   1  21
ATOM     21  S   UNL     1       0.001  11.461  20.948  0.00  0.00    +0.000 S 
ATOM     22  O   UNL     1       1.076  12.254  21.511  0.00  0.00    +0.000 OA
ATOM     23  O   UNL     1      -0.873  10.704  21.817  0.00  0.00    +0.000 OA
BRANCH  21  24
ATOM     24  N   UNL     1      -0.944  12.469  19.949  0.00  0.00    +0.000 N 
BRANCH  24  25
ATOM     25  C   UNL     1      -0.566  13.849  19.851  0.00  0.00    +0.000 A 
ATOM     26  C   UNL     1      -1.120  14.743  20.772  0.00  0.00    +0.000 A 
ATOM     27  C   UNL     1      -0.757  16.089  20.755  0.00  0.00    +0.000 A 
ATOM     28  C   UNL     1       0.156  16.549  19.806  0.00  0.00    +0.000 A 
ATOM     29  C   UNL     1       0.696  15.658  18.868  0.00  0.00    +0.000 A 
ATOM     30  C   UNL     1       0.333  14.311  18.889  0.00  0.00    +0.000 A 
ENDBRANCH  24  25
BRANCH  24  32
ATOM     31  C   UNL     1      -2.555  11.447  18.325  0.00  0.00    +0.000 C 
ATOM     32  C   UNL     1      -2.346  12.057  19.705  0.00  0.00    +0.000 C 
ENDBRANCH  24  32
ENDBRANCH  21  24
ENDBRANCH   1  21
TORSDOF 8
ENDMDL
MODEL 3
REMARK VINA RESULT:      -7.6      1.729      3.214
REMARK  Name = 
REMARK  11 active torsions:
REMARK  status: ('A' for Active; 'I' for Inactive)
REMARK    1  A    between atoms: C_1  and  C_2
REMARK    2  A    between atoms: C_2  and  N_3
REMARK    3  A    between atoms: N_3  and  C_4
REMARK    4  A    between atoms: N_3  and  S_10
REMARK    5  A    between atoms: S_10  and  C_13
REMARK    6  A    between atoms: C_17  and  C_18
REMARK    7  A    between atoms: N_20  and  C_21
REMARK    8  A    between atoms: C_21  and  C_22
REMARK    9  A    between atoms: C_22  and  N_23
REMARK   10  A    between atoms: N_23  and  C_24
REMARK   11  A    between atoms: N_23  and  C_25
REMARK                            x       y       z     vdW  Elec       q    Type
REMARK                         _______ _______ _______ _____ _____    ______ ____
ROOT
ATOM      1  C   UNL     1       0.745  10.361  19.832  0.00  0.00    +0.000 A 
ATOM      2  C   UNL     1       1.118  10.750  18.539  0.00  0.00    +0.000 A 
ATOM      3  C   UNL     1       1.832   9.864  17.733  0.00  0.00    +0.000 A 
ATOM      4  C   UNL     1       2.175   8.603  18.223  0.00  0.00    +0.000 A 
ATOM      5  C   UNL     1       1.808   8.213  19.523  0.00  0.00    +0.000 A 
ATOM      6  C   UNL     1       1.095   9.099  20.332  0.00  0.00    +0.000 A 
ENDROOT
BRANCH   5   7
ATOM      7  C   UNL     1       2.170   6.839  19.957  0.00  0.00    +0.000 C 
ATOM      8  O   UNL     1       1.553   6.330  20.888  0.00  0.00    +0.000 OA
ATOM      9  N   UNL     1       3.185   6.181  19.287  0.00  0.00    +0.000 N 
ATOM     10  H   UNL     1       3.680   6.575  18.499  0.00  0.00    +0.000 HD
BRANCH   9  11
ATOM     11  C   UNL     1       3.549   4.850  19.731  0.00  0.00    +0.000 C 
BRANCH  11  12
ATOM     12  C   UNL     1       3.714   3.750  18.617  0.00  0.00    +0.000 C 
ATOM     13  C   UNL     1       3.444   2.375  19.308  0.00  0.00    +0.000 C 
ATOM     14  C   UNL     1       2.008   2.237  19.842  0.00  0.00    +0.000 C 
ATOM     15  C   UNL     1       0.957   2.512  18.769  0.00  0.00    +0.000 C 
ATOM     16  C   UNL     1       1.186   3.829  18.034  0.00  0.00    +0.000 C 
ATOM     17  C   UNL     1       2.619   3.945  17.522  0.00  0.00    +0.000 C 
BRANCH  12  18
ATOM     18  N   UNL     1       5.073   3.855  17.975  0.00  0.00    +0.000 NA
ATOM     19  C   UNL     1       5.054   4.241  16.559  0.00  0.00    +0.000 C 
ATOM     20  C   UNL     1       6.030   4.728  18.670  0.00  0.00    +0.000 C 
ENDBRANCH  12  18
ENDBRANCH  11  12
ENDBRANCH   9  11
ENDBRANCH   5   7
BRANCH   1  21
ATOM     21  S   UNL     1      -0.008  11.548  20.933  0.00  0.00    +0.000 S 
ATOM     22  O   UNL     1       1.077  12.226  21.615  0.00  0.00    +0.000 OA
ATOM     23  O   UNL     1      -1.012  10.839  21.695  0.00  0.00    +0.000 OA
BRANCH  21  24
ATOM     24  N   UNL     1      -0.778  12.669  19.905  0.00  0.00    +0.000 N 
BRANCH  24  25
ATOM     25  C   UNL     1      -2.118  12.375  19.487  0.00  0.00    +0.000 A 
ATOM     26  C   UNL     1      -2.287  11.629  18.318  0.00  0.00    +0.000 A 
ATOM     27  C   UNL     1      -3.565  11.274  17.886  0.00  0.00    +0.000 A 
ATOM     28  C   UNL     1      -4.681  11.676  18.619  0.00  0.00    +0.000 A 
ATOM     29  C   UNL     1      -4.514  12.443  19.780  0.00  0.00    +0.000 A 
ATOM     30  C   UNL     1      -3.235  12.794  20.212  0.00  0.00    +0.000 A 
ENDBRANCH  24  25
BRANCH  24  32
ATOM     31  C   UNL     1      -0.272  15.011  19.171  0.00  0.00    +0.000 C 
ATOM     32  C   UNL     1       0.093  13.534  19.076  0.00  0.00    +0.000 C 
ENDBRANCH  24  32
ENDBRANCH  21  24
ENDBRANCH   1  21
TORSDOF 8
ENDMDL
MODEL 4
REMARK VINA RESULT:      -7.5      1.393      1.966
REMARK  Name = 
REMARK  11 active torsions:
REMARK  status: ('A' for Active; 'I' for Inactive)
REMARK    1  A    between atoms: C_1  and  C_2
REMARK    2  A    between atoms: C_2  and  N_3
REMARK    3  A    between atoms: N_3  and  C_4
REMARK    4  A    between atoms: N_3  and  S_10
REMARK    5  A    between atoms: S_10  and  C_13
REMARK    6  A    between atoms: C_17  and  C_18
REMARK    7  A    between atoms: N_20  and  C_21
REMARK    8  A    between atoms: C_21  and  C_22
REMARK    9  A    between atoms: C_22  and  N_23
REMARK   10  A    between atoms: N_23  and  C_24
REMARK   11  A    between atoms: N_23  and  C_25
REMARK                            x       y       z     vdW  Elec       q    Type
REMARK                         _______ _______ _______ _____ _____    ______ ____
ROOT
ATOM      1  C   UNL     1      -0.058  10.879  20.687  0.00  0.00    +0.000 A 
ATOM      2  C   UNL     1      -0.582  10.490  21.928  0.00  0.00    +0.000 A 
ATOM      3  C   UNL     1      -0.256   9.240  22.451  0.00  0.00    +0.000 A 
ATOM      4  C   UNL     1       0.580   8.384  21.733  0.00  0.00    +0.000 A 
ATOM      5  C   UNL     1       1.102   8.769  20.485  0.00  0.00    +0.000 A 
ATOM      6  C   UNL     1       0.775  10.019  19.959  0.00  0.00    +0.000 A 
ENDROOT
BRANCH   5   7
ATOM      7  C   UNL     1       2.021   7.823  19.802  0.00  0.00    +0.000 C 
ATOM      8  O   UNL     1       2.372   8.065  18.651  0.00  0.00    +0.000 OA
ATOM      9  N   UNL     1       2.456   6.708  20.495  0.00  0.00    +0.000 N 
ATOM     10  H   UNL     1       2.200   6.512  21.454  0.00  0.00    +0.000 HD
BRANCH   9  11
ATOM     11  C   UNL     1       3.333   5.777  19.815  0.00  0.00    +0.000 C 
BRANCH  11  12
ATOM     12  C   UNL     1       2.749   4.349  19.500  0.00  0.00    +0.000 C 
ATOM     13  C   UNL     1       2.240   4.394  18.024  0.00  0.00    +0.000 C 
ATOM     14  C   UNL     1       3.365   4.634  17.003  0.00  0.00    +0.000 C 
ATOM     15  C   UNL     1       4.507   3.632  17.144  0.00  0.00    +0.000 C 
ATOM     16  C   UNL     1       5.027   3.519  18.574  0.00  0.00    +0.000 C 
ATOM     17  C   UNL     1       3.892   3.289  19.569  0.00  0.00    +0.000 C 
BRANCH  12  18
ATOM     18  N   UNL     1       1.685   3.987  20.504  0.00  0.00    +0.000 NA
ATOM     19  C   UNL     1       0.597   3.157  19.971  0.00  0.00    +0.000 C 
ATOM     20  C   UNL     1       2.175   3.356  21.737  0.00  0.00    +0.000 C 
ENDBRANCH  12  18
ENDBRANCH  11  12
ENDBRANCH   9  11
ENDBRANCH   5   7
BRANCH   1  21
ATOM     21  S   UNL     1      -0.612  12.397  19.928  0.00  0.00    +0.000 S 
ATOM     22  O   UNL     1       0.025  12.466  18.627  0.00  0.00    +0.000 OA
ATOM     23  O   UNL     1      -0.402  13.453  20.894  0.00  0.00    +0.000 OA
BRANCH  21  24
ATOM     24  N   UNL     1      -2.286  12.182  19.694  0.00  0.00    +0.000 N 
BRANCH  24  25
ATOM     25  C   UNL     1      -2.711  11.532  18.489  0.00  0.00    +0.000 A 
ATOM     26  C   UNL     1      -1.867  10.564  17.938  0.00  0.00    +0.000 A 
ATOM     27  C   UNL     1      -2.246   9.867  16.792  0.00  0.00    +0.000 A 
ATOM     28  C   UNL     1      -3.470  10.144  16.185  0.00  0.00    +0.000 A 
ATOM     29  C   UNL     1      -4.309  11.129  16.723  0.00  0.00    +0.000 A 
ATOM     30  C   UNL     1      -3.928  11.824  17.872  0.00  0.00    +0.000 A 
ENDBRANCH  24  25
BRANCH  24  32
ATOM     31  C   UNL     1      -3.725  12.553  21.713  0.00  0.00    +0.000 C 
ATOM     32  C   UNL     1      -3.193  13.117  20.401  0.00  0.00    +0.000 C 
ENDBRANCH  24  32
ENDBRANCH  21  24
ENDBRANCH   1  21
TORSDOF 8
ENDMDL
MODEL 5
REMARK VINA RESULT:      -7.5      1.783      2.573
REMARK  Name = 
REMARK  11 active torsions:
REMARK  status: ('A' for Active; 'I' for Inactive)
REMARK    1  A    between atoms: C_1  and  C_2
REMARK    2  A    between atoms: C_2  and  N_3
REMARK    3  A    between atoms: N_3  and  C_4
REMARK    4  A    between atoms: N_3  and  S_10
REMARK    5  A    between atoms: S_10  and  C_13
REMARK    6  A    between atoms: C_17  and  C_18
REMARK    7  A    between atoms: N_20  and  C_21
REMARK    8  A    between atoms: C_21  and  C_22
REMARK    9  A    between atoms: C_22  and  N_23
REMARK   10  A    between atoms: N_23  and  C_24
REMARK   11  A    between atoms: N_23  and  C_25
REMARK                            x       y       z     vdW  Elec       q    Type
REMARK                         _______ _______ _______ _____ _____    ______ ____
ROOT
ATOM      1  C   UNL     1       0.136  10.417  19.877  0.00  0.00    +0.000 A 
ATOM      2  C   UNL     1       0.056   9.901  21.178  0.00  0.00    +0.000 A 
ATOM      3  C   UNL     1       0.769   8.750  21.506  0.00  0.00    +0.000 A 
ATOM      4  C   UNL     1       1.547   8.115  20.537  0.00  0.00    +0.000 A 
ATOM      5  C   UNL     1       1.624   8.626  19.230  0.00  0.00    +0.000 A 
ATOM      6  C   UNL     1       0.910   9.778  18.898  0.00  0.00    +0.000 A 
ENDROOT
BRANCH   5   7
ATOM      7  C   UNL     1       2.509   7.923  18.266  0.00  0.00    +0.000 C 
ATOM      8  O   UNL     1       2.781   8.471  17.202  0.00  0.00    +0.000 OA
ATOM      9  N   UNL     1       3.001   6.677  18.610  0.00  0.00    +0.000 N 
ATOM     10  H   UNL     1       2.811   6.227  19.495  0.00  0.00    +0.000 HD
BRANCH   9  11
ATOM     11  C   UNL     1       3.844   5.985  17.656  0.00  0.00    +0.000 C 
BRANCH  11  12
ATOM     12  C   UNL     1       4.312   4.533  18.042  0.00  0.00    +0.000 C 
ATOM     13  C   UNL     1       4.869   3.883  16.736  0.00  0.00    +0.000 C 
ATOM     14  C   UNL     1       6.109   4.603  16.182  0.00  0.00    +0.000 C 
ATOM     15  C   UNL     1       7.217   4.743  17.223  0.00  0.00    +0.000 C 
ATOM     16  C   UNL     1       6.728   5.343  18.537  0.00  0.00    +0.000 C 
ATOM     17  C   UNL     1       5.492   4.617  19.061  0.00  0.00    +0.000 C 
BRANCH  12  18
ATOM     18  N   UNL     1       3.176   3.767  18.671  0.00  0.00    +0.000 NA
ATOM     19  C   UNL     1       2.229   3.181  17.716  0.00  0.00    +0.000 C 
ATOM     20  C   UNL     1       3.577   2.715  19.617  0.00  0.00    +0.000 C 
ENDBRANCH  12  18
ENDBRANCH  11  12
ENDBRANCH   9  11
ENDBRANCH   5   7
BRANCH   1  21
ATOM     21  S   UNL     1      -0.911  11.782  19.399  0.00  0.00    +0.000 S 
ATOM     22  O   UNL     1      -2.254  11.250  19.278  0.00  0.00    +0.000 OA
ATOM     23  O   UNL     1      -0.279  12.420  18.265  0.00  0.00    +0.000 OA
BRANCH  21  24
ATOM     24  N   UNL     1      -0.873  12.847  20.729  0.00  0.00    +0.000 N 
BRANCH  24  25
ATOM     25  C   UNL     1      -2.024  12.883  21.584  0.00  0.00    +0.000 A 
ATOM     26  C   UNL     1      -3.117  13.652  21.174  0.00  0.00    +0.000 A 
ATOM     27  C   UNL     1      -4.280  13.690  21.942  0.00  0.00    +0.000 A 
ATOM     28  C   UNL     1      -4.351  12.965  23.131  0.00  0.00    +0.000 A 
ATOM     29  C   UNL     1      -3.248  12.210  23.554  0.00  0.00    +0.000 A 
ATOM     30  C   UNL     1      -2.086  12.172  22.783  0.00  0.00    +0.000 A 
ENDBRANCH  24  25
BRANCH  24  32
ATOM     31  C   UNL     1       1.372  13.803  21.300  0.00  0.00    +0.000 C 
ATOM     32  C   UNL     1       0.022  14.023  20.629  0.00  0.00    +0.000 C 
ENDBRANCH  24  32
ENDBRANCH  21  24
ENDBRANCH   1  21
TORSDOF 8
ENDMDL
MODEL 6
REMARK VINA RESULT:      -7.4      2.124      3.920
REMARK  Name = 
REMARK  11 active torsions:
REMARK  status: ('A' for Active; 'I' for Inactive)
REMARK    1  A    between atoms: C_1  and  C_2
REMARK    2  A    between atoms: C_2  and  N_3
REMARK    3  A    between atoms: N_3  and  C_4
REMARK    4  A    between atoms: N_3  and  S_10
REMARK    5  A    between atoms: S_10  and  C_13
REMARK    6  A    between atoms: C_17  and  C_18
REMARK    7  A    between atoms: N_20  and  C_21
REMARK    8  A    between atoms: C_21  and  C_22
REMARK    9  A    between atoms: C_22  and  N_23
REMARK   10  A    between atoms: N_23  and  C_24
REMARK   11  A    between atoms: N_23  and  C_25
REMARK                            x       y       z     vdW  Elec       q    Type
REMARK                         _______ _______ _______ _____ _____    ______ ____
ROOT
ATOM      1  C   UNL     1       0.560  10.608  19.909  0.00  0.00    +0.000 A 
ATOM      2  C   UNL     1       0.895  11.051  18.623  0.00  0.00    +0.000 A 
ATOM      3  C   UNL     1       1.625  10.219  17.776  0.00  0.00    +0.000 A 
ATOM      4  C   UNL     1       2.024   8.957  18.219  0.00  0.00    +0.000 A 
ATOM      5  C   UNL     1       1.696   8.512  19.512  0.00  0.00    +0.000 A 
ATOM      6  C   UNL     1       0.966   9.345  20.361  0.00  0.00    +0.000 A 
ENDROOT
BRANCH   5   7
ATOM      7  C   UNL     1       2.115   7.140  19.896  0.00  0.00    +0.000 C 
ATOM      8  O   UNL     1       1.522   6.572  20.807  0.00  0.00    +0.000 OA
ATOM      9  N   UNL     1       3.156   6.550  19.202  0.00  0.00    +0.000 N 
ATOM     10  H   UNL     1       3.634   6.993  18.429  0.00  0.00    +0.000 HD
BRANCH   9  11
ATOM     11  C   UNL     1       3.577   5.221  19.597  0.00  0.00    +0.000 C 
BRANCH  11  12
ATOM     12  C   UNL     1       3.838   4.185  18.440  0.00  0.00    +0.000 C 
ATOM     13  C   UNL     1       4.032   2.795  19.125  0.00  0.00    +0.000 C 
ATOM     14  C   UNL     1       2.778   2.305  19.868  0.00  0.00    +0.000 C 
ATOM     15  C   UNL     1       1.539   2.293  18.978  0.00  0.00    +0.000 C 
ATOM     16  C   UNL     1       1.312   3.616  18.254  0.00  0.00    +0.000 C 
ATOM     17  C   UNL     1       2.573   4.085  17.531  0.00  0.00    +0.000 C 
BRANCH  12  18
ATOM     18  N   UNL     1       5.010   4.623  17.600  0.00  0.00    +0.000 NA
ATOM     19  C   UNL     1       6.299   4.627  18.302  0.00  0.00    +0.000 C 
ATOM     20  C   UNL     1       5.184   3.893  16.337  0.00  0.00    +0.000 C 
ENDBRANCH  12  18
ENDBRANCH  11  12
ENDBRANCH   9  11
ENDBRANCH   5   7
BRANCH   1  21
ATOM     21  S   UNL     1      -0.215  11.732  21.060  0.00  0.00    +0.000 S 
ATOM     22  O   UNL     1       0.838  12.581  21.582  0.00  0.00    +0.000 OA
ATOM     23  O   UNL     1      -1.010  10.928  21.962  0.00  0.00    +0.000 OA
BRANCH  21  24
ATOM     24  N   UNL     1      -1.252  12.688  20.104  0.00  0.00    +0.000 N 
BRANCH  24  25
ATOM     25  C   UNL     1      -0.968  14.091  20.014  0.00  0.00    +0.000 A 
ATOM     26  C   UNL     1      -0.213  14.534  18.924  0.00  0.00    +0.000 A 
ATOM     27  C   UNL     1       0.058  15.892  18.759  0.00  0.00    +0.000 A 
ATOM     28  C   UNL     1      -0.418  16.813  19.692  0.00  0.00    +0.000 A 
ATOM     29  C   UNL     1      -1.157  16.368  20.796  0.00  0.00    +0.000 A 
ATOM     30  C   UNL     1      -1.429  15.009  20.959  0.00  0.00    +0.000 A 
ENDBRANCH  24  25
BRANCH  24  32
ATOM     31  C   UNL     1      -2.843  11.586  18.513  0.00  0.00    +0.000 C 
ATOM     32  C   UNL     1      -2.631  12.189  19.896  0.00  0.00    +0.000 C 
ENDBRANCH  24  32
ENDBRANCH  21  24
ENDBRANCH   1  21
TORSDOF 8
ENDMDL
MODEL 7
REMARK VINA RESULT:      -7.4      3.055      9.233
REMARK  Name = 
REMARK  11 active torsions:
REMARK  status: ('A' for Active; 'I' for Inactive)
REMARK    1  A    between atoms: C_1  and  C_2
REMARK    2  A    between atoms: C_2  and  N_3
REMARK    3  A    between atoms: N_3  and  C_4
REMARK    4  A    between atoms: N_3  and  S_10
REMARK    5  A    between atoms: S_10  and  C_13
REMARK    6  A    between atoms: C_17  and  C_18
REMARK    7  A    between atoms: N_20  and  C_21
REMARK    8  A    between atoms: C_21  and  C_22
REMARK    9  A    between atoms: C_22  and  N_23
REMARK   10  A    between atoms: N_23  and  C_24
REMARK   11  A    between atoms: N_23  and  C_25
REMARK                            x       y       z     vdW  Elec       q    Type
REMARK                         _______ _______ _______ _____ _____    ______ ____
ROOT
ATOM      1  C   UNL     1       3.309   4.999  18.957  0.00  0.00    +0.000 A 
ATOM      2  C   UNL     1       2.688   4.795  20.197  0.00  0.00    +0.000 A 
ATOM      3  C   UNL     1       1.933   5.820  20.765  0.00  0.00    +0.000 A 
ATOM      4  C   UNL     1       1.809   7.041  20.101  0.00  0.00    +0.000 A 
ATOM      5  C   UNL     1       2.437   7.251  18.861  0.00  0.00    +0.000 A 
ATOM      6  C   UNL     1       3.194   6.227  18.291  0.00  0.00    +0.000 A 
ENDROOT
BRANCH   5   7
ATOM      7  C   UNL     1       2.222   8.560  18.193  0.00  0.00    +0.000 C 
ATOM      8  O   UNL     1       2.551   8.688  17.018  0.00  0.00    +0.000 OA
ATOM      9  N   UNL     1       1.648   9.586  18.922  0.00  0.00    +0.000 N 
ATOM     10  H   UNL     1       1.343   9.487  19.881  0.00  0.00    +0.000 HD
BRANCH   9  11
ATOM     11  C   UNL     1       1.463  10.869  18.272  0.00  0.00    +0.000 C 
BRANCH  11  12
ATOM     12  C   UNL     1       1.119  12.093  19.201  0.00  0.00    +0.000 C 
ATOM     13  C   UNL     1       0.041  12.934  18.445  0.00  0.00    +0.000 C 
ATOM     14  C   UNL     1      -1.277  12.174  18.226  0.00  0.00    +0.000 C 
ATOM     15  C   UNL     1      -1.852  11.614  19.525  0.00  0.00    +0.000 C 
ATOM     16  C   UNL     1      -0.835  10.808  20.327  0.00  0.00    +0.000 C 
ATOM     17  C   UNL     1       0.467  11.579  20.523  0.00  0.00    +0.000 C 
BRANCH  12  18
ATOM     18  N   UNL     1       2.370  12.861  19.538  0.00  0.00    +0.000 NA
ATOM     19  C   UNL     1       3.021  13.507  18.392  0.00  0.00    +0.000 C 
ATOM     20  C   UNL     1       2.222  13.866  20.601  0.00  0.00    +0.000 C 
ENDBRANCH  12  18
ENDBRANCH  11  12
ENDBRANCH   9  11
ENDBRANCH   5   7
BRANCH   1  21
ATOM     21  S   UNL     1       4.422   3.763  18.308  0.00  0.00    +0.000 S 
ATOM     22  O   UNL     1       3.599   2.780  17.631  0.00  0.00    +0.000 OA
ATOM     23  O   UNL     1       5.283   3.359  19.398  0.00  0.00    +0.000 OA
BRANCH  21  24
ATOM     24  N   UNL     1       5.351   4.583  17.139  0.00  0.00    +0.000 N 
BRANCH  24  25
ATOM     25  C   UNL     1       6.273   5.580  17.602  0.00  0.00    +0.000 A 
ATOM     26  C   UNL     1       7.167   5.220  18.614  0.00  0.00    +0.000 A 
ATOM     27  C   UNL     1       8.116   6.132  19.074  0.00  0.00    +0.000 A 
ATOM     28  C   UNL     1       8.167   7.414  18.528  0.00  0.00    +0.000 A 
ATOM     29  C   UNL     1       7.257   7.784  17.528  0.00  0.00    +0.000 A 
ATOM     30  C   UNL     1       6.309   6.869  17.068  0.00  0.00    +0.000 A 
ENDBRANCH  24  25
BRANCH  24  32
ATOM     31  C   UNL     1       5.784   4.172  14.705  0.00  0.00    +0.000 C 
ATOM     32  C   UNL     1       4.800   4.653  15.765  0.00  0.00    +0.000 C 
ENDBRANCH  24  32
ENDBRANCH  21  24
ENDBRANCH   1  21
TORSDOF 8
ENDMDL
MODEL 8
REMARK VINA RESULT:      -7.4      1.245      1.658
REMARK  Name = 
REMARK  11 active torsions:
REMARK  status: ('A' for Active; 'I' for Inactive)
REMARK    1  A    between atoms: C_1  and  C_2
REMARK    2  A    between atoms: C_2  and  N_3
REMARK    3  A    between atoms: N_3  and  C_4
REMARK    4  A    between atoms: N_3  and  S_10
REMARK    5  A    between atoms: S_10  and  C_13
REMARK    6  A    between atoms: C_17  and  C_18
REMARK    7  A    between atoms: N_20  and  C_21
REMARK    8  A    between atoms: C_21  and  C_22
REMARK    9  A    between atoms: C_22  and  N_23
REMARK   10  A    between atoms: N_23  and  C_24
REMARK   11  A    between atoms: N_23  and  C_25
REMARK                            x       y       z     vdW  Elec       q    Type
REMARK                         _______ _______ _______ _____ _____    ______ ____
ROOT
ATOM      1  C   UNL     1       0.629   9.961  20.864  0.00  0.00    +0.000 A 
ATOM      2  C   UNL     1       0.280   8.996  21.818  0.00  0.00    +0.000 A 
ATOM      3  C   UNL     1       0.677   7.673  21.637  0.00  0.00    +0.000 A 
ATOM      4  C   UNL     1       1.412   7.318  20.505  0.00  0.00    +0.000 A 
ATOM      5  C   UNL     1       1.758   8.282  19.542  0.00  0.00    +0.000 A 
ATOM      6  C   UNL     1       1.359   9.607  19.720  0.00  0.00    +0.000 A 
ENDROOT
BRANCH   5   7
ATOM      7  C   UNL     1       2.580   7.838  18.387  0.00  0.00    +0.000 C 
ATOM      8  O   UNL     1       2.585   8.519  17.366  0.00  0.00    +0.000 OA
ATOM      9  N   UNL     1       3.317   6.674  18.510  0.00  0.00    +0.000 N 
ATOM     10  H   UNL     1       3.347   6.119  19.355  0.00  0.00    +0.000 HD
BRANCH   9  11
ATOM     11  C   UNL     1       4.097   6.232  17.372  0.00  0.00    +0.000 C 
BRANCH  11  12
ATOM     12  C   UNL     1       4.662   4.764  17.424  0.00  0.00    +0.000 C 
ATOM     13  C   UNL     1       4.721   4.258  15.947  0.00  0.00    +0.000 C 
ATOM     14  C   UNL     1       5.693   5.064  15.069  0.00  0.00    +0.000 C 
ATOM     15  C   UNL     1       7.096   5.136  15.665  0.00  0.00    +0.000 C 
ATOM     16  C   UNL     1       7.103   5.593  17.120  0.00  0.00    +0.000 C 
ATOM     17  C   UNL     1       6.126   4.785  17.969  0.00  0.00    +0.000 C 
BRANCH  12  18
ATOM     18  N   UNL     1       3.815   3.909  18.331  0.00  0.00    +0.000 NA
ATOM     19  C   UNL     1       3.030   2.877  17.643  0.00  0.00    +0.000 C 
ATOM     20  C   UNL     1       4.535   3.268  19.440  0.00  0.00    +0.000 C 
ENDBRANCH  12  18
ENDBRANCH  11  12
ENDBRANCH   9  11
ENDBRANCH   5   7
BRANCH   1  21
ATOM     21  S   UNL     1      -0.027  11.616  20.994  0.00  0.00    +0.000 S 
ATOM     22  O   UNL     1       1.049  12.450  21.491  0.00  0.00    +0.000 OA
ATOM     23  O   UNL     1      -1.269  11.520  21.729  0.00  0.00    +0.000 OA
BRANCH  21  24
ATOM     24  N   UNL     1      -0.366  12.078  19.388  0.00  0.00    +0.000 N 
BRANCH  24  25
ATOM     25  C   UNL     1      -1.483  11.455  18.739  0.00  0.00    +0.000 A 
ATOM     26  C   UNL     1      -2.753  11.990  18.973  0.00  0.00    +0.000 A 
ATOM     27  C   UNL     1      -3.872  11.455  18.335  0.00  0.00    +0.000 A 
ATOM     28  C   UNL     1      -3.724  10.373  17.467  0.00  0.00    +0.000 A 
ATOM     29  C   UNL     1      -2.454   9.823  17.248  0.00  0.00    +0.000 A 
ATOM     30  C   UNL     1      -1.336  10.361  17.886  0.00  0.00    +0.000 A 
ENDBRANCH  24  25
BRANCH  24  32
ATOM     31  C   UNL     1       0.798  14.143  18.576  0.00  0.00    +0.000 C 
ATOM     32  C   UNL     1       0.757  12.620  18.589  0.00  0.00    +0.000 C 
ENDBRANCH  24  32
ENDBRANCH  21  24
ENDBRANCH   1  21
TORSDOF 8
ENDMDL
MODEL 9
REMARK VINA RESULT:      -7.4      2.887      9.165
REMARK  Name = 
REMARK  11 active torsions:
REMARK  status: ('A' for Active; 'I' for Inactive)
REMARK    1  A    between atoms: C_1  and  C_2
REMARK    2  A    between atoms: C_2  and  N_3
REMARK    3  A    between atoms: N_3  and  C_4
REMARK    4  A    between atoms: N_3  and  S_10
REMARK    5  A    between atoms: S_10  and  C_13
REMARK    6  A    between atoms: C_17  and  C_18
REMARK    7  A    between atoms: N_20  and  C_21
REMARK    8  A    between atoms: C_21  and  C_22
REMARK    9  A    between atoms: C_22  and  N_23
REMARK   10  A    between atoms: N_23  and  C_24
REMARK   11  A    between atoms: N_23  and  C_25
REMARK                            x       y       z     vdW  Elec       q    Type
REMARK                         _______ _______ _______ _____ _____    ______ ____
ROOT
ATOM      1  C   UNL     1       3.259   4.976  18.624  0.00  0.00    +0.000 A 
ATOM      2  C   UNL     1       3.033   4.799  19.996  0.00  0.00    +0.000 A 
ATOM      3  C   UNL     1       2.491   5.842  20.744  0.00  0.00    +0.000 A 
ATOM      4  C   UNL     1       2.187   7.056  20.125  0.00  0.00    +0.000 A 
ATOM      5  C   UNL     1       2.419   7.238  18.751  0.00  0.00    +0.000 A 
ATOM      6  C   UNL     1       2.962   6.196  18.000  0.00  0.00    +0.000 A 
ENDROOT
BRANCH   5   7
ATOM      7  C   UNL     1       2.026   8.541  18.153  0.00  0.00    +0.000 C 
ATOM      8  O   UNL     1       2.558   8.897  17.106  0.00  0.00    +0.000 OA
ATOM      9  N   UNL     1       1.067   9.300  18.798  0.00  0.00    +0.000 N 
ATOM     10  H   UNL     1       0.598   9.006  19.644  0.00  0.00    +0.000 HD
BRANCH   9  11
ATOM     11  C   UNL     1       0.706  10.581  18.224  0.00  0.00    +0.000 C 
BRANCH  11  12
ATOM     12  C   UNL     1      -0.541  11.313  18.846  0.00  0.00    +0.000 C 
ATOM     13  C   UNL     1      -0.323  11.325  20.392  0.00  0.00    +0.000 C 
ATOM     14  C   UNL     1       0.912  12.134  20.824  0.00  0.00    +0.000 C 
ATOM     15  C   UNL     1       0.898  13.558  20.275  0.00  0.00    +0.000 C 
ATOM     16  C   UNL     1       0.656  13.615  18.770  0.00  0.00    +0.000 C 
ATOM     17  C   UNL     1      -0.569  12.798  18.366  0.00  0.00    +0.000 C 
BRANCH  12  18
ATOM     18  N   UNL     1      -1.815  10.635  18.413  0.00  0.00    +0.000 NA
ATOM     19  C   UNL     1      -3.002  11.499  18.418  0.00  0.00    +0.000 C 
ATOM     20  C   UNL     1      -1.753   9.956  17.110  0.00  0.00    +0.000 C 
ENDBRANCH  12  18
ENDBRANCH  11  12
ENDBRANCH   9  11
ENDBRANCH   5   7
BRANCH   1  21
ATOM     21  S   UNL     1       4.117   3.714  17.697  0.00  0.00    +0.000 S 
ATOM     22  O   UNL     1       3.137   3.110  16.816  0.00  0.00    +0.000 OA
ATOM     23  O   UNL     1       4.831   2.900  18.655  0.00  0.00    +0.000 OA
BRANCH  21  24
ATOM     24  N   UNL     1       5.243   4.566  16.742  0.00  0.00    +0.000 N 
BRANCH  24  25
ATOM     25  C   UNL     1       6.223   5.362  17.422  0.00  0.00    +0.000 A 
ATOM     26  C   UNL     1       6.463   6.652  16.939  0.00  0.00    +0.000 A 
ATOM     27  C   UNL     1       7.372   7.489  17.586  0.00  0.00    +0.000 A 
ATOM     28  C   UNL     1       8.053   7.034  18.714  0.00  0.00    +0.000 A 
ATOM     29  C   UNL     1       7.829   5.733  19.186  0.00  0.00    +0.000 A 
ATOM     30  C   UNL     1       6.918   4.898  18.540  0.00  0.00    +0.000 A 
ENDBRANCH  24  25
BRANCH  24  32
ATOM     31  C   UNL     1       5.744   4.260  14.306  0.00  0.00    +0.000 C 
ATOM     32  C   UNL     1       4.841   4.896  15.355  0.00  0.00    +0.000 C 
ENDBRANCH  24  32
ENDBRANCH  21  24
ENDBRANCH   1  21
TORSDOF 8
ENDMDL
