MODEL 1
REMARK VINA RESULT:      -9.3      0.000      0.000
REMARK  Name = 
REMARK  7 active torsions:
REMARK  status: ('A' for Active; 'I' for Inactive)
REMARK    1  A    between atoms: C_5  and  C_6
REMARK    2  A    between atoms: C_6  and  S_7
REMARK    3  A    between atoms: S_7  and  C_8
REMARK    4  A    between atoms: C_11  and  C_12
REMARK    5  A    between atoms: C_12  and  C_13
REMARK    6  A    between atoms: C_15  and  C_16
REMARK    7  A    between atoms: C_23  and  C_24
REMARK                            x       y       z     vdW  Elec       q    Type
REMARK                         _______ _______ _______ _____ _____    ______ ____
ROOT
ATOM      1  C   UNL     1       6.248   5.015  17.622  0.00  0.00    +0.000 A 
ATOM      2  S   UNL     1       5.241   4.864  19.009  0.00  0.00    +0.000 S 
ATOM      3  C   UNL     1       3.944   4.281  18.054  0.00  0.00    +0.000 A 
ATOM      4  N   UNL     1       4.231   4.149  16.775  0.00  0.00    +0.000 NA
ATOM      5  C   UNL     1       5.540   4.555  16.511  0.00  0.00    +0.000 A 
ENDROOT
BRANCH   3   6
ATOM      6  C   UNL     1       2.670   3.906  18.694  0.00  0.00    +0.000 A 
ATOM      7  C   UNL     1       2.182   4.561  19.838  0.00  0.00    +0.000 A 
ATOM      8  C   UNL     1       1.004   4.138  20.470  0.00  0.00    +0.000 A 
ATOM      9  C   UNL     1       0.295   3.064  19.953  0.00  0.00    +0.000 A 
ATOM     10  C   UNL     1       0.745   2.419  18.803  0.00  0.00    +0.000 A 
ATOM     11  C   UNL     1       1.922   2.842  18.175  0.00  0.00    +0.000 A 
ENDBRANCH   3   6
BRANCH   5  12
ATOM     12  C   UNL     1       6.052   4.484  15.138  0.00  0.00    +0.000 A 
ATOM     13  C   UNL     1       5.387   3.700  14.182  0.00  0.00    +0.000 A 
ATOM     14  C   UNL     1       5.873   3.596  12.872  0.00  0.00    +0.000 A 
ATOM     15  C   UNL     1       7.027   4.283  12.498  0.00  0.00    +0.000 A 
ATOM     16  C   UNL     1       7.704   5.054  13.435  0.00  0.00    +0.000 A 
ATOM     17  C   UNL     1       7.230   5.135  14.748  0.00  0.00    +0.000 A 
ENDBRANCH   5  12
BRANCH   1  18
ATOM     18  C   UNL     1       7.643   5.585  17.735  0.00  0.00    +0.000 C 
BRANCH  18  22
ATOM     19  C   UNL     1       8.394   9.009  18.339  0.00  0.00    +0.000 A 
ATOM     20  N   UNL     1       7.473   9.187  17.413  0.00  0.00    +0.000 NA
ATOM     21  N   UNL     1       7.062   7.938  17.001  0.00  0.00    +0.000 NA
ATOM     22  C   UNL     1       7.747   7.073  17.715  0.00  0.00    +0.000 A 
ATOM     23  O   UNL     1       8.645   7.678  18.568  0.00  0.00    +0.000 OA
BRANCH  19  24
ATOM     24  S   UNL     1       9.099  10.334  19.215  0.00  0.00    +0.000 S 
BRANCH  24  25
ATOM     25  C   UNL     1      10.243  11.054  18.012  0.00  0.00    +0.000 C 
BRANCH  25  30
ATOM     26  F   UNL     1      11.534  16.408  19.312  0.00  0.00    +0.000 F 
ATOM     27  C   UNL     1      11.223  15.141  19.006  0.00  0.00    +0.000 A 
ATOM     28  C   UNL     1      10.949  14.802  17.688  0.00  0.00    +0.000 A 
ATOM     29  C   UNL     1      10.625  13.480  17.368  0.00  0.00    +0.000 A 
ATOM     30  C   UNL     1      10.570  12.493  18.367  0.00  0.00    +0.000 A 
ATOM     31  C   UNL     1      10.862  12.859  19.693  0.00  0.00    +0.000 A 
ATOM     32  C   UNL     1      11.186  14.183  20.011  0.00  0.00    +0.000 A 
ENDBRANCH  25  30
ENDBRANCH  24  25
ENDBRANCH  19  24
ENDBRANCH  18  22
ENDBRANCH   1  18
TORSDOF 7
ENDMDL
MODEL 2
REMARK VINA RESULT:      -9.1      0.352      1.512
REMARK  Name = 
REMARK  7 active torsions:
REMARK  status: ('A' for Active; 'I' for Inactive)
REMARK    1  A    between atoms: C_5  and  C_6
REMARK    2  A    between atoms: C_6  and  S_7
REMARK    3  A    between atoms: S_7  and  C_8
REMARK    4  A    between atoms: C_11  and  C_12
REMARK    5  A    between atoms: C_12  and  C_13
REMARK    6  A    between atoms: C_15  and  C_16
REMARK    7  A    between atoms: C_23  and  C_24
REMARK                            x       y       z     vdW  Elec       q    Type
REMARK                         _______ _______ _______ _____ _____    ______ ____
ROOT
ATOM      1  C   UNL     1       6.271   4.811  17.611  0.00  0.00    +0.000 A 
ATOM      2  S   UNL     1       5.278   4.636  19.004  0.00  0.00    +0.000 S 
ATOM      3  C   UNL     1       3.975   4.062  18.052  0.00  0.00    +0.000 A 
ATOM      4  N   UNL     1       4.250   3.949  16.769  0.00  0.00    +0.000 NA
ATOM      5  C   UNL     1       5.556   4.364  16.499  0.00  0.00    +0.000 A 
ENDROOT
BRANCH   3   6
ATOM      6  C   UNL     1       2.708   3.671  18.699  0.00  0.00    +0.000 A 
ATOM      7  C   UNL     1       1.912   2.617  18.218  0.00  0.00    +0.000 A 
ATOM      8  C   UNL     1       0.677   2.313  18.808  0.00  0.00    +0.000 A 
ATOM      9  C   UNL     1       0.234   3.052  19.896  0.00  0.00    +0.000 A 
ATOM     10  C   UNL     1       1.022   4.082  20.407  0.00  0.00    +0.000 A 
ATOM     11  C   UNL     1       2.253   4.385  19.815  0.00  0.00    +0.000 A 
ENDBRANCH   3   6
BRANCH   5  12
ATOM     12  C   UNL     1       6.055   4.315  15.121  0.00  0.00    +0.000 A 
ATOM     13  C   UNL     1       7.198   5.049  14.763  0.00  0.00    +0.000 A 
ATOM     14  C   UNL     1       7.677   5.038  13.447  0.00  0.00    +0.000 A 
ATOM     15  C   UNL     1       7.025   4.284  12.472  0.00  0.00    +0.000 A 
ATOM     16  C   UNL     1       5.888   3.560  12.807  0.00  0.00    +0.000 A 
ATOM     17  C   UNL     1       5.397   3.594  14.116  0.00  0.00    +0.000 A 
ENDBRANCH   5  12
BRANCH   1  18
ATOM     18  C   UNL     1       7.665   5.386  17.719  0.00  0.00    +0.000 C 
BRANCH  18  22
ATOM     19  C   UNL     1       8.381   8.808  18.374  0.00  0.00    +0.000 A 
ATOM     20  N   UNL     1       7.490   8.989  17.419  0.00  0.00    +0.000 NA
ATOM     21  N   UNL     1       7.098   7.742  16.984  0.00  0.00    +0.000 NA
ATOM     22  C   UNL     1       7.763   6.874  17.714  0.00  0.00    +0.000 A 
ATOM     23  O   UNL     1       8.630   7.476  18.601  0.00  0.00    +0.000 OA
BRANCH  19  24
ATOM     24  S   UNL     1       9.051  10.129  19.283  0.00  0.00    +0.000 S 
BRANCH  24  25
ATOM     25  C   UNL     1       9.757  11.190  17.998  0.00  0.00    +0.000 C 
BRANCH  25  30
ATOM     26  F   UNL     1      11.534  16.082  20.218  0.00  0.00    +0.000 F 
ATOM     27  C   UNL     1      11.118  14.923  19.690  0.00  0.00    +0.000 A 
ATOM     28  C   UNL     1      10.905  13.830  20.520  0.00  0.00    +0.000 A 
ATOM     29  C   UNL     1      10.471  12.620  19.970  0.00  0.00    +0.000 A 
ATOM     30  C   UNL     1      10.253  12.497  18.586  0.00  0.00    +0.000 A 
ATOM     31  C   UNL     1      10.466  13.622  17.769  0.00  0.00    +0.000 A 
ATOM     32  C   UNL     1      10.901  14.832  18.322  0.00  0.00    +0.000 A 
ENDBRANCH  25  30
ENDBRANCH  24  25
ENDBRANCH  19  24
ENDBRANCH  18  22
ENDBRANCH   1  18
TORSDOF 7
ENDMDL
MODEL 3
REMARK VINA RESULT:      -9.1      6.125      9.336
REMARK  Name = 
REMARK  7 active torsions:
REMARK  status: ('A' for Active; 'I' for Inactive)
REMARK    1  A    between atoms: C_5  and  C_6
REMARK    2  A    between atoms: C_6  and  S_7
REMARK    3  A    between atoms: S_7  and  C_8
REMARK    4  A    between atoms: C_11  and  C_12
REMARK    5  A    between atoms: C_12  and  C_13
REMARK    6  A    between atoms: C_15  and  C_16
REMARK    7  A    between atoms: C_23  and  C_24
REMARK                            x       y       z     vdW  Elec       q    Type
REMARK                         _______ _______ _______ _____ _____    ______ ____
ROOT
ATOM      1  C   UNL     1       4.203   5.936  17.689  0.00  0.00    +0.000 A 
ATOM      2  S   UNL     1       5.201   6.412  16.372  0.00  0.00    +0.000 S 
ATOM      3  C   UNL     1       5.161   4.829  15.718  0.00  0.00    +0.000 A 
ATOM      4  N   UNL     1       4.414   3.982  16.395  0.00  0.00    +0.000 NA
ATOM      5  C   UNL     1       3.854   4.596  17.517  0.00  0.00    +0.000 A 
ENDROOT
BRANCH   3   6
ATOM      6  C   UNL     1       5.866   4.537  14.455  0.00  0.00    +0.000 A 
ATOM      7  C   UNL     1       7.093   5.139  14.123  0.00  0.00    +0.000 A 
ATOM      8  C   UNL     1       7.707   4.899  12.886  0.00  0.00    +0.000 A 
ATOM      9  C   UNL     1       7.106   4.043  11.975  0.00  0.00    +0.000 A 
ATOM     10  C   UNL     1       5.905   3.413  12.296  0.00  0.00    +0.000 A 
ATOM     11  C   UNL     1       5.293   3.655  13.531  0.00  0.00    +0.000 A 
ENDBRANCH   3   6
BRANCH   5  12
ATOM     12  C   UNL     1       2.985   3.816  18.405  0.00  0.00    +0.000 A 
ATOM     13  C   UNL     1       1.679   3.496  18.003  0.00  0.00    +0.000 A 
ATOM     14  C   UNL     1       0.822   2.774  18.845  0.00  0.00    +0.000 A 
ATOM     15  C   UNL     1       1.265   2.355  20.098  0.00  0.00    +0.000 A 
ATOM     16  C   UNL     1       2.552   2.672  20.516  0.00  0.00    +0.000 A 
ATOM     17  C   UNL     1       3.395   3.414  19.684  0.00  0.00    +0.000 A 
ENDBRANCH   5  12
BRANCH   1  18
ATOM     18  C   UNL     1       3.857   6.910  18.791  0.00  0.00    +0.000 C 
BRANCH  18  22
ATOM     19  C   UNL     1       1.143   9.209  18.819  0.00  0.00    +0.000 A 
ATOM     20  N   UNL     1       1.399   9.246  17.525  0.00  0.00    +0.000 NA
ATOM     21  N   UNL     1       2.480   8.424  17.299  0.00  0.00    +0.000 NA
ATOM     22  C   UNL     1       2.809   7.921  18.469  0.00  0.00    +0.000 A 
ATOM     23  O   UNL     1       2.024   8.400  19.495  0.00  0.00    +0.000 OA
BRANCH  19  24
ATOM     24  S   UNL     1      -0.226  10.019  19.518  0.00  0.00    +0.000 S 
BRANCH  24  25
ATOM     25  C   UNL     1      -0.576  11.333  18.324  0.00  0.00    +0.000 C 
BRANCH  25  30
ATOM     26  F   UNL     1      -6.096  11.652  17.120  0.00  0.00    +0.000 F 
ATOM     27  C   UNL     1      -4.790  11.572  17.408  0.00  0.00    +0.000 A 
ATOM     28  C   UNL     1      -3.897  11.151  16.431  0.00  0.00    +0.000 A 
ATOM     29  C   UNL     1      -2.534  11.068  16.731  0.00  0.00    +0.000 A 
ATOM     30  C   UNL     1      -2.059  11.400  18.011  0.00  0.00    +0.000 A 
ATOM     31  C   UNL     1      -2.982  11.833  18.980  0.00  0.00    +0.000 A 
ATOM     32  C   UNL     1      -4.346  11.916  18.678  0.00  0.00    +0.000 A 
ENDBRANCH  25  30
ENDBRANCH  24  25
ENDBRANCH  19  24
ENDBRANCH  18  22
ENDBRANCH   1  18
TORSDOF 7
ENDMDL
MODEL 4
REMARK VINA RESULT:      -9.0      3.600      5.653
REMARK  Name = 
REMARK  7 active torsions:
REMARK  status: ('A' for Active; 'I' for Inactive)
REMARK    1  A    between atoms: C_5  and  C_6
REMARK    2  A    between atoms: C_6  and  S_7
REMARK    3  A    between atoms: S_7  and  C_8
REMARK    4  A    between atoms: C_11  and  C_12
REMARK    5  A    between atoms: C_12  and  C_13
REMARK    6  A    between atoms: C_15  and  C_16
REMARK    7  A    between atoms: C_23  and  C_24
REMARK                            x       y       z     vdW  Elec       q    Type
REMARK                         _______ _______ _______ _____ _____    ______ ____
ROOT
ATOM      1  C   UNL     1       3.165   6.560  17.966  0.00  0.00    +0.000 A 
ATOM      2  S   UNL     1       3.099   8.222  17.531  0.00  0.00    +0.000 S 
ATOM      3  C   UNL     1       1.843   8.509  18.660  0.00  0.00    +0.000 A 
ATOM      4  N   UNL     1       1.504   7.453  19.372  0.00  0.00    +0.000 NA
ATOM      5  C   UNL     1       2.251   6.336  18.996  0.00  0.00    +0.000 A 
ENDROOT
BRANCH   3   6
ATOM      6  C   UNL     1       1.293   9.869  18.820  0.00  0.00    +0.000 A 
ATOM      7  C   UNL     1       2.025  11.019  18.479  0.00  0.00    +0.000 A 
ATOM      8  C   UNL     1       1.506  12.302  18.707  0.00  0.00    +0.000 A 
ATOM      9  C   UNL     1       0.244  12.444  19.264  0.00  0.00    +0.000 A 
ATOM     10  C   UNL     1      -0.510  11.316  19.582  0.00  0.00    +0.000 A 
ATOM     11  C   UNL     1       0.010  10.037  19.355  0.00  0.00    +0.000 A 
ENDBRANCH   3   6
BRANCH   5  12
ATOM     12  C   UNL     1       2.021   5.056  19.675  0.00  0.00    +0.000 A 
ATOM     13  C   UNL     1       1.388   4.005  18.993  0.00  0.00    +0.000 A 
ATOM     14  C   UNL     1       1.134   2.783  19.629  0.00  0.00    +0.000 A 
ATOM     15  C   UNL     1       1.519   2.593  20.955  0.00  0.00    +0.000 A 
ATOM     16  C   UNL     1       2.138   3.626  21.648  0.00  0.00    +0.000 A 
ATOM     17  C   UNL     1       2.366   4.852  21.018  0.00  0.00    +0.000 A 
ENDBRANCH   5  12
BRANCH   1  18
ATOM     18  C   UNL     1       4.097   5.608  17.252  0.00  0.00    +0.000 C 
BRANCH  18  22
ATOM     19  C   UNL     1       7.357   6.963  17.691  0.00  0.00    +0.000 A 
ATOM     20  N   UNL     1       7.462   6.649  16.414  0.00  0.00    +0.000 NA
ATOM     21  N   UNL     1       6.277   6.054  16.041  0.00  0.00    +0.000 NA
ATOM     22  C   UNL     1       5.513   6.057  17.111  0.00  0.00    +0.000 A 
ATOM     23  O   UNL     1       6.143   6.589  18.215  0.00  0.00    +0.000 OA
BRANCH  19  24
ATOM     24  S   UNL     1       8.594   7.844  18.535  0.00  0.00    +0.000 S 
BRANCH  24  25
ATOM     25  C   UNL     1       8.215   9.567  18.129  0.00  0.00    +0.000 C 
BRANCH  25  30
ATOM     26  F   UNL     1      12.174  13.095  20.104  0.00  0.00    +0.000 F 
ATOM     27  C   UNL     1      11.240  12.256  19.636  0.00  0.00    +0.000 A 
ATOM     28  C   UNL     1      10.328  11.686  20.515  0.00  0.00    +0.000 A 
ATOM     29  C   UNL     1       9.354  10.810  20.027  0.00  0.00    +0.000 A 
ATOM     30  C   UNL     1       9.291  10.497  18.658  0.00  0.00    +0.000 A 
ATOM     31  C   UNL     1      10.219  11.096  17.787  0.00  0.00    +0.000 A 
ATOM     32  C   UNL     1      11.194  11.972  18.277  0.00  0.00    +0.000 A 
ENDBRANCH  25  30
ENDBRANCH  24  25
ENDBRANCH  19  24
ENDBRANCH  18  22
ENDBRANCH   1  18
TORSDOF 7
ENDMDL
MODEL 5
REMARK VINA RESULT:      -8.8      6.127      9.393
REMARK  Name = 
REMARK  7 active torsions:
REMARK  status: ('A' for Active; 'I' for Inactive)
REMARK    1  A    between atoms: C_5  and  C_6
REMARK    2  A    between atoms: C_6  and  S_7
REMARK    3  A    between atoms: S_7  and  C_8
REMARK    4  A    between atoms: C_11  and  C_12
REMARK    5  A    between atoms: C_12  and  C_13
REMARK    6  A    between atoms: C_15  and  C_16
REMARK    7  A    between atoms: C_23  and  C_24
REMARK                            x       y       z     vdW  Elec       q    Type
REMARK                         _______ _______ _______ _____ _____    ______ ____
ROOT
ATOM      1  C   UNL     1       4.233   5.926  17.560  0.00  0.00    +0.000 A 
ATOM      2  S   UNL     1       5.244   6.395  16.250  0.00  0.00    +0.000 S 
ATOM      3  C   UNL     1       5.107   4.844  15.536  0.00  0.00    +0.000 A 
ATOM      4  N   UNL     1       4.318   4.015  16.189  0.00  0.00    +0.000 NA
ATOM      5  C   UNL     1       3.805   4.616  17.340  0.00  0.00    +0.000 A 
ENDROOT
BRANCH   3   6
ATOM      6  C   UNL     1       5.782   4.562  14.255  0.00  0.00    +0.000 A 
ATOM      7  C   UNL     1       5.230   3.705  13.288  0.00  0.00    +0.000 A 
ATOM      8  C   UNL     1       5.925   3.397  12.110  0.00  0.00    +0.000 A 
ATOM      9  C   UNL     1       7.174   3.956  11.883  0.00  0.00    +0.000 A 
ATOM     10  C   UNL     1       7.727   4.832  12.816  0.00  0.00    +0.000 A 
ATOM     11  C   UNL     1       7.032   5.136  13.991  0.00  0.00    +0.000 A 
ENDBRANCH   3   6
BRANCH   5  12
ATOM     12  C   UNL     1       2.901   3.853  18.207  0.00  0.00    +0.000 A 
ATOM     13  C   UNL     1       3.426   3.017  19.205  0.00  0.00    +0.000 A 
ATOM     14  C   UNL     1       2.582   2.258  20.027  0.00  0.00    +0.000 A 
ATOM     15  C   UNL     1       1.199   2.333  19.867  0.00  0.00    +0.000 A 
ATOM     16  C   UNL     1       0.663   3.148  18.877  0.00  0.00    +0.000 A 
ATOM     17  C   UNL     1       1.509   3.883  18.042  0.00  0.00    +0.000 A 
ENDBRANCH   5  12
BRANCH   1  18
ATOM     18  C   UNL     1       3.953   6.874  18.703  0.00  0.00    +0.000 C 
BRANCH  18  22
ATOM     19  C   UNL     1       1.233   9.153  18.948  0.00  0.00    +0.000 A 
ATOM     20  N   UNL     1       1.417   9.231  17.644  0.00  0.00    +0.000 NA
ATOM     21  N   UNL     1       2.489   8.423  17.335  0.00  0.00    +0.000 NA
ATOM     22  C   UNL     1       2.884   7.887  18.469  0.00  0.00    +0.000 A 
ATOM     23  O   UNL     1       2.154   8.331  19.550  0.00  0.00    +0.000 OA
BRANCH  19  24
ATOM     24  S   UNL     1      -0.099   9.933  19.746  0.00  0.00    +0.000 S 
BRANCH  24  25
ATOM     25  C   UNL     1      -0.555  11.246  18.588  0.00  0.00    +0.000 C 
BRANCH  25  30
ATOM     26  F   UNL     1      -6.098  11.202  17.448  0.00  0.00    +0.000 F 
ATOM     27  C   UNL     1      -4.786  11.209  17.722  0.00  0.00    +0.000 A 
ATOM     28  C   UNL     1      -3.920  10.449  16.948  0.00  0.00    +0.000 A 
ATOM     29  C   UNL     1      -2.551  10.456  17.234  0.00  0.00    +0.000 A 
ATOM     30  C   UNL     1      -2.044  11.221  18.298  0.00  0.00    +0.000 A 
ATOM     31  C   UNL     1      -2.941  11.991  19.061  0.00  0.00    +0.000 A 
ATOM     32  C   UNL     1      -4.310  11.982  18.773  0.00  0.00    +0.000 A 
ENDBRANCH  25  30
ENDBRANCH  24  25
ENDBRANCH  19  24
ENDBRANCH  18  22
ENDBRANCH   1  18
TORSDOF 7
ENDMDL
MODEL 6
REMARK VINA RESULT:      -8.7      4.716      7.266
REMARK  Name = 
REMARK  7 active torsions:
REMARK  status: ('A' for Active; 'I' for Inactive)
REMARK    1  A    between atoms: C_5  and  C_6
REMARK    2  A    between atoms: C_6  and  S_7
REMARK    3  A    between atoms: S_7  and  C_8
REMARK    4  A    between atoms: C_11  and  C_12
REMARK    5  A    between atoms: C_12  and  C_13
REMARK    6  A    between atoms: C_15  and  C_16
REMARK    7  A    between atoms: C_23  and  C_24
REMARK                            x       y       z     vdW  Elec       q    Type
REMARK                         _______ _______ _______ _____ _____    ______ ____
ROOT
ATOM      1  C   UNL     1       4.127   5.942  17.743  0.00  0.00    +0.000 A 
ATOM      2  S   UNL     1       5.134   6.430  16.437  0.00  0.00    +0.000 S 
ATOM      3  C   UNL     1       5.121   4.846  15.783  0.00  0.00    +0.000 A 
ATOM      4  N   UNL     1       4.376   3.991  16.452  0.00  0.00    +0.000 NA
ATOM      5  C   UNL     1       3.796   4.598  17.568  0.00  0.00    +0.000 A 
ENDROOT
BRANCH   3   6
ATOM      6  C   UNL     1       5.844   4.563  14.529  0.00  0.00    +0.000 A 
ATOM      7  C   UNL     1       7.093   5.137  14.236  0.00  0.00    +0.000 A 
ATOM      8  C   UNL     1       7.726   4.908  13.006  0.00  0.00    +0.000 A 
ATOM      9  C   UNL     1       7.121   4.088  12.064  0.00  0.00    +0.000 A 
ATOM     10  C   UNL     1       5.897   3.485  12.346  0.00  0.00    +0.000 A 
ATOM     11  C   UNL     1       5.266   3.717  13.574  0.00  0.00    +0.000 A 
ENDBRANCH   3   6
BRANCH   5  12
ATOM     12  C   UNL     1       2.926   3.807  18.445  0.00  0.00    +0.000 A 
ATOM     13  C   UNL     1       1.633   3.461  18.023  0.00  0.00    +0.000 A 
ATOM     14  C   UNL     1       0.775   2.729  18.855  0.00  0.00    +0.000 A 
ATOM     15  C   UNL     1       1.204   2.326  20.119  0.00  0.00    +0.000 A 
ATOM     16  C   UNL     1       2.478   2.670  20.556  0.00  0.00    +0.000 A 
ATOM     17  C   UNL     1       3.320   3.422  19.734  0.00  0.00    +0.000 A 
ENDBRANCH   5  12
BRANCH   1  18
ATOM     18  C   UNL     1       3.756   6.912  18.841  0.00  0.00    +0.000 C 
BRANCH  18  22
ATOM     19  C   UNL     1       1.117   9.297  18.780  0.00  0.00    +0.000 A 
ATOM     20  N   UNL     1       1.412   9.320  17.495  0.00  0.00    +0.000 NA
ATOM     21  N   UNL     1       2.473   8.463  17.304  0.00  0.00    +0.000 NA
ATOM     22  C   UNL     1       2.751   7.954  18.484  0.00  0.00    +0.000 A 
ATOM     23  O   UNL     1       1.952   8.463  19.485  0.00  0.00    +0.000 OA
BRANCH  19  24
ATOM     24  S   UNL     1      -0.245  10.153  19.437  0.00  0.00    +0.000 S 
BRANCH  24  25
ATOM     25  C   UNL     1      -0.188  11.737  18.564  0.00  0.00    +0.000 C 
BRANCH  25  30
ATOM     26  F   UNL     1       4.232  14.798  20.332  0.00  0.00    +0.000 F 
ATOM     27  C   UNL     1       3.182  14.078  19.914  0.00  0.00    +0.000 A 
ATOM     28  C   UNL     1       3.080  13.729  18.573  0.00  0.00    +0.000 A 
ATOM     29  C   UNL     1       1.985  12.978  18.136  0.00  0.00    +0.000 A 
ATOM     30  C   UNL     1       0.985  12.575  19.038  0.00  0.00    +0.000 A 
ATOM     31  C   UNL     1       1.116  12.931  20.393  0.00  0.00    +0.000 A 
ATOM     32  C   UNL     1       2.214  13.684  20.828  0.00  0.00    +0.000 A 
ENDBRANCH  25  30
ENDBRANCH  24  25
ENDBRANCH  19  24
ENDBRANCH  18  22
ENDBRANCH   1  18
TORSDOF 7
ENDMDL
MODEL 7
REMARK VINA RESULT:      -8.7      4.706      7.324
REMARK  Name = 
REMARK  7 active torsions:
REMARK  status: ('A' for Active; 'I' for Inactive)
REMARK    1  A    between atoms: C_5  and  C_6
REMARK    2  A    between atoms: C_6  and  S_7
REMARK    3  A    between atoms: S_7  and  C_8
REMARK    4  A    between atoms: C_11  and  C_12
REMARK    5  A    between atoms: C_12  and  C_13
REMARK    6  A    between atoms: C_15  and  C_16
REMARK    7  A    between atoms: C_23  and  C_24
REMARK                            x       y       z     vdW  Elec       q    Type
REMARK                         _______ _______ _______ _____ _____    ______ ____
ROOT
ATOM      1  C   UNL     1       4.121   5.957  17.737  0.00  0.00    +0.000 A 
ATOM      2  S   UNL     1       5.146   6.441  16.443  0.00  0.00    +0.000 S 
ATOM      3  C   UNL     1       5.123   4.862  15.780  0.00  0.00    +0.000 A 
ATOM      4  N   UNL     1       4.362   4.011  16.438  0.00  0.00    +0.000 NA
ATOM      5  C   UNL     1       3.777   4.618  17.551  0.00  0.00    +0.000 A 
ENDROOT
BRANCH   3   6
ATOM      6  C   UNL     1       5.855   4.577  14.532  0.00  0.00    +0.000 A 
ATOM      7  C   UNL     1       7.077   5.198  14.220  0.00  0.00    +0.000 A 
ATOM      8  C   UNL     1       7.717   4.964  12.994  0.00  0.00    +0.000 A 
ATOM      9  C   UNL     1       7.147   4.094  12.076  0.00  0.00    +0.000 A 
ATOM     10  C   UNL     1       5.951   3.446  12.378  0.00  0.00    +0.000 A 
ATOM     11  C   UNL     1       5.313   3.682  13.601  0.00  0.00    +0.000 A 
ENDBRANCH   3   6
BRANCH   5  12
ATOM     12  C   UNL     1       2.891   3.832  18.415  0.00  0.00    +0.000 A 
ATOM     13  C   UNL     1       3.334   3.418  19.682  0.00  0.00    +0.000 A 
ATOM     14  C   UNL     1       2.514   2.644  20.514  0.00  0.00    +0.000 A 
ATOM     15  C   UNL     1       1.235   2.282  20.093  0.00  0.00    +0.000 A 
ATOM     16  C   UNL     1       0.785   2.675  18.839  0.00  0.00    +0.000 A 
ATOM     17  C   UNL     1       1.616   3.425  18.001  0.00  0.00    +0.000 A 
ENDBRANCH   5  12
BRANCH   1  18
ATOM     18  C   UNL     1       3.750   6.926  18.836  0.00  0.00    +0.000 C 
BRANCH  18  22
ATOM     19  C   UNL     1       1.116   9.315  18.783  0.00  0.00    +0.000 A 
ATOM     20  N   UNL     1       1.399   9.329  17.495  0.00  0.00    +0.000 NA
ATOM     21  N   UNL     1       2.456   8.468  17.300  0.00  0.00    +0.000 NA
ATOM     22  C   UNL     1       2.744   7.967  18.481  0.00  0.00    +0.000 A 
ATOM     23  O   UNL     1       1.955   8.485  19.486  0.00  0.00    +0.000 OA
BRANCH  19  24
ATOM     24  S   UNL     1      -0.239  10.179  19.446  0.00  0.00    +0.000 S 
BRANCH  24  25
ATOM     25  C   UNL     1      -0.160  11.774  18.595  0.00  0.00    +0.000 C 
BRANCH  25  30
ATOM     26  F   UNL     1       4.306  14.808  20.290  0.00  0.00    +0.000 F 
ATOM     27  C   UNL     1       3.252  14.086  19.888  0.00  0.00    +0.000 A 
ATOM     28  C   UNL     1       2.335  13.631  20.826  0.00  0.00    +0.000 A 
ATOM     29  C   UNL     1       1.235  12.877  20.407  0.00  0.00    +0.000 A 
ATOM     30  C   UNL     1       1.050  12.570  19.048  0.00  0.00    +0.000 A 
ATOM     31  C   UNL     1       1.987  13.051  18.116  0.00  0.00    +0.000 A 
ATOM     32  C   UNL     1       3.088  13.806  18.537  0.00  0.00    +0.000 A 
ENDBRANCH  25  30
ENDBRANCH  24  25
ENDBRANCH  19  24
ENDBRANCH  18  22
ENDBRANCH   1  18
TORSDOF 7
ENDMDL
MODEL 8
REMARK VINA RESULT:      -8.7      6.073      9.197
REMARK  Name = 
REMARK  7 active torsions:
REMARK  status: ('A' for Active; 'I' for Inactive)
REMARK    1  A    between atoms: C_5  and  C_6
REMARK    2  A    between atoms: C_6  and  S_7
REMARK    3  A    between atoms: S_7  and  C_8
REMARK    4  A    between atoms: C_11  and  C_12
REMARK    5  A    between atoms: C_12  and  C_13
REMARK    6  A    between atoms: C_15  and  C_16
REMARK    7  A    between atoms: C_23  and  C_24
REMARK                            x       y       z     vdW  Elec       q    Type
REMARK                         _______ _______ _______ _____ _____    ______ ____
ROOT
ATOM      1  C   UNL     1       3.950   5.900  17.744  0.00  0.00    +0.000 A 
ATOM      2  S   UNL     1       4.952   6.432  16.451  0.00  0.00    +0.000 S 
ATOM      3  C   UNL     1       5.005   4.853  15.789  0.00  0.00    +0.000 A 
ATOM      4  N   UNL     1       4.286   3.966  16.446  0.00  0.00    +0.000 NA
ATOM      5  C   UNL     1       3.671   4.545  17.558  0.00  0.00    +0.000 A 
ENDROOT
BRANCH   3   6
ATOM      6  C   UNL     1       5.753   4.603  14.542  0.00  0.00    +0.000 A 
ATOM      7  C   UNL     1       5.269   3.750  13.535  0.00  0.00    +0.000 A 
ATOM      8  C   UNL     1       6.031   3.474  12.391  0.00  0.00    +0.000 A 
ATOM      9  C   UNL     1       7.279   4.060  12.238  0.00  0.00    +0.000 A 
ATOM     10  C   UNL     1       7.764   4.932  13.211  0.00  0.00    +0.000 A 
ATOM     11  C   UNL     1       7.003   5.205  14.352  0.00  0.00    +0.000 A 
ENDBRANCH   3   6
BRANCH   5  12
ATOM     12  C   UNL     1       2.822   3.718  18.422  0.00  0.00    +0.000 A 
ATOM     13  C   UNL     1       1.498   3.442  18.046  0.00  0.00    +0.000 A 
ATOM     14  C   UNL     1       0.660   2.677  18.869  0.00  0.00    +0.000 A 
ATOM     15  C   UNL     1       1.140   2.169  20.075  0.00  0.00    +0.000 A 
ATOM     16  C   UNL     1       2.445   2.442  20.467  0.00  0.00    +0.000 A 
ATOM     17  C   UNL     1       3.269   3.228  19.656  0.00  0.00    +0.000 A 
ENDBRANCH   5  12
BRANCH   1  18
ATOM     18  C   UNL     1       3.531   6.850  18.842  0.00  0.00    +0.000 C 
BRANCH  18  22
ATOM     19  C   UNL     1       1.551   9.797  18.625  0.00  0.00    +0.000 A 
ATOM     20  N   UNL     1       1.696   9.581  17.332  0.00  0.00    +0.000 NA
ATOM     21  N   UNL     1       2.492   8.465  17.191  0.00  0.00    +0.000 NA
ATOM     22  C   UNL     1       2.771   8.058  18.410  0.00  0.00    +0.000 A 
ATOM     23  O   UNL     1       2.236   8.877  19.381  0.00  0.00    +0.000 OA
BRANCH  19  24
ATOM     24  S   UNL     1       0.517  11.047  19.248  0.00  0.00    +0.000 S 
BRANCH  24  25
ATOM     25  C   UNL     1      -1.051  10.184  19.511  0.00  0.00    +0.000 C 
BRANCH  25  30
ATOM     26  F   UNL     1      -4.504  11.035  15.109  0.00  0.00    +0.000 F 
ATOM     27  C   UNL     1      -3.691  10.830  16.153  0.00  0.00    +0.000 A 
ATOM     28  C   UNL     1      -2.605   9.974  16.019  0.00  0.00    +0.000 A 
ATOM     29  C   UNL     1      -1.756   9.760  17.109  0.00  0.00    +0.000 A 
ATOM     30  C   UNL     1      -1.991  10.399  18.339  0.00  0.00    +0.000 A 
ATOM     31  C   UNL     1      -3.091  11.269  18.446  0.00  0.00    +0.000 A 
ATOM     32  C   UNL     1      -3.940  11.482  17.354  0.00  0.00    +0.000 A 
ENDBRANCH  25  30
ENDBRANCH  24  25
ENDBRANCH  19  24
ENDBRANCH  18  22
ENDBRANCH   1  18
TORSDOF 7
ENDMDL
MODEL 9
REMARK VINA RESULT:      -8.7      5.113      7.566
REMARK  Name = 
REMARK  7 active torsions:
REMARK  status: ('A' for Active; 'I' for Inactive)
REMARK    1  A    between atoms: C_5  and  C_6
REMARK    2  A    between atoms: C_6  and  S_7
REMARK    3  A    between atoms: S_7  and  C_8
REMARK    4  A    between atoms: C_11  and  C_12
REMARK    5  A    between atoms: C_12  and  C_13
REMARK    6  A    between atoms: C_15  and  C_16
REMARK    7  A    between atoms: C_23  and  C_24
REMARK                            x       y       z     vdW  Elec       q    Type
REMARK                         _______ _______ _______ _____ _____    ______ ____
ROOT
ATOM      1  C   UNL     1       4.137   5.903  17.723  0.00  0.00    +0.000 A 
ATOM      2  S   UNL     1       5.138   6.404  16.418  0.00  0.00    +0.000 S 
ATOM      3  C   UNL     1       5.142   4.822  15.761  0.00  0.00    +0.000 A 
ATOM      4  N   UNL     1       4.407   3.957  16.429  0.00  0.00    +0.000 NA
ATOM      5  C   UNL     1       3.821   4.555  17.546  0.00  0.00    +0.000 A 
ENDROOT
BRANCH   3   6
ATOM      6  C   UNL     1       5.868   4.548  14.506  0.00  0.00    +0.000 A 
ATOM      7  C   UNL     1       7.092   5.166  14.197  0.00  0.00    +0.000 A 
ATOM      8  C   UNL     1       7.726   4.943  12.966  0.00  0.00    +0.000 A 
ATOM      9  C   UNL     1       7.147   4.088  12.039  0.00  0.00    +0.000 A 
ATOM     10  C   UNL     1       5.949   3.442  12.338  0.00  0.00    +0.000 A 
ATOM     11  C   UNL     1       5.317   3.668  13.567  0.00  0.00    +0.000 A 
ENDBRANCH   3   6
BRANCH   5  12
ATOM     12  C   UNL     1       2.961   3.754  18.423  0.00  0.00    +0.000 A 
ATOM     13  C   UNL     1       1.664   3.411  18.009  0.00  0.00    +0.000 A 
ATOM     14  C   UNL     1       0.815   2.668  18.841  0.00  0.00    +0.000 A 
ATOM     15  C   UNL     1       1.257   2.252  20.096  0.00  0.00    +0.000 A 
ATOM     16  C   UNL     1       2.534   2.592  20.525  0.00  0.00    +0.000 A 
ATOM     17  C   UNL     1       3.368   3.355  19.703  0.00  0.00    +0.000 A 
ENDBRANCH   5  12
BRANCH   1  18
ATOM     18  C   UNL     1       3.756   6.867  18.823  0.00  0.00    +0.000 C 
BRANCH  18  22
ATOM     19  C   UNL     1       1.171   9.308  18.713  0.00  0.00    +0.000 A 
ATOM     20  N   UNL     1       1.515   9.351  17.441  0.00  0.00    +0.000 NA
ATOM     21  N   UNL     1       2.565   8.476  17.272  0.00  0.00    +0.000 NA
ATOM     22  C   UNL     1       2.787   7.937  18.451  0.00  0.00    +0.000 A 
ATOM     23  O   UNL     1       1.961   8.443  19.431  0.00  0.00    +0.000 OA
BRANCH  19  24
ATOM     24  S   UNL     1      -0.198  10.178  19.336  0.00  0.00    +0.000 S 
BRANCH  24  25
ATOM     25  C   UNL     1       0.548  11.299  20.545  0.00  0.00    +0.000 C 
BRANCH  25  30
ATOM     26  F   UNL     1       1.668  16.296  18.137  0.00  0.00    +0.000 F 
ATOM     27  C   UNL     1       1.406  15.115  18.712  0.00  0.00    +0.000 A 
ATOM     28  C   UNL     1       0.138  14.866  19.221  0.00  0.00    +0.000 A 
ATOM     29  C   UNL     1      -0.136  13.634  19.820  0.00  0.00    +0.000 A 
ATOM     30  C   UNL     1       0.859  12.645  19.917  0.00  0.00    +0.000 A 
ATOM     31  C   UNL     1       2.131  12.917  19.384  0.00  0.00    +0.000 A 
ATOM     32  C   UNL     1       2.404  14.152  18.785  0.00  0.00    +0.000 A 
ENDBRANCH  25  30
ENDBRANCH  24  25
ENDBRANCH  19  24
ENDBRANCH  18  22
ENDBRANCH   1  18
TORSDOF 7
ENDMDL
