MODEL 1
REMARK VINA RESULT:     -10.0      0.000      0.000
REMARK  Name = 
REMARK  7 active torsions:
REMARK  status: ('A' for Active; 'I' for Inactive)
REMARK    1  A    between atoms: C_1  and  C_2
REMARK    2  A    between atoms: C_3  and  C_4
REMARK    3  A    between atoms: C_5  and  C_6
REMARK    4  A    between atoms: C_9  and  C_10
REMARK    5  A    between atoms: C_15  and  C_16
REMARK    6  A    between atoms: C_24  and  C_25
REMARK    7  A    between atoms: C_29  and  N_30
REMARK                            x       y       z     vdW  Elec       q    Type
REMARK                         _______ _______ _______ _____ _____    ______ ____
ROOT
ATOM      1  C   UNL     1       2.329   6.528  18.248  0.00  0.00    +0.000 C 
ATOM      2  C   UNL     1       2.526   7.309  19.327  0.00  0.00    +0.000 C 
ENDROOT
BRANCH   1   5
ATOM      3  C   UNL     1       4.576   6.999  16.269  0.00  0.00    +0.000 C 
ATOM      4  C   UNL     1       4.653   6.065  17.488  0.00  0.00    +0.000 C 
ATOM      5  C   UNL     1       3.274   5.435  17.801  0.00  0.00    +0.000 C 
ATOM      6  C   UNL     1       3.442   4.421  18.939  0.00  0.00    +0.000 C 
ATOM      7  C   UNL     1       2.243   3.744  19.564  0.00  0.00    +0.000 C 
ATOM      8  C   UNL     1       1.116   3.288  18.650  0.00  0.00    +0.000 C 
ATOM      9  O   UNL     1       2.830   2.667  20.320  0.00  0.00    +0.000 OA
ATOM     10  C   UNL     1       4.177   2.554  20.041  0.00  0.00    +0.000 C 
ATOM     11  O   UNL     1       4.939   1.803  20.640  0.00  0.00    +0.000 OA
ATOM     12  C   UNL     1       4.503   3.325  18.754  0.00  0.00    +0.000 C 
ATOM     13  C   UNL     1       5.832   4.073  18.579  0.00  0.00    +0.000 C 
ATOM     14  C   UNL     1       5.726   4.988  17.340  0.00  0.00    +0.000 C 
ATOM     15  F   UNL     1       5.455   4.235  16.235  0.00  0.00    +0.000 F 
ATOM     16  F   UNL     1       6.929   5.563  17.110  0.00  0.00    +0.000 F 
BRANCH  12  17
ATOM     17  N   UNL     1       4.427   2.297  17.689  0.00  0.00    +0.000 NA
ATOM     18  H   UNL     1       4.505   2.727  16.759  0.00  0.00    +0.000 HD
ATOM     19  H   UNL     1       5.315   1.764  17.748  0.00  0.00    +0.000 HD
ENDBRANCH  12  17
ENDBRANCH   1   5
BRANCH   2  20
ATOM     20  C   UNL     1       1.592   8.391  19.698  0.00  0.00    +0.000 A 
ATOM     21  C   UNL     1       0.914   8.353  20.905  0.00  0.00    +0.000 A 
ATOM     22  C   UNL     1       0.038   9.395  21.213  0.00  0.00    +0.000 A 
ATOM     23  C   UNL     1      -0.157  10.465  20.313  0.00  0.00    +0.000 A 
ATOM     24  C   UNL     1       0.624  10.404  19.165  0.00  0.00    +0.000 A 
ATOM     25  N   UNL     1       1.466   9.388  18.829  0.00  0.00    +0.000 NA
BRANCH  23  26
ATOM     26  C   UNL     1      -1.082  11.594  20.629  0.00  0.00    +0.000 A 
ATOM     27  C   UNL     1      -0.890  12.313  21.836  0.00  0.00    +0.000 A 
ATOM     28  C   UNL     1      -1.692  13.395  22.203  0.00  0.00    +0.000 A 
ATOM     29  C   UNL     1      -2.718  13.807  21.370  0.00  0.00    +0.000 A 
ATOM     30  C   UNL     1      -2.936  13.135  20.170  0.00  0.00    +0.000 A 
ATOM     31  C   UNL     1      -2.139  12.039  19.772  0.00  0.00    +0.000 A 
BRANCH  31  32
ATOM     32  C   UNL     1      -2.436  11.426  18.477  0.00  0.00    +0.000 A 
ATOM     33  N   UNL     1      -2.980  10.255  18.210  0.00  0.00    +0.000 NA
ATOM     34  N   UNL     1      -2.830  10.045  16.860  0.00  0.00    +0.000 NA
ATOM     35  N   UNL     1      -2.271  11.096  16.279  0.00  0.00    +0.000 NA
ATOM     36  N   UNL     1      -2.071  11.972  17.271  0.00  0.00    +0.000 N 
ATOM     37  H   UNL     1      -1.645  12.866  17.067  0.00  0.00    +0.000 HD
ENDBRANCH  31  32
ENDBRANCH  23  26
ENDBRANCH   2  20
TORSDOF 5
ENDMDL
MODEL 2
REMARK VINA RESULT:      -9.6      2.550      3.412
REMARK  Name = 
REMARK  7 active torsions:
REMARK  status: ('A' for Active; 'I' for Inactive)
REMARK    1  A    between atoms: C_1  and  C_2
REMARK    2  A    between atoms: C_3  and  C_4
REMARK    3  A    between atoms: C_5  and  C_6
REMARK    4  A    between atoms: C_9  and  C_10
REMARK    5  A    between atoms: C_15  and  C_16
REMARK    6  A    between atoms: C_24  and  C_25
REMARK    7  A    between atoms: C_29  and  N_30
REMARK                            x       y       z     vdW  Elec       q    Type
REMARK                         _______ _______ _______ _____ _____    ______ ____
ROOT
ATOM      1  C   UNL     1       2.657   6.444  19.498  0.00  0.00    +0.000 C 
ATOM      2  C   UNL     1       2.204   7.229  18.503  0.00  0.00    +0.000 C 
ENDROOT
BRANCH   1   5
ATOM      3  C   UNL     1       0.721   4.279  20.364  0.00  0.00    +0.000 C 
ATOM      4  C   UNL     1       1.625   4.211  19.122  0.00  0.00    +0.000 C 
ATOM      5  C   UNL     1       2.955   4.968  19.353  0.00  0.00    +0.000 C 
ATOM      6  C   UNL     1       3.861   4.756  18.135  0.00  0.00    +0.000 C 
ATOM      7  C   UNL     1       5.177   5.491  18.004  0.00  0.00    +0.000 C 
ATOM      8  C   UNL     1       6.039   5.650  19.247  0.00  0.00    +0.000 C 
ATOM      9  O   UNL     1       5.843   4.785  16.939  0.00  0.00    +0.000 OA
ATOM     10  C   UNL     1       5.143   3.646  16.597  0.00  0.00    +0.000 C 
ATOM     11  O   UNL     1       5.421   2.934  15.638  0.00  0.00    +0.000 OA
ATOM     12  C   UNL     1       4.137   3.307  17.706  0.00  0.00    +0.000 C 
ATOM     13  C   UNL     1       2.759   2.710  17.387  0.00  0.00    +0.000 C 
ATOM     14  C   UNL     1       1.883   2.779  18.658  0.00  0.00    +0.000 C 
ATOM     15  F   UNL     1       2.482   2.083  19.666  0.00  0.00    +0.000 F 
ATOM     16  F   UNL     1       0.709   2.151  18.421  0.00  0.00    +0.000 F 
BRANCH  12  17
ATOM     17  N   UNL     1       4.857   2.333  18.559  0.00  0.00    +0.000 NA
ATOM     18  H   UNL     1       4.481   2.337  19.516  0.00  0.00    +0.000 HD
ATOM     19  H   UNL     1       4.568   1.395  18.225  0.00  0.00    +0.000 HD
ENDBRANCH  12  17
ENDBRANCH   1   5
BRANCH   2  20
ATOM     20  C   UNL     1       1.888   8.657  18.706  0.00  0.00    +0.000 A 
ATOM     21  C   UNL     1       1.240   9.078  19.855  0.00  0.00    +0.000 A 
ATOM     22  C   UNL     1       0.958  10.437  20.005  0.00  0.00    +0.000 A 
ATOM     23  C   UNL     1       1.321  11.365  19.005  0.00  0.00    +0.000 A 
ATOM     24  C   UNL     1       2.011  10.815  17.931  0.00  0.00    +0.000 A 
ATOM     25  N   UNL     1       2.277   9.491  17.749  0.00  0.00    +0.000 NA
BRANCH  23  26
ATOM     26  C   UNL     1       1.038  12.823  19.150  0.00  0.00    +0.000 A 
ATOM     27  C   UNL     1       2.099  13.690  19.517  0.00  0.00    +0.000 A 
ATOM     28  C   UNL     1       1.931  15.068  19.655  0.00  0.00    +0.000 A 
ATOM     29  C   UNL     1       0.691  15.639  19.425  0.00  0.00    +0.000 A 
ATOM     30  C   UNL     1      -0.377  14.826  19.053  0.00  0.00    +0.000 A 
ATOM     31  C   UNL     1      -0.236  13.429  18.902  0.00  0.00    +0.000 A 
BRANCH  31  32
ATOM     32  C   UNL     1      -1.416  12.675  18.478  0.00  0.00    +0.000 A 
ATOM     33  N   UNL     1      -2.402  12.186  19.203  0.00  0.00    +0.000 NA
ATOM     34  N   UNL     1      -3.135  11.367  18.378  0.00  0.00    +0.000 NA
ATOM     35  N   UNL     1      -2.664  11.402  17.140  0.00  0.00    +0.000 NA
ATOM     36  N   UNL     1      -1.629  12.249  17.190  0.00  0.00    +0.000 N 
ATOM     37  H   UNL     1      -1.100  12.437  16.350  0.00  0.00    +0.000 HD
ENDBRANCH  31  32
ENDBRANCH  23  26
ENDBRANCH   2  20
TORSDOF 5
ENDMDL
MODEL 3
REMARK VINA RESULT:      -9.4      2.187      2.653
REMARK  Name = 
REMARK  7 active torsions:
REMARK  status: ('A' for Active; 'I' for Inactive)
REMARK    1  A    between atoms: C_1  and  C_2
REMARK    2  A    between atoms: C_3  and  C_4
REMARK    3  A    between atoms: C_5  and  C_6
REMARK    4  A    between atoms: C_9  and  C_10
REMARK    5  A    between atoms: C_15  and  C_16
REMARK    6  A    between atoms: C_24  and  C_25
REMARK    7  A    between atoms: C_29  and  N_30
REMARK                            x       y       z     vdW  Elec       q    Type
REMARK                         _______ _______ _______ _____ _____    ______ ____
ROOT
ATOM      1  C   UNL     1       2.506   6.746  18.565  0.00  0.00    +0.000 C 
ATOM      2  C   UNL     1       2.353   6.993  19.879  0.00  0.00    +0.000 C 
ENDROOT
BRANCH   1   5
ATOM      3  C   UNL     1       4.521   7.046  16.321  0.00  0.00    +0.000 C 
ATOM      4  C   UNL     1       4.666   6.091  17.518  0.00  0.00    +0.000 C 
ATOM      5  C   UNL     1       3.286   5.580  17.999  0.00  0.00    +0.000 C 
ATOM      6  C   UNL     1       3.503   4.539  19.103  0.00  0.00    +0.000 C 
ATOM      7  C   UNL     1       2.335   3.961  19.872  0.00  0.00    +0.000 C 
ATOM      8  C   UNL     1       1.068   3.620  19.104  0.00  0.00    +0.000 C 
ATOM      9  O   UNL     1       2.914   2.826  20.544  0.00  0.00    +0.000 OA
ATOM     10  C   UNL     1       4.200   2.599  20.099  0.00  0.00    +0.000 C 
ATOM     11  O   UNL     1       4.961   1.775  20.595  0.00  0.00    +0.000 OA
ATOM     12  C   UNL     1       4.431   3.356  18.783  0.00  0.00    +0.000 C 
ATOM     13  C   UNL     1       5.789   3.987  18.446  0.00  0.00    +0.000 C 
ATOM     14  C   UNL     1       5.612   4.926  17.233  0.00  0.00    +0.000 C 
ATOM     15  F   UNL     1       5.139   4.216  16.168  0.00  0.00    +0.000 F 
ATOM     16  F   UNL     1       6.823   5.396  16.856  0.00  0.00    +0.000 F 
BRANCH  12  17
ATOM     17  N   UNL     1       4.132   2.355  17.733  0.00  0.00    +0.000 NA
ATOM     18  H   UNL     1       4.610   2.592  16.854  0.00  0.00    +0.000 HD
ATOM     19  H   UNL     1       4.632   1.491  18.016  0.00  0.00    +0.000 HD
ENDBRANCH  12  17
ENDBRANCH   1   5
BRANCH   2  20
ATOM     20  C   UNL     1       1.615   8.170  20.380  0.00  0.00    +0.000 A 
ATOM     21  C   UNL     1       1.085   9.096  19.497  0.00  0.00    +0.000 A 
ATOM     22  C   UNL     1       0.397  10.196  20.015  0.00  0.00    +0.000 A 
ATOM     23  C   UNL     1       0.248  10.364  21.408  0.00  0.00    +0.000 A 
ATOM     24  C   UNL     1       0.782   9.335  22.175  0.00  0.00    +0.000 A 
ATOM     25  N   UNL     1       1.478   8.266  21.697  0.00  0.00    +0.000 NA
BRANCH  23  26
ATOM     26  C   UNL     1      -0.492  11.527  21.980  0.00  0.00    +0.000 A 
ATOM     27  C   UNL     1      -1.584  11.278  22.850  0.00  0.00    +0.000 A 
ATOM     28  C   UNL     1      -2.319  12.303  23.448  0.00  0.00    +0.000 A 
ATOM     29  C   UNL     1      -1.986  13.624  23.203  0.00  0.00    +0.000 A 
ATOM     30  C   UNL     1      -0.915  13.915  22.362  0.00  0.00    +0.000 A 
ATOM     31  C   UNL     1      -0.151  12.898  21.746  0.00  0.00    +0.000 A 
BRANCH  31  32
ATOM     32  C   UNL     1       0.972  13.316  20.907  0.00  0.00    +0.000 A 
ATOM     33  N   UNL     1       2.256  13.384  21.200  0.00  0.00    +0.000 NA
ATOM     34  N   UNL     1       2.866  14.051  20.164  0.00  0.00    +0.000 NA
ATOM     35  N   UNL     1       1.995  14.328  19.205  0.00  0.00    +0.000 NA
ATOM     36  N   UNL     1       0.831  13.831  19.642  0.00  0.00    +0.000 N 
ATOM     37  H   UNL     1       0.004  13.926  19.070  0.00  0.00    +0.000 HD
ENDBRANCH  31  32
ENDBRANCH  23  26
ENDBRANCH   2  20
TORSDOF 5
ENDMDL
MODEL 4
REMARK VINA RESULT:      -9.4      1.999      2.830
REMARK  Name = 
REMARK  7 active torsions:
REMARK  status: ('A' for Active; 'I' for Inactive)
REMARK    1  A    between atoms: C_1  and  C_2
REMARK    2  A    between atoms: C_3  and  C_4
REMARK    3  A    between atoms: C_5  and  C_6
REMARK    4  A    between atoms: C_9  and  C_10
REMARK    5  A    between atoms: C_15  and  C_16
REMARK    6  A    between atoms: C_24  and  C_25
REMARK    7  A    between atoms: C_29  and  N_30
REMARK                            x       y       z     vdW  Elec       q    Type
REMARK                         _______ _______ _______ _____ _____    ______ ____
ROOT
ATOM      1  C   UNL     1       2.486   6.573  17.889  0.00  0.00    +0.000 C 
ATOM      2  C   UNL     1       2.678   7.420  18.917  0.00  0.00    +0.000 C 
ENDROOT
BRANCH   1   5
ATOM      3  C   UNL     1       4.831   6.762  15.979  0.00  0.00    +0.000 C 
ATOM      4  C   UNL     1       4.807   5.927  17.270  0.00  0.00    +0.000 C 
ATOM      5  C   UNL     1       3.384   5.398  17.571  0.00  0.00    +0.000 C 
ATOM      6  C   UNL     1       3.449   4.472  18.790  0.00  0.00    +0.000 C 
ATOM      7  C   UNL     1       2.190   3.912  19.414  0.00  0.00    +0.000 C 
ATOM      8  C   UNL     1       1.076   3.445  18.490  0.00  0.00    +0.000 C 
ATOM      9  O   UNL     1       2.684   2.870  20.276  0.00  0.00    +0.000 OA
ATOM     10  C   UNL     1       4.033   2.662  20.066  0.00  0.00    +0.000 C 
ATOM     11  O   UNL     1       4.727   1.923  20.755  0.00  0.00    +0.000 OA
ATOM     12  C   UNL     1       4.453   3.309  18.738  0.00  0.00    +0.000 C 
ATOM     13  C   UNL     1       5.828   3.968  18.564  0.00  0.00    +0.000 C 
ATOM     14  C   UNL     1       5.823   4.785  17.253  0.00  0.00    +0.000 C 
ATOM     15  F   UNL     1       5.552   3.962  16.200  0.00  0.00    +0.000 F 
ATOM     16  F   UNL     1       7.064   5.275  17.032  0.00  0.00    +0.000 F 
BRANCH  12  17
ATOM     17  N   UNL     1       4.360   2.204  17.755  0.00  0.00    +0.000 NA
ATOM     18  H   UNL     1       3.379   1.986  17.540  0.00  0.00    +0.000 HD
ATOM     19  H   UNL     1       4.688   2.599  16.854  0.00  0.00    +0.000 HD
ENDBRANCH  12  17
ENDBRANCH   1   5
BRANCH   2  20
ATOM     20  C   UNL     1       1.794   8.578  19.161  0.00  0.00    +0.000 A 
ATOM     21  C   UNL     1       1.482   9.454  18.135  0.00  0.00    +0.000 A 
ATOM     22  C   UNL     1       0.645  10.537  18.411  0.00  0.00    +0.000 A 
ATOM     23  C   UNL     1       0.131  10.739  19.710  0.00  0.00    +0.000 A 
ATOM     24  C   UNL     1       0.481   9.757  20.629  0.00  0.00    +0.000 A 
ATOM     25  N   UNL     1       1.314   8.706  20.393  0.00  0.00    +0.000 NA
BRANCH  23  26
ATOM     26  C   UNL     1      -0.773  11.885  20.023  0.00  0.00    +0.000 A 
ATOM     27  C   UNL     1      -2.171  11.713  19.863  0.00  0.00    +0.000 A 
ATOM     28  C   UNL     1      -3.092  12.722  20.152  0.00  0.00    +0.000 A 
ATOM     29  C   UNL     1      -2.649  13.946  20.621  0.00  0.00    +0.000 A 
ATOM     30  C   UNL     1      -1.284  14.156  20.802  0.00  0.00    +0.000 A 
ATOM     31  C   UNL     1      -0.330  13.153  20.521  0.00  0.00    +0.000 A 
BRANCH  31  32
ATOM     32  C   UNL     1       1.075  13.470  20.777  0.00  0.00    +0.000 A 
ATOM     33  N   UNL     1       1.663  13.811  21.907  0.00  0.00    +0.000 NA
ATOM     34  N   UNL     1       2.932  14.231  21.584  0.00  0.00    +0.000 NA
ATOM     35  N   UNL     1       3.161  14.084  20.287  0.00  0.00    +0.000 NA
ATOM     36  N   UNL     1       2.028  13.568  19.794  0.00  0.00    +0.000 N 
ATOM     37  H   UNL     1       1.962  13.369  18.806  0.00  0.00    +0.000 HD
ENDBRANCH  31  32
ENDBRANCH  23  26
ENDBRANCH   2  20
TORSDOF 5
ENDMDL
MODEL 5
REMARK VINA RESULT:      -9.4      2.366      3.340
REMARK  Name = 
REMARK  7 active torsions:
REMARK  status: ('A' for Active; 'I' for Inactive)
REMARK    1  A    between atoms: C_1  and  C_2
REMARK    2  A    between atoms: C_3  and  C_4
REMARK    3  A    between atoms: C_5  and  C_6
REMARK    4  A    between atoms: C_9  and  C_10
REMARK    5  A    between atoms: C_15  and  C_16
REMARK    6  A    between atoms: C_24  and  C_25
REMARK    7  A    between atoms: C_29  and  N_30
REMARK                            x       y       z     vdW  Elec       q    Type
REMARK                         _______ _______ _______ _____ _____    ______ ____
ROOT
ATOM      1  C   UNL     1       3.457   6.955  18.928  0.00  0.00    +0.000 C 
ATOM      2  C   UNL     1       2.386   7.515  18.337  0.00  0.00    +0.000 C 
ENDROOT
BRANCH   1   5
ATOM      3  C   UNL     1       2.615   4.365  20.257  0.00  0.00    +0.000 C 
ATOM      4  C   UNL     1       2.956   4.523  18.766  0.00  0.00    +0.000 C 
ATOM      5  C   UNL     1       4.037   5.610  18.549  0.00  0.00    +0.000 C 
ATOM      6  C   UNL     1       4.425   5.631  17.066  0.00  0.00    +0.000 C 
ATOM      7  C   UNL     1       5.359   6.687  16.519  0.00  0.00    +0.000 C 
ATOM      8  C   UNL     1       6.564   7.087  17.357  0.00  0.00    +0.000 C 
ATOM      9  O   UNL     1       5.718   6.170  15.223  0.00  0.00    +0.000 OA
ATOM     10  C   UNL     1       5.249   4.881  15.066  0.00  0.00    +0.000 C 
ATOM     11  O   UNL     1       5.306   4.256  14.013  0.00  0.00    +0.000 OA
ATOM     12  C   UNL     1       4.868   4.301  16.436  0.00  0.00    +0.000 C 
ATOM     13  C   UNL     1       3.671   3.355  16.604  0.00  0.00    +0.000 C 
ATOM     14  C   UNL     1       3.366   3.206  18.111  0.00  0.00    +0.000 C 
ATOM     15  F   UNL     1       4.460   2.708  18.754  0.00  0.00    +0.000 F 
ATOM     16  F   UNL     1       2.388   2.285  18.275  0.00  0.00    +0.000 F 
BRANCH  12  17
ATOM     17  N   UNL     1       6.081   3.566  16.865  0.00  0.00    +0.000 NA
ATOM     18  H   UNL     1       6.717   4.183  17.387  0.00  0.00    +0.000 HD
ATOM     19  H   UNL     1       5.768   2.914  17.608  0.00  0.00    +0.000 HD
ENDBRANCH  12  17
ENDBRANCH   1   5
BRANCH   2  20
ATOM     20  C   UNL     1       1.834   8.814  18.772  0.00  0.00    +0.000 A 
ATOM     21  C   UNL     1       2.025   9.952  18.005  0.00  0.00    +0.000 A 
ATOM     22  C   UNL     1       1.489  11.160  18.456  0.00  0.00    +0.000 A 
ATOM     23  C   UNL     1       0.771  11.223  19.670  0.00  0.00    +0.000 A 
ATOM     24  C   UNL     1       0.611  10.000  20.311  0.00  0.00    +0.000 A 
ATOM     25  N   UNL     1       1.143   8.814  19.906  0.00  0.00    +0.000 NA
BRANCH  23  26
ATOM     26  C   UNL     1       0.182  12.503  20.164  0.00  0.00    +0.000 A 
ATOM     27  C   UNL     1       0.927  13.285  21.083  0.00  0.00    +0.000 A 
ATOM     28  C   UNL     1       0.465  14.504  21.581  0.00  0.00    +0.000 A 
ATOM     29  C   UNL     1      -0.763  14.995  21.173  0.00  0.00    +0.000 A 
ATOM     30  C   UNL     1      -1.524  14.265  20.264  0.00  0.00    +0.000 A 
ATOM     31  C   UNL     1      -1.080  13.030  19.740  0.00  0.00    +0.000 A 
BRANCH  31  32
ATOM     32  C   UNL     1      -1.945  12.361  18.767  0.00  0.00    +0.000 A 
ATOM     33  N   UNL     1      -3.047  11.666  18.966  0.00  0.00    +0.000 NA
ATOM     34  N   UNL     1      -3.352  11.054  17.774  0.00  0.00    +0.000 NA
ATOM     35  N   UNL     1      -2.501  11.419  16.826  0.00  0.00    +0.000 NA
ATOM     36  N   UNL     1      -1.658  12.266  17.428  0.00  0.00    +0.000 N 
ATOM     37  H   UNL     1      -0.907  12.681  16.896  0.00  0.00    +0.000 HD
ENDBRANCH  31  32
ENDBRANCH  23  26
ENDBRANCH   2  20
TORSDOF 5
ENDMDL
MODEL 6
REMARK VINA RESULT:      -9.3      2.124      3.103
REMARK  Name = 
REMARK  7 active torsions:
REMARK  status: ('A' for Active; 'I' for Inactive)
REMARK    1  A    between atoms: C_1  and  C_2
REMARK    2  A    between atoms: C_3  and  C_4
REMARK    3  A    between atoms: C_5  and  C_6
REMARK    4  A    between atoms: C_9  and  C_10
REMARK    5  A    between atoms: C_15  and  C_16
REMARK    6  A    between atoms: C_24  and  C_25
REMARK    7  A    between atoms: C_29  and  N_30
REMARK                            x       y       z     vdW  Elec       q    Type
REMARK                         _______ _______ _______ _____ _____    ______ ____
ROOT
ATOM      1  C   UNL     1       2.531   6.434  18.642  0.00  0.00    +0.000 C 
ATOM      2  C   UNL     1       2.484   7.218  19.734  0.00  0.00    +0.000 C 
ENDROOT
BRANCH   1   5
ATOM      3  C   UNL     1       2.195   3.740  19.988  0.00  0.00    +0.000 C 
ATOM      4  C   UNL     1       2.734   3.955  18.564  0.00  0.00    +0.000 C 
ATOM      5  C   UNL     1       3.506   5.292  18.452  0.00  0.00    +0.000 C 
ATOM      6  C   UNL     1       4.124   5.388  17.052  0.00  0.00    +0.000 C 
ATOM      7  C   UNL     1       4.822   6.649  16.593  0.00  0.00    +0.000 C 
ATOM      8  C   UNL     1       5.713   7.381  17.585  0.00  0.00    +0.000 C 
ATOM      9  O   UNL     1       5.524   6.224  15.409  0.00  0.00    +0.000 OA
ATOM     10  C   UNL     1       5.451   4.853  15.265  0.00  0.00    +0.000 C 
ATOM     11  O   UNL     1       5.854   4.246  14.279  0.00  0.00    +0.000 OA
ATOM     12  C   UNL     1       5.008   4.219  16.592  0.00  0.00    +0.000 C 
ATOM     13  C   UNL     1       4.097   2.984  16.628  0.00  0.00    +0.000 C 
ATOM     14  C   UNL     1       3.587   2.787  18.073  0.00  0.00    +0.000 C 
ATOM     15  F   UNL     1       4.647   2.622  18.915  0.00  0.00    +0.000 F 
ATOM     16  F   UNL     1       2.878   1.637  18.139  0.00  0.00    +0.000 F 
BRANCH  12  17
ATOM     17  N   UNL     1       6.280   3.854  17.258  0.00  0.00    +0.000 NA
ATOM     18  H   UNL     1       6.102   3.362  18.144  0.00  0.00    +0.000 HD
ATOM     19  H   UNL     1       6.696   3.100  16.681  0.00  0.00    +0.000 HD
ENDBRANCH  12  17
ENDBRANCH   1   5
BRANCH   2  20
ATOM     20  C   UNL     1       1.539   8.348  19.854  0.00  0.00    +0.000 A 
ATOM     21  C   UNL     1       1.447   9.297  18.850  0.00  0.00    +0.000 A 
ATOM     22  C   UNL     1       0.543  10.350  19.006  0.00  0.00    +0.000 A 
ATOM     23  C   UNL     1      -0.258  10.449  20.164  0.00  0.00    +0.000 A 
ATOM     24  C   UNL     1      -0.102   9.402  21.065  0.00  0.00    +0.000 A 
ATOM     25  N   UNL     1       0.789   8.378  20.949  0.00  0.00    +0.000 NA
BRANCH  23  26
ATOM     26  C   UNL     1      -1.237  11.561  20.345  0.00  0.00    +0.000 A 
ATOM     27  C   UNL     1      -1.122  12.390  21.489  0.00  0.00    +0.000 A 
ATOM     28  C   UNL     1      -1.978  13.465  21.729  0.00  0.00    +0.000 A 
ATOM     29  C   UNL     1      -2.985  13.760  20.826  0.00  0.00    +0.000 A 
ATOM     30  C   UNL     1      -3.129  12.977  19.683  0.00  0.00    +0.000 A 
ATOM     31  C   UNL     1      -2.275  11.885  19.413  0.00  0.00    +0.000 A 
BRANCH  31  32
ATOM     32  C   UNL     1      -2.496  11.150  18.167  0.00  0.00    +0.000 A 
ATOM     33  N   UNL     1      -2.895   9.906  17.989  0.00  0.00    +0.000 NA
ATOM     34  N   UNL     1      -2.721   9.619  16.656  0.00  0.00    +0.000 NA
ATOM     35  N   UNL     1      -2.294  10.686  15.997  0.00  0.00    +0.000 NA
ATOM     36  N   UNL     1      -2.200  11.649  16.923  0.00  0.00    +0.000 N 
ATOM     37  H   UNL     1      -1.886  12.570  16.652  0.00  0.00    +0.000 HD
ENDBRANCH  31  32
ENDBRANCH  23  26
ENDBRANCH   2  20
TORSDOF 5
ENDMDL
MODEL 7
REMARK VINA RESULT:      -9.3      2.043      2.792
REMARK  Name = 
REMARK  7 active torsions:
REMARK  status: ('A' for Active; 'I' for Inactive)
REMARK    1  A    between atoms: C_1  and  C_2
REMARK    2  A    between atoms: C_3  and  C_4
REMARK    3  A    between atoms: C_5  and  C_6
REMARK    4  A    between atoms: C_9  and  C_10
REMARK    5  A    between atoms: C_15  and  C_16
REMARK    6  A    between atoms: C_24  and  C_25
REMARK    7  A    between atoms: C_29  and  N_30
REMARK                            x       y       z     vdW  Elec       q    Type
REMARK                         _______ _______ _______ _____ _____    ______ ____
ROOT
ATOM      1  C   UNL     1       2.654   6.812  19.390  0.00  0.00    +0.000 C 
ATOM      2  C   UNL     1       1.857   7.760  18.864  0.00  0.00    +0.000 C 
ENDROOT
BRANCH   1   5
ATOM      3  C   UNL     1       4.297   7.246  16.880  0.00  0.00    +0.000 C 
ATOM      4  C   UNL     1       4.578   6.174  17.946  0.00  0.00    +0.000 C 
ATOM      5  C   UNL     1       3.267   5.676  18.602  0.00  0.00    +0.000 C 
ATOM      6  C   UNL     1       3.599   4.524  19.557  0.00  0.00    +0.000 C 
ATOM      7  C   UNL     1       2.539   3.923  20.453  0.00  0.00    +0.000 C 
ATOM      8  C   UNL     1       1.148   3.710  19.879  0.00  0.00    +0.000 C 
ATOM      9  O   UNL     1       3.153   2.705  20.917  0.00  0.00    +0.000 OA
ATOM     10  C   UNL     1       4.336   2.469  20.246  0.00  0.00    +0.000 C 
ATOM     11  O   UNL     1       5.119   1.571  20.535  0.00  0.00    +0.000 OA
ATOM     12  C   UNL     1       4.395   3.341  18.984  0.00  0.00    +0.000 C 
ATOM     13  C   UNL     1       5.715   3.945  18.484  0.00  0.00    +0.000 C 
ATOM     14  C   UNL     1       5.398   5.004  17.406  0.00  0.00    +0.000 C 
ATOM     15  F   UNL     1       4.721   4.421  16.375  0.00  0.00    +0.000 F 
ATOM     16  F   UNL     1       6.558   5.459  16.878  0.00  0.00    +0.000 F 
BRANCH  12  17
ATOM     17  N   UNL     1       3.875   2.459  17.913  0.00  0.00    +0.000 NA
ATOM     18  H   UNL     1       4.160   1.484  18.071  0.00  0.00    +0.000 HD
ATOM     19  H   UNL     1       2.851   2.404  18.064  0.00  0.00    +0.000 HD
ENDBRANCH  12  17
ENDBRANCH   1   5
BRANCH   2  20
ATOM     20  C   UNL     1       1.250   8.827  19.686  0.00  0.00    +0.000 A 
ATOM     21  C   UNL     1       1.257   8.740  21.068  0.00  0.00    +0.000 A 
ATOM     22  C   UNL     1       0.670   9.769  21.806  0.00  0.00    +0.000 A 
ATOM     23  C   UNL     1       0.076  10.874  21.158  0.00  0.00    +0.000 A 
ATOM     24  C   UNL     1       0.187  10.859  19.773  0.00  0.00    +0.000 A 
ATOM     25  N   UNL     1       0.732   9.857  19.029  0.00  0.00    +0.000 NA
BRANCH  23  26
ATOM     26  C   UNL     1      -0.548  11.989  21.930  0.00  0.00    +0.000 A 
ATOM     27  C   UNL     1      -1.680  11.709  22.737  0.00  0.00    +0.000 A 
ATOM     28  C   UNL     1      -2.315  12.683  23.507  0.00  0.00    +0.000 A 
ATOM     29  C   UNL     1      -1.837  13.982  23.508  0.00  0.00    +0.000 A 
ATOM     30  C   UNL     1      -0.721  14.301  22.737  0.00  0.00    +0.000 A 
ATOM     31  C   UNL     1      -0.057  13.334  21.950  0.00  0.00    +0.000 A 
BRANCH  31  32
ATOM     32  C   UNL     1       1.124  13.770  21.203  0.00  0.00    +0.000 A 
ATOM     33  N   UNL     1       2.399  13.665  21.520  0.00  0.00    +0.000 NA
ATOM     34  N   UNL     1       3.098  14.428  20.615  0.00  0.00    +0.000 NA
ATOM     35  N   UNL     1       2.284  14.940  19.703  0.00  0.00    +0.000 NA
ATOM     36  N   UNL     1       1.067  14.494  20.038  0.00  0.00    +0.000 N 
ATOM     37  H   UNL     1       0.269  14.761  19.479  0.00  0.00    +0.000 HD
ENDBRANCH  31  32
ENDBRANCH  23  26
ENDBRANCH   2  20
TORSDOF 5
ENDMDL
MODEL 8
REMARK VINA RESULT:      -9.2      1.488      1.637
REMARK  Name = 
REMARK  7 active torsions:
REMARK  status: ('A' for Active; 'I' for Inactive)
REMARK    1  A    between atoms: C_1  and  C_2
REMARK    2  A    between atoms: C_3  and  C_4
REMARK    3  A    between atoms: C_5  and  C_6
REMARK    4  A    between atoms: C_9  and  C_10
REMARK    5  A    between atoms: C_15  and  C_16
REMARK    6  A    between atoms: C_24  and  C_25
REMARK    7  A    between atoms: C_29  and  N_30
REMARK                            x       y       z     vdW  Elec       q    Type
REMARK                         _______ _______ _______ _____ _____    ______ ____
ROOT
ATOM      1  C   UNL     1       3.395   7.063  18.133  0.00  0.00    +0.000 C 
ATOM      2  C   UNL     1       2.202   7.622  17.861  0.00  0.00    +0.000 C 
ENDROOT
BRANCH   1   5
ATOM      3  C   UNL     1       5.111   6.752  15.654  0.00  0.00    +0.000 C 
ATOM      4  C   UNL     1       5.224   5.889  16.921  0.00  0.00    +0.000 C 
ATOM      5  C   UNL     1       3.847   5.718  17.609  0.00  0.00    +0.000 C 
ATOM      6  C   UNL     1       4.001   4.748  18.786  0.00  0.00    +0.000 C 
ATOM      7  C   UNL     1       2.856   4.491  19.740  0.00  0.00    +0.000 C 
ATOM      8  C   UNL     1       1.454   4.361  19.163  0.00  0.00    +0.000 C 
ATOM      9  O   UNL     1       3.283   3.318  20.459  0.00  0.00    +0.000 OA
ATOM     10  C   UNL     1       4.428   2.791  19.896  0.00  0.00    +0.000 C 
ATOM     11  O   UNL     1       5.071   1.870  20.387  0.00  0.00    +0.000 OA
ATOM     12  C   UNL     1       4.626   3.375  18.490  0.00  0.00    +0.000 C 
ATOM     13  C   UNL     1       6.024   3.679  17.934  0.00  0.00    +0.000 C 
ATOM     14  C   UNL     1       5.875   4.532  16.656  0.00  0.00    +0.000 C 
ATOM     15  F   UNL     1       5.133   3.853  15.734  0.00  0.00    +0.000 F 
ATOM     16  F   UNL     1       7.093   4.707  16.095  0.00  0.00    +0.000 F 
BRANCH  12  17
ATOM     17  N   UNL     1       3.997   2.376  17.594  0.00  0.00    +0.000 NA
ATOM     18  H   UNL     1       4.516   2.300  16.709  0.00  0.00    +0.000 HD
ATOM     19  H   UNL     1       4.184   1.452  18.025  0.00  0.00    +0.000 HD
ENDBRANCH  12  17
ENDBRANCH   1   5
BRANCH   2  20
ATOM     20  C   UNL     1       1.791   8.922  18.431  0.00  0.00    +0.000 A 
ATOM     21  C   UNL     1       1.106   8.978  19.633  0.00  0.00    +0.000 A 
ATOM     22  C   UNL     1       0.734  10.228  20.133  0.00  0.00    +0.000 A 
ATOM     23  C   UNL     1       1.045  11.410  19.428  0.00  0.00    +0.000 A 
ATOM     24  C   UNL     1       1.780  11.212  18.264  0.00  0.00    +0.000 A 
ATOM     25  N   UNL     1       2.134  10.005  17.742  0.00  0.00    +0.000 NA
BRANCH  23  26
ATOM     26  C   UNL     1       0.665  12.755  19.951  0.00  0.00    +0.000 A 
ATOM     27  C   UNL     1       1.640  13.515  20.646  0.00  0.00    +0.000 A 
ATOM     28  C   UNL     1       1.380  14.790  21.151  0.00  0.00    +0.000 A 
ATOM     29  C   UNL     1       0.132  15.362  20.973  0.00  0.00    +0.000 A 
ATOM     30  C   UNL     1      -0.852  14.655  20.287  0.00  0.00    +0.000 A 
ATOM     31  C   UNL     1      -0.617  13.364  19.763  0.00  0.00    +0.000 A 
BRANCH  31  32
ATOM     32  C   UNL     1      -1.712  12.725  19.032  0.00  0.00    +0.000 A 
ATOM     33  N   UNL     1      -2.858  12.256  19.484  0.00  0.00    +0.000 NA
ATOM     34  N   UNL     1      -3.432  11.549  18.455  0.00  0.00    +0.000 NA
ATOM     35  N   UNL     1      -2.698  11.637  17.356  0.00  0.00    +0.000 NA
ATOM     36  N   UNL     1      -1.656  12.405  17.698  0.00  0.00    +0.000 N 
ATOM     37  H   UNL     1      -0.946  12.614  17.011  0.00  0.00    +0.000 HD
ENDBRANCH  31  32
ENDBRANCH  23  26
ENDBRANCH   2  20
TORSDOF 5
ENDMDL
MODEL 9
REMARK VINA RESULT:      -9.1      1.817      2.253
REMARK  Name = 
REMARK  7 active torsions:
REMARK  status: ('A' for Active; 'I' for Inactive)
REMARK    1  A    between atoms: C_1  and  C_2
REMARK    2  A    between atoms: C_3  and  C_4
REMARK    3  A    between atoms: C_5  and  C_6
REMARK    4  A    between atoms: C_9  and  C_10
REMARK    5  A    between atoms: C_15  and  C_16
REMARK    6  A    between atoms: C_24  and  C_25
REMARK    7  A    between atoms: C_29  and  N_30
REMARK                            x       y       z     vdW  Elec       q    Type
REMARK                         _______ _______ _______ _____ _____    ______ ____
ROOT
ATOM      1  C   UNL     1       2.472   6.746  18.544  0.00  0.00    +0.000 C 
ATOM      2  C   UNL     1       2.434   7.060  19.851  0.00  0.00    +0.000 C 
ENDROOT
BRANCH   1   5
ATOM      3  C   UNL     1       4.480   7.122  16.306  0.00  0.00    +0.000 C 
ATOM      4  C   UNL     1       4.646   6.154  17.489  0.00  0.00    +0.000 C 
ATOM      5  C   UNL     1       3.278   5.606  17.962  0.00  0.00    +0.000 C 
ATOM      6  C   UNL     1       3.519   4.554  19.052  0.00  0.00    +0.000 C 
ATOM      7  C   UNL     1       2.364   3.940  19.811  0.00  0.00    +0.000 C 
ATOM      8  C   UNL     1       1.104   3.581  19.039  0.00  0.00    +0.000 C 
ATOM      9  O   UNL     1       2.967   2.808  20.468  0.00  0.00    +0.000 OA
ATOM     10  C   UNL     1       4.258   2.616  20.020  0.00  0.00    +0.000 C 
ATOM     11  O   UNL     1       5.037   1.803  20.505  0.00  0.00    +0.000 OA
ATOM     12  C   UNL     1       4.473   3.397  18.715  0.00  0.00    +0.000 C 
ATOM     13  C   UNL     1       5.817   4.063  18.388  0.00  0.00    +0.000 C 
ATOM     14  C   UNL     1       5.618   5.014  17.188  0.00  0.00    +0.000 C 
ATOM     15  F   UNL     1       5.161   4.309  16.113  0.00  0.00    +0.000 F 
ATOM     16  F   UNL     1       6.819   5.517  16.818  0.00  0.00    +0.000 F 
BRANCH  12  17
ATOM     17  N   UNL     1       4.196   2.404  17.652  0.00  0.00    +0.000 NA
ATOM     18  H   UNL     1       3.197   2.160  17.629  0.00  0.00    +0.000 HD
ATOM     19  H   UNL     1       4.307   2.912  16.755  0.00  0.00    +0.000 HD
ENDBRANCH  12  17
ENDBRANCH   1   5
BRANCH   2  20
ATOM     20  C   UNL     1       1.661   8.210  20.364  0.00  0.00    +0.000 A 
ATOM     21  C   UNL     1       1.465   8.376  21.725  0.00  0.00    +0.000 A 
ATOM     22  C   UNL     1       0.726   9.475  22.165  0.00  0.00    +0.000 A 
ATOM     23  C   UNL     1       0.184  10.397  21.244  0.00  0.00    +0.000 A 
ATOM     24  C   UNL     1       0.501  10.140  19.915  0.00  0.00    +0.000 A 
ATOM     25  N   UNL     1       1.198   9.063  19.458  0.00  0.00    +0.000 NA
BRANCH  23  26
ATOM     26  C   UNL     1      -0.601  11.584  21.695  0.00  0.00    +0.000 A 
ATOM     27  C   UNL     1      -1.611  11.400  22.673  0.00  0.00    +0.000 A 
ATOM     28  C   UNL     1      -2.379  12.454  23.169  0.00  0.00    +0.000 A 
ATOM     29  C   UNL     1      -2.162  13.742  22.710  0.00  0.00    +0.000 A 
ATOM     30  C   UNL     1      -1.173  13.970  21.757  0.00  0.00    +0.000 A 
ATOM     31  C   UNL     1      -0.379  12.923  21.239  0.00  0.00    +0.000 A 
BRANCH  31  32
ATOM     32  C   UNL     1       0.653  13.280  20.264  0.00  0.00    +0.000 A 
ATOM     33  N   UNL     1       0.546  13.466  18.963  0.00  0.00    +0.000 NA
ATOM     34  N   UNL     1       1.825  13.550  18.467  0.00  0.00    +0.000 NA
ATOM     35  N   UNL     1       2.715  13.494  19.447  0.00  0.00    +0.000 NA
ATOM     36  N   UNL     1       1.989  13.376  20.565  0.00  0.00    +0.000 N 
ATOM     37  H   UNL     1       2.458  13.311  21.458  0.00  0.00    +0.000 HD
ENDBRANCH  31  32
ENDBRANCH  23  26
ENDBRANCH   2  20
TORSDOF 5
ENDMDL
