MODEL 1
REMARK VINA RESULT:      -7.6      0.000      0.000
REMARK  Name = 
REMARK  9 active torsions:
REMARK  status: ('A' for Active; 'I' for Inactive)
REMARK    1  A    between atoms: C_1  and  C_2
REMARK    2  A    between atoms: C_3  and  C_4
REMARK    3  A    between atoms: C_4  and  C_5
REMARK    4  A    between atoms: N_7  and  CA_8
REMARK    5  A    between atoms: CA_8  and  CB_9
REMARK    6  A    between atoms: CA_8  and  C_10
REMARK    7  A    between atoms: C_10  and  OXT_12
REMARK    8  A    between atoms: C_24  and  C_25
REMARK    9  A    between atoms: C_24  and  C_26
REMARK                            x       y       z     vdW  Elec       q    Type
REMARK                         _______ _______ _______ _____ _____    ______ ____
ROOT
ATOM      1  C   UNK A   0       1.671   5.947  20.704  0.00  0.00    +0.000 C 
ATOM      2  C   UNK A   0       2.059   6.887  19.590  0.00  0.00    +0.000 A 
ATOM      3  C   UNK A   0       2.747   6.508  18.494  0.00  0.00    +0.000 A 
ATOM      4  C   UNK A   0       3.189   7.498  17.477  0.00  0.00    +0.000 A 
ATOM      5  O   UNK A   0       3.978   7.177  16.595  0.00  0.00    +0.000 OA
ATOM      6  O   UNK A   0       2.661   8.778  17.558  0.00  0.00    +0.000 OA
ATOM      7  C   UNK A   0       1.909   9.183  18.677  0.00  0.00    +0.000 A 
ATOM      8  C   UNK A   0       1.455  10.507  18.695  0.00  0.00    +0.000 A 
ATOM      9  C   UNK A   0       0.721  10.965  19.788  0.00  0.00    +0.000 A 
ATOM     10  C   UNK A   0       0.495  10.114  20.877  0.00  0.00    +0.000 A 
ATOM     11  C   UNK A   0       0.940   8.785  20.821  0.00  0.00    +0.000 A 
ATOM     12  C   UNK A   0       1.645   8.295  19.715  0.00  0.00    +0.000 A 
ATOM     13  C   UNK A   0      -0.260  10.572  22.090  0.00  0.00    +0.000 C 
ATOM     14  C   UNK A   0      -0.384  12.084  22.096  0.00  0.00    +0.000 C 
ATOM     15  C   UNK A   0      -0.760  12.602  20.701  0.00  0.00    +0.000 C 
ATOM     16  C   UNK A   0      -2.121  12.081  20.208  0.00  0.00    +0.000 C 
ATOM     17  C   UNK A   0      -0.826  14.135  20.760  0.00  0.00    +0.000 C 
ATOM     18  O   UNK A   0       0.259  12.255  19.737  0.00  0.00    +0.000 OA
ENDROOT
BRANCH   3  19
ATOM     19  C   UNK A   0       3.122   5.087  18.160  0.00  0.00    +0.000 C 
BRANCH  19  20
ATOM     20  C   UNK A   0       4.518   4.780  18.664  0.00  0.00    +0.000 C 
ATOM     21  O   UNK A   0       4.753   4.359  19.796  0.00  0.00    +0.000 OA
ATOM     22  N   ALA A   1       5.537   5.067  17.793  0.00  0.00    +0.000 N 
ATOM     23  H   ALA A   1       5.354   5.782  17.089  0.00  0.00    +0.000 HD
BRANCH  22  24
ATOM     24  CA  ALA A   1       6.934   4.770  18.123  0.00  0.00    +0.000 C 
ATOM     25  CB  ALA A   1       7.728   4.514  16.849  0.00  0.00    +0.000 C 
BRANCH  24  26
ATOM     26  C   ALA A   1       7.570   5.884  18.975  0.00  0.00    +0.000 C 
ATOM     27  O   ALA A   1       8.020   6.931  18.531  0.00  0.00    +0.000 OA
BRANCH  26  28
ATOM     28  OXT ALA A   1       7.677   5.563  20.290  0.00  0.00    +0.000 OA
ATOM     29  HXT ALA A   1       7.718   4.587  20.438  0.00  0.00    +0.000 HD
ENDBRANCH  26  28
ENDBRANCH  24  26
ENDBRANCH  22  24
ENDBRANCH  19  20
ENDBRANCH   3  19
TORSDOF 5
ENDMDL
MODEL 2
REMARK VINA RESULT:      -7.5      3.212      8.643
REMARK  Name = 
REMARK  9 active torsions:
REMARK  status: ('A' for Active; 'I' for Inactive)
REMARK    1  A    between atoms: C_1  and  C_2
REMARK    2  A    between atoms: C_3  and  C_4
REMARK    3  A    between atoms: C_4  and  C_5
REMARK    4  A    between atoms: N_7  and  CA_8
REMARK    5  A    between atoms: CA_8  and  CB_9
REMARK    6  A    between atoms: CA_8  and  C_10
REMARK    7  A    between atoms: C_10  and  OXT_12
REMARK    8  A    between atoms: C_24  and  C_25
REMARK    9  A    between atoms: C_24  and  C_26
REMARK                            x       y       z     vdW  Elec       q    Type
REMARK                         _______ _______ _______ _____ _____    ______ ____
ROOT
ATOM      1  C   UNK A   0       1.846  10.590  17.857  0.00  0.00    +0.000 C 
ATOM      2  C   UNK A   0       1.463   9.967  19.176  0.00  0.00    +0.000 A 
ATOM      3  C   UNK A   0       0.800  10.622  20.150  0.00  0.00    +0.000 A 
ATOM      4  C   UNK A   0       0.538   9.987  21.469  0.00  0.00    +0.000 A 
ATOM      5  O   UNK A   0       0.116  10.653  22.408  0.00  0.00    +0.000 OA
ATOM      6  O   UNK A   0       0.769   8.625  21.581  0.00  0.00    +0.000 OA
ATOM      7  C   UNK A   0       1.426   7.914  20.559  0.00  0.00    +0.000 A 
ATOM      8  C   UNK A   0       1.658   6.551  20.777  0.00  0.00    +0.000 A 
ATOM      9  C   UNK A   0       2.322   5.805  19.805  0.00  0.00    +0.000 A 
ATOM     10  C   UNK A   0       2.796   6.437  18.649  0.00  0.00    +0.000 A 
ATOM     11  C   UNK A   0       2.527   7.798  18.445  0.00  0.00    +0.000 A 
ATOM     12  C   UNK A   0       1.828   8.556  19.392  0.00  0.00    +0.000 A 
ATOM     13  C   UNK A   0       3.545   5.682  17.591  0.00  0.00    +0.000 C 
ATOM     14  C   UNK A   0       3.995   4.334  18.120  0.00  0.00    +0.000 C 
ATOM     15  C   UNK A   0       2.865   3.658  18.909  0.00  0.00    +0.000 C 
ATOM     16  C   UNK A   0       1.620   3.367  18.053  0.00  0.00    +0.000 C 
ATOM     17  C   UNK A   0       3.393   2.323  19.456  0.00  0.00    +0.000 C 
ATOM     18  O   UNK A   0       2.483   4.465  20.046  0.00  0.00    +0.000 OA
ENDROOT
BRANCH   3  19
ATOM     19  C   UNK A   0       0.243  12.017  20.027  0.00  0.00    +0.000 C 
BRANCH  19  20
ATOM     20  C   UNK A   0      -0.796  12.073  18.925  0.00  0.00    +0.000 C 
ATOM     21  O   UNK A   0      -0.739  12.854  17.976  0.00  0.00    +0.000 OA
ATOM     22  N   ALA A   1      -1.867  11.229  19.080  0.00  0.00    +0.000 N 
ATOM     23  H   ALA A   1      -2.093  10.943  20.033  0.00  0.00    +0.000 HD
BRANCH  22  24
ATOM     24  CA  ALA A   1      -2.921  11.134  18.066  0.00  0.00    +0.000 C 
ATOM     25  CB  ALA A   1      -3.046   9.697  17.578  0.00  0.00    +0.000 C 
BRANCH  24  26
ATOM     26  C   ALA A   1      -4.265  11.678  18.584  0.00  0.00    +0.000 C 
ATOM     27  O   ALA A   1      -5.356  11.180  18.348  0.00  0.00    +0.000 OA
BRANCH  26  28
ATOM     28  OXT ALA A   1      -4.146  12.843  19.270  0.00  0.00    +0.000 OA
ATOM     29  HXT ALA A   1      -4.733  13.554  18.913  0.00  0.00    +0.000 HD
ENDBRANCH  26  28
ENDBRANCH  24  26
ENDBRANCH  22  24
ENDBRANCH  19  20
ENDBRANCH   3  19
TORSDOF 5
ENDMDL
MODEL 3
REMARK VINA RESULT:      -7.4      2.989      8.805
REMARK  Name = 
REMARK  9 active torsions:
REMARK  status: ('A' for Active; 'I' for Inactive)
REMARK    1  A    between atoms: C_1  and  C_2
REMARK    2  A    between atoms: C_3  and  C_4
REMARK    3  A    between atoms: C_4  and  C_5
REMARK    4  A    between atoms: N_7  and  CA_8
REMARK    5  A    between atoms: CA_8  and  CB_9
REMARK    6  A    between atoms: CA_8  and  C_10
REMARK    7  A    between atoms: C_10  and  OXT_12
REMARK    8  A    between atoms: C_24  and  C_25
REMARK    9  A    between atoms: C_24  and  C_26
REMARK                            x       y       z     vdW  Elec       q    Type
REMARK                         _______ _______ _______ _____ _____    ______ ____
ROOT
ATOM      1  C   UNK A   0       0.333   9.356  22.711  0.00  0.00    +0.000 C 
ATOM      2  C   UNK A   0       0.612   9.769  21.287  0.00  0.00    +0.000 A 
ATOM      3  C   UNK A   0       0.366  11.003  20.802  0.00  0.00    +0.000 A 
ATOM      4  C   UNK A   0       0.567  11.322  19.364  0.00  0.00    +0.000 A 
ATOM      5  O   UNK A   0       0.154  12.378  18.896  0.00  0.00    +0.000 OA
ATOM      6  O   UNK A   0       1.250  10.395  18.591  0.00  0.00    +0.000 OA
ATOM      7  C   UNK A   0       1.550   9.114  19.092  0.00  0.00    +0.000 A 
ATOM      8  C   UNK A   0       2.201   8.228  18.226  0.00  0.00    +0.000 A 
ATOM      9  C   UNK A   0       2.505   6.940  18.665  0.00  0.00    +0.000 A 
ATOM     10  C   UNK A   0       2.108   6.533  19.944  0.00  0.00    +0.000 A 
ATOM     11  C   UNK A   0       1.480   7.450  20.800  0.00  0.00    +0.000 A 
ATOM     12  C   UNK A   0       1.201   8.759  20.390  0.00  0.00    +0.000 A 
ATOM     13  C   UNK A   0       2.383   5.146  20.449  0.00  0.00    +0.000 C 
ATOM     14  C   UNK A   0       2.778   4.235  19.302  0.00  0.00    +0.000 C 
ATOM     15  C   UNK A   0       3.775   4.939  18.371  0.00  0.00    +0.000 C 
ATOM     16  C   UNK A   0       5.093   5.316  19.068  0.00  0.00    +0.000 C 
ATOM     17  C   UNK A   0       4.101   3.987  17.211  0.00  0.00    +0.000 C 
ATOM     18  O   UNK A   0       3.184   6.126  17.796  0.00  0.00    +0.000 OA
ENDROOT
BRANCH   3  19
ATOM     19  C   UNK A   0      -0.106  12.175  21.624  0.00  0.00    +0.000 C 
BRANCH  19  20
ATOM     20  C   UNK A   0      -1.615  12.148  21.759  0.00  0.00    +0.000 C 
ATOM     21  O   UNK A   0      -2.201  11.694  22.741  0.00  0.00    +0.000 OA
ATOM     22  N   ALA A   1      -2.313  12.609  20.672  0.00  0.00    +0.000 N 
ATOM     23  H   ALA A   1      -1.843  12.560  19.768  0.00  0.00    +0.000 HD
BRANCH  22  24
ATOM     24  CA  ALA A   1      -3.776  12.695  20.681  0.00  0.00    +0.000 C 
ATOM     25  CB  ALA A   1      -4.214  14.083  21.129  0.00  0.00    +0.000 C 
BRANCH  24  26
ATOM     26  C   ALA A   1      -4.380  12.321  19.314  0.00  0.00    +0.000 C 
ATOM     27  O   ALA A   1      -5.572  12.152  19.101  0.00  0.00    +0.000 OA
BRANCH  26  28
ATOM     28  OXT ALA A   1      -3.445  12.097  18.355  0.00  0.00    +0.000 OA
ATOM     29  HXT ALA A   1      -3.622  12.609  17.529  0.00  0.00    +0.000 HD
ENDBRANCH  26  28
ENDBRANCH  24  26
ENDBRANCH  22  24
ENDBRANCH  19  20
ENDBRANCH   3  19
TORSDOF 5
ENDMDL
MODEL 4
REMARK VINA RESULT:      -7.3      3.140      8.326
REMARK  Name = 
REMARK  9 active torsions:
REMARK  status: ('A' for Active; 'I' for Inactive)
REMARK    1  A    between atoms: C_1  and  C_2
REMARK    2  A    between atoms: C_3  and  C_4
REMARK    3  A    between atoms: C_4  and  C_5
REMARK    4  A    between atoms: N_7  and  CA_8
REMARK    5  A    between atoms: CA_8  and  CB_9
REMARK    6  A    between atoms: CA_8  and  C_10
REMARK    7  A    between atoms: C_10  and  OXT_12
REMARK    8  A    between atoms: C_24  and  C_25
REMARK    9  A    between atoms: C_24  and  C_26
REMARK                            x       y       z     vdW  Elec       q    Type
REMARK                         _______ _______ _______ _____ _____    ______ ____
ROOT
ATOM      1  C   UNK A   0       1.697   9.945  17.821  0.00  0.00    +0.000 C 
ATOM      2  C   UNK A   0       1.402   9.248  19.126  0.00  0.00    +0.000 A 
ATOM      3  C   UNK A   0       0.691   9.803  20.128  0.00  0.00    +0.000 A 
ATOM      4  C   UNK A   0       0.518   9.107  21.431  0.00  0.00    +0.000 A 
ATOM      5  O   UNK A   0       0.045   9.699  22.395  0.00  0.00    +0.000 OA
ATOM      6  O   UNK A   0       0.891   7.773  21.499  0.00  0.00    +0.000 OA
ATOM      7  C   UNK A   0       1.601   7.164  20.447  0.00  0.00    +0.000 A 
ATOM      8  C   UNK A   0       1.977   5.827  20.621  0.00  0.00    +0.000 A 
ATOM      9  C   UNK A   0       2.699   5.182  19.619  0.00  0.00    +0.000 A 
ATOM     10  C   UNK A   0       3.085   5.892  18.476  0.00  0.00    +0.000 A 
ATOM     11  C   UNK A   0       2.673   7.224  18.316  0.00  0.00    +0.000 A 
ATOM     12  C   UNK A   0       1.915   7.877  19.295  0.00  0.00    +0.000 A 
ATOM     13  C   UNK A   0       3.891   5.250  17.385  0.00  0.00    +0.000 C 
ATOM     14  C   UNK A   0       4.486   3.941  17.868  0.00  0.00    +0.000 C 
ATOM     15  C   UNK A   0       3.446   3.129  18.652  0.00  0.00    +0.000 C 
ATOM     16  C   UNK A   0       2.223   2.735  17.805  0.00  0.00    +0.000 C 
ATOM     17  C   UNK A   0       4.118   1.842  19.151  0.00  0.00    +0.000 C 
ATOM     18  O   UNK A   0       3.002   3.860  19.817  0.00  0.00    +0.000 OA
ENDROOT
BRANCH   3  19
ATOM     19  C   UNK A   0      -0.010  11.135  20.054  0.00  0.00    +0.000 C 
BRANCH  19  20
ATOM     20  C   UNK A   0       0.989  12.263  20.217  0.00  0.00    +0.000 C 
ATOM     21  O   UNK A   0       1.737  12.373  21.188  0.00  0.00    +0.000 OA
ATOM     22  N   ALA A   1       0.969  13.216  19.231  0.00  0.00    +0.000 N 
ATOM     23  H   ALA A   1       0.095  13.328  18.716  0.00  0.00    +0.000 HD
BRANCH  22  24
ATOM     24  CA  ALA A   1       1.916  14.335  19.226  0.00  0.00    +0.000 C 
ATOM     25  CB  ALA A   1       3.028  14.072  18.220  0.00  0.00    +0.000 C 
BRANCH  24  26
ATOM     26  C   ALA A   1       1.213  15.679  18.960  0.00  0.00    +0.000 C 
ATOM     27  O   ALA A   1       1.727  16.778  19.118  0.00  0.00    +0.000 OA
BRANCH  26  28
ATOM     28  OXT ALA A   1      -0.092  15.545  18.613  0.00  0.00    +0.000 OA
ATOM     29  HXT ALA A   1      -0.661  16.255  18.999  0.00  0.00    +0.000 HD
ENDBRANCH  26  28
ENDBRANCH  24  26
ENDBRANCH  22  24
ENDBRANCH  19  20
ENDBRANCH   3  19
TORSDOF 5
ENDMDL
MODEL 5
REMARK VINA RESULT:      -7.3      3.077      8.507
REMARK  Name = 
REMARK  9 active torsions:
REMARK  status: ('A' for Active; 'I' for Inactive)
REMARK    1  A    between atoms: C_1  and  C_2
REMARK    2  A    between atoms: C_3  and  C_4
REMARK    3  A    between atoms: C_4  and  C_5
REMARK    4  A    between atoms: N_7  and  CA_8
REMARK    5  A    between atoms: CA_8  and  CB_9
REMARK    6  A    between atoms: CA_8  and  C_10
REMARK    7  A    between atoms: C_10  and  OXT_12
REMARK    8  A    between atoms: C_24  and  C_25
REMARK    9  A    between atoms: C_24  and  C_26
REMARK                            x       y       z     vdW  Elec       q    Type
REMARK                         _______ _______ _______ _____ _____    ______ ____
ROOT
ATOM      1  C   UNK A   0       2.069   9.917  17.572  0.00  0.00    +0.000 C 
ATOM      2  C   UNK A   0       1.556   9.307  18.852  0.00  0.00    +0.000 A 
ATOM      3  C   UNK A   0       0.672   9.913  19.670  0.00  0.00    +0.000 A 
ATOM      4  C   UNK A   0       0.279   9.306  20.969  0.00  0.00    +0.000 A 
ATOM      5  O   UNK A   0      -0.365   9.952  21.790  0.00  0.00    +0.000 OA
ATOM      6  O   UNK A   0       0.651   7.990  21.200  0.00  0.00    +0.000 OA
ATOM      7  C   UNK A   0       1.544   7.326  20.337  0.00  0.00    +0.000 A 
ATOM      8  C   UNK A   0       1.899   6.015  20.673  0.00  0.00    +0.000 A 
ATOM      9  C   UNK A   0       2.795   5.319  19.863  0.00  0.00    +0.000 A 
ATOM     10  C   UNK A   0       3.369   5.957  18.757  0.00  0.00    +0.000 A 
ATOM     11  C   UNK A   0       2.975   7.263  18.429  0.00  0.00    +0.000 A 
ATOM     12  C   UNK A   0       2.048   7.965  19.209  0.00  0.00    +0.000 A 
ATOM     13  C   UNK A   0       4.364   5.260  17.875  0.00  0.00    +0.000 C 
ATOM     14  C   UNK A   0       4.880   4.005  18.551  0.00  0.00    +0.000 C 
ATOM     15  C   UNK A   0       3.728   3.224  19.196  0.00  0.00    +0.000 C 
ATOM     16  C   UNK A   0       2.679   2.740  18.179  0.00  0.00    +0.000 C 
ATOM     17  C   UNK A   0       4.317   1.992  19.899  0.00  0.00    +0.000 C 
ATOM     18  O   UNK A   0       3.075   4.022  20.209  0.00  0.00    +0.000 OA
ENDROOT
BRANCH   3  19
ATOM     19  C   UNK A   0      -0.021  11.219  19.376  0.00  0.00    +0.000 C 
BRANCH  19  20
ATOM     20  C   UNK A   0      -1.386  10.964  18.769  0.00  0.00    +0.000 C 
ATOM     21  O   UNK A   0      -2.427  11.451  19.209  0.00  0.00    +0.000 OA
ATOM     22  N   ALA A   1      -1.409  10.086  17.716  0.00  0.00    +0.000 N 
ATOM     23  H   ALA A   1      -0.652   9.404  17.668  0.00  0.00    +0.000 HD
BRANCH  22  24
ATOM     24  CA  ALA A   1      -2.649   9.787  16.993  0.00  0.00    +0.000 C 
ATOM     25  CB  ALA A   1      -3.751   9.424  17.979  0.00  0.00    +0.000 C 
BRANCH  24  26
ATOM     26  C   ALA A   1      -3.069  10.948  16.073  0.00  0.00    +0.000 C 
ATOM     27  O   ALA A   1      -2.719  11.075  14.908  0.00  0.00    +0.000 OA
BRANCH  26  28
ATOM     28  OXT ALA A   1      -3.807  11.897  16.703  0.00  0.00    +0.000 OA
ATOM     29  HXT ALA A   1      -4.701  12.011  16.298  0.00  0.00    +0.000 HD
ENDBRANCH  26  28
ENDBRANCH  24  26
ENDBRANCH  22  24
ENDBRANCH  19  20
ENDBRANCH   3  19
TORSDOF 5
ENDMDL
MODEL 6
REMARK VINA RESULT:      -7.2      3.047      8.316
REMARK  Name = 
REMARK  9 active torsions:
REMARK  status: ('A' for Active; 'I' for Inactive)
REMARK    1  A    between atoms: C_1  and  C_2
REMARK    2  A    between atoms: C_3  and  C_4
REMARK    3  A    between atoms: C_4  and  C_5
REMARK    4  A    between atoms: N_7  and  CA_8
REMARK    5  A    between atoms: CA_8  and  CB_9
REMARK    6  A    between atoms: CA_8  and  C_10
REMARK    7  A    between atoms: C_10  and  OXT_12
REMARK    8  A    between atoms: C_24  and  C_25
REMARK    9  A    between atoms: C_24  and  C_26
REMARK                            x       y       z     vdW  Elec       q    Type
REMARK                         _______ _______ _______ _____ _____    ______ ____
ROOT
ATOM      1  C   UNK A   0       0.428   8.588  21.556  0.00  0.00    +0.000 C 
ATOM      2  C   UNK A   0       1.152   8.551  20.233  0.00  0.00    +0.000 A 
ATOM      3  C   UNK A   0       1.413   9.645  19.490  0.00  0.00    +0.000 A 
ATOM      4  C   UNK A   0       2.040   9.535  18.146  0.00  0.00    +0.000 A 
ATOM      5  O   UNK A   0       2.089  10.508  17.400  0.00  0.00    +0.000 OA
ATOM      6  O   UNK A   0       2.576   8.308  17.788  0.00  0.00    +0.000 OA
ATOM      7  C   UNK A   0       2.347   7.160  18.570  0.00  0.00    +0.000 A 
ATOM      8  C   UNK A   0       2.887   5.955  18.108  0.00  0.00    +0.000 A 
ATOM      9  C   UNK A   0       2.674   4.784  18.834  0.00  0.00    +0.000 A 
ATOM     10  C   UNK A   0       1.878   4.819  19.985  0.00  0.00    +0.000 A 
ATOM     11  C   UNK A   0       1.370   6.045  20.440  0.00  0.00    +0.000 A 
ATOM     12  C   UNK A   0       1.605   7.237  19.744  0.00  0.00    +0.000 A 
ATOM     13  C   UNK A   0       1.593   3.579  20.782  0.00  0.00    +0.000 C 
ATOM     14  C   UNK A   0       1.958   2.342  19.984  0.00  0.00    +0.000 C 
ATOM     15  C   UNK A   0       3.313   2.528  19.287  0.00  0.00    +0.000 C 
ATOM     16  C   UNK A   0       4.476   2.738  20.272  0.00  0.00    +0.000 C 
ATOM     17  C   UNK A   0       3.606   1.266  18.463  0.00  0.00    +0.000 C 
ATOM     18  O   UNK A   0       3.264   3.639  18.365  0.00  0.00    +0.000 OA
ENDROOT
BRANCH   3  19
ATOM     19  C   UNK A   0       1.134  11.064  19.916  0.00  0.00    +0.000 C 
BRANCH  19  20
ATOM     20  C   UNK A   0       0.061  11.674  19.036  0.00  0.00    +0.000 C 
ATOM     21  O   UNK A   0       0.013  12.871  18.756  0.00  0.00    +0.000 OA
ATOM     22  N   ALA A   1      -0.917  10.811  18.613  0.00  0.00    +0.000 N 
ATOM     23  H   ALA A   1      -1.085   9.987  19.190  0.00  0.00    +0.000 HD
BRANCH  22  24
ATOM     24  CA  ALA A   1      -1.988  11.248  17.712  0.00  0.00    +0.000 C 
ATOM     25  CB  ALA A   1      -2.248  10.182  16.657  0.00  0.00    +0.000 C 
BRANCH  24  26
ATOM     26  C   ALA A   1      -3.271  11.613  18.482  0.00  0.00    +0.000 C 
ATOM     27  O   ALA A   1      -4.352  11.062  18.334  0.00  0.00    +0.000 OA
BRANCH  26  28
ATOM     28  OXT ALA A   1      -3.123  12.688  19.298  0.00  0.00    +0.000 OA
ATOM     29  HXT ALA A   1      -2.301  13.201  19.102  0.00  0.00    +0.000 HD
ENDBRANCH  26  28
ENDBRANCH  24  26
ENDBRANCH  22  24
ENDBRANCH  19  20
ENDBRANCH   3  19
TORSDOF 5
ENDMDL
MODEL 7
REMARK VINA RESULT:      -7.2      3.211      8.668
REMARK  Name = 
REMARK  9 active torsions:
REMARK  status: ('A' for Active; 'I' for Inactive)
REMARK    1  A    between atoms: C_1  and  C_2
REMARK    2  A    between atoms: C_3  and  C_4
REMARK    3  A    between atoms: C_4  and  C_5
REMARK    4  A    between atoms: N_7  and  CA_8
REMARK    5  A    between atoms: CA_8  and  CB_9
REMARK    6  A    between atoms: CA_8  and  C_10
REMARK    7  A    between atoms: C_10  and  OXT_12
REMARK    8  A    between atoms: C_24  and  C_25
REMARK    9  A    between atoms: C_24  and  C_26
REMARK                            x       y       z     vdW  Elec       q    Type
REMARK                         _______ _______ _______ _____ _____    ______ ____
ROOT
ATOM      1  C   UNK A   0       1.953   9.710  17.607  0.00  0.00    +0.000 C 
ATOM      2  C   UNK A   0       1.514   9.097  18.913  0.00  0.00    +0.000 A 
ATOM      3  C   UNK A   0       0.663   9.692  19.773  0.00  0.00    +0.000 A 
ATOM      4  C   UNK A   0       0.345   9.084  21.092  0.00  0.00    +0.000 A 
ATOM      5  O   UNK A   0      -0.266   9.723  21.942  0.00  0.00    +0.000 OA
ATOM      6  O   UNK A   0       0.748   7.775  21.308  0.00  0.00    +0.000 OA
ATOM      7  C   UNK A   0       1.607   7.122  20.404  0.00  0.00    +0.000 A 
ATOM      8  C   UNK A   0       1.999   5.818  20.725  0.00  0.00    +0.000 A 
ATOM      9  C   UNK A   0       2.865   5.132  19.873  0.00  0.00    +0.000 A 
ATOM     10  C   UNK A   0       3.372   5.775  18.738  0.00  0.00    +0.000 A 
ATOM     11  C   UNK A   0       2.942   7.074  18.426  0.00  0.00    +0.000 A 
ATOM     12  C   UNK A   0       2.044   7.764  19.249  0.00  0.00    +0.000 A 
ATOM     13  C   UNK A   0       4.332   5.090  17.810  0.00  0.00    +0.000 C 
ATOM     14  C   UNK A   0       4.901   3.845  18.462  0.00  0.00    +0.000 C 
ATOM     15  C   UNK A   0       3.795   3.049  19.167  0.00  0.00    +0.000 C 
ATOM     16  C   UNK A   0       2.704   2.545  18.205  0.00  0.00    +0.000 C 
ATOM     17  C   UNK A   0       4.437   1.829  19.844  0.00  0.00    +0.000 C 
ATOM     18  O   UNK A   0       3.181   3.841  20.208  0.00  0.00    +0.000 OA
ENDROOT
BRANCH   3  19
ATOM     19  C   UNK A   0      -0.064  10.986  19.510  0.00  0.00    +0.000 C 
BRANCH  19  20
ATOM     20  C   UNK A   0      -1.298  10.734  18.667  0.00  0.00    +0.000 C 
ATOM     21  O   UNK A   0      -2.086   9.812  18.876  0.00  0.00    +0.000 OA
ATOM     22  N   ALA A   1      -1.458  11.568  17.591  0.00  0.00    +0.000 N 
ATOM     23  H   ALA A   1      -0.615  11.998  17.212  0.00  0.00    +0.000 HD
BRANCH  22  24
ATOM     24  CA  ALA A   1      -2.634  11.478  16.719  0.00  0.00    +0.000 C 
ATOM     25  CB  ALA A   1      -2.548  10.227  15.856  0.00  0.00    +0.000 C 
BRANCH  24  26
ATOM     26  C   ALA A   1      -3.946  11.527  17.523  0.00  0.00    +0.000 C 
ATOM     27  O   ALA A   1      -4.939  10.856  17.278  0.00  0.00    +0.000 OA
BRANCH  26  28
ATOM     28  OXT ALA A   1      -3.945  12.469  18.500  0.00  0.00    +0.000 OA
ATOM     29  HXT ALA A   1      -4.320  13.331  18.195  0.00  0.00    +0.000 HD
ENDBRANCH  26  28
ENDBRANCH  24  26
ENDBRANCH  22  24
ENDBRANCH  19  20
ENDBRANCH   3  19
TORSDOF 5
ENDMDL
MODEL 8
REMARK VINA RESULT:      -7.2      1.510      2.484
REMARK  Name = 
REMARK  9 active torsions:
REMARK  status: ('A' for Active; 'I' for Inactive)
REMARK    1  A    between atoms: C_1  and  C_2
REMARK    2  A    between atoms: C_3  and  C_4
REMARK    3  A    between atoms: C_4  and  C_5
REMARK    4  A    between atoms: N_7  and  CA_8
REMARK    5  A    between atoms: CA_8  and  CB_9
REMARK    6  A    between atoms: CA_8  and  C_10
REMARK    7  A    between atoms: C_10  and  OXT_12
REMARK    8  A    between atoms: C_24  and  C_25
REMARK    9  A    between atoms: C_24  and  C_26
REMARK                            x       y       z     vdW  Elec       q    Type
REMARK                         _______ _______ _______ _____ _____    ______ ____
ROOT
ATOM      1  C   UNK A   0       3.105   7.495  17.051  0.00  0.00    +0.000 C 
ATOM      2  C   UNK A   0       2.528   7.298  18.430  0.00  0.00    +0.000 A 
ATOM      3  C   UNK A   0       2.573   6.129  19.102  0.00  0.00    +0.000 A 
ATOM      4  C   UNK A   0       1.898   5.966  20.417  0.00  0.00    +0.000 A 
ATOM      5  O   UNK A   0       1.775   4.855  20.921  0.00  0.00    +0.000 OA
ATOM      6  O   UNK A   0       1.439   7.113  21.047  0.00  0.00    +0.000 OA
ATOM      7  C   UNK A   0       1.419   8.351  20.377  0.00  0.00    +0.000 A 
ATOM      8  C   UNK A   0       0.896   9.445  21.075  0.00  0.00    +0.000 A 
ATOM      9  C   UNK A   0       0.834  10.691  20.450  0.00  0.00    +0.000 A 
ATOM     10  C   UNK A   0       1.245  10.818  19.118  0.00  0.00    +0.000 A 
ATOM     11  C   UNK A   0       1.788   9.710  18.451  0.00  0.00    +0.000 A 
ATOM     12  C   UNK A   0       1.894   8.461  19.074  0.00  0.00    +0.000 A 
ATOM     13  C   UNK A   0       1.166  12.130  18.394  0.00  0.00    +0.000 C 
ATOM     14  C   UNK A   0       0.289  13.104  19.156  0.00  0.00    +0.000 C 
ATOM     15  C   UNK A   0       0.608  13.059  20.657  0.00  0.00    +0.000 C 
ATOM     16  C   UNK A   0       2.055  13.471  20.981  0.00  0.00    +0.000 C 
ATOM     17  C   UNK A   0      -0.339  14.030  21.378  0.00  0.00    +0.000 C 
ATOM     18  O   UNK A   0       0.358  11.740  21.192  0.00  0.00    +0.000 OA
ENDROOT
BRANCH   3  19
ATOM     19  C   UNK A   0       3.300   4.894  18.636  0.00  0.00    +0.000 C 
BRANCH  19  20
ATOM     20  C   UNK A   0       4.799   5.098  18.735  0.00  0.00    +0.000 C 
ATOM     21  O   UNK A   0       5.379   5.370  19.785  0.00  0.00    +0.000 OA
ATOM     22  N   ALA A   1       5.483   5.027  17.549  0.00  0.00    +0.000 N 
ATOM     23  H   ALA A   1       4.957   5.234  16.700  0.00  0.00    +0.000 HD
BRANCH  22  24
ATOM     24  CA  ALA A   1       6.943   5.149  17.498  0.00  0.00    +0.000 C 
ATOM     25  CB  ALA A   1       7.464   4.625  16.167  0.00  0.00    +0.000 C 
BRANCH  24  26
ATOM     26  C   ALA A   1       7.406   6.594  17.761  0.00  0.00    +0.000 C 
ATOM     27  O   ALA A   1       7.240   7.530  16.992  0.00  0.00    +0.000 OA
BRANCH  26  28
ATOM     28  OXT ALA A   1       8.116   6.732  18.910  0.00  0.00    +0.000 OA
ATOM     29  HXT ALA A   1       8.460   7.650  19.035  0.00  0.00    +0.000 HD
ENDBRANCH  26  28
ENDBRANCH  24  26
ENDBRANCH  22  24
ENDBRANCH  19  20
ENDBRANCH   3  19
TORSDOF 5
ENDMDL
MODEL 9
REMARK VINA RESULT:      -7.1      3.290      8.888
REMARK  Name = 
REMARK  9 active torsions:
REMARK  status: ('A' for Active; 'I' for Inactive)
REMARK    1  A    between atoms: C_1  and  C_2
REMARK    2  A    between atoms: C_3  and  C_4
REMARK    3  A    between atoms: C_4  and  C_5
REMARK    4  A    between atoms: N_7  and  CA_8
REMARK    5  A    between atoms: CA_8  and  CB_9
REMARK    6  A    between atoms: CA_8  and  C_10
REMARK    7  A    between atoms: C_10  and  OXT_12
REMARK    8  A    between atoms: C_24  and  C_25
REMARK    9  A    between atoms: C_24  and  C_26
REMARK                            x       y       z     vdW  Elec       q    Type
REMARK                         _______ _______ _______ _____ _____    ______ ____
ROOT
ATOM      1  C   UNK A   0       1.912   9.772  17.723  0.00  0.00    +0.000 C 
ATOM      2  C   UNK A   0       1.489   9.112  19.012  0.00  0.00    +0.000 A 
ATOM      3  C   UNK A   0       0.639   9.671  19.897  0.00  0.00    +0.000 A 
ATOM      4  C   UNK A   0       0.337   9.018  21.198  0.00  0.00    +0.000 A 
ATOM      5  O   UNK A   0      -0.274   9.624  22.072  0.00  0.00    +0.000 OA
ATOM      6  O   UNK A   0       0.753   7.706  21.367  0.00  0.00    +0.000 OA
ATOM      7  C   UNK A   0       1.610   7.090  20.436  0.00  0.00    +0.000 A 
ATOM      8  C   UNK A   0       2.015   5.780  20.711  0.00  0.00    +0.000 A 
ATOM      9  C   UNK A   0       2.880   5.130  19.831  0.00  0.00    +0.000 A 
ATOM     10  C   UNK A   0       3.373   5.814  18.714  0.00  0.00    +0.000 A 
ATOM     11  C   UNK A   0       2.930   7.118  18.448  0.00  0.00    +0.000 A 
ATOM     12  C   UNK A   0       2.033   7.773  19.300  0.00  0.00    +0.000 A 
ATOM     13  C   UNK A   0       4.332   5.168  17.756  0.00  0.00    +0.000 C 
ATOM     14  C   UNK A   0       4.916   3.907  18.363  0.00  0.00    +0.000 C 
ATOM     15  C   UNK A   0       3.822   3.079  19.050  0.00  0.00    +0.000 C 
ATOM     16  C   UNK A   0       2.728   2.598  18.080  0.00  0.00    +0.000 C 
ATOM     17  C   UNK A   0       4.480   1.843  19.681  0.00  0.00    +0.000 C 
ATOM     18  O   UNK A   0       3.209   3.832  20.121  0.00  0.00    +0.000 OA
ENDROOT
BRANCH   3  19
ATOM     19  C   UNK A   0      -0.101  10.967  19.682  0.00  0.00    +0.000 C 
BRANCH  19  20
ATOM     20  C   UNK A   0      -1.468  10.699  19.087  0.00  0.00    +0.000 C 
ATOM     21  O   UNK A   0      -1.740   9.688  18.440  0.00  0.00    +0.000 OA
ATOM     22  N   ALA A   1      -2.392  11.699  19.255  0.00  0.00    +0.000 N 
ATOM     23  H   ALA A   1      -2.029  12.642  19.392  0.00  0.00    +0.000 HD
BRANCH  22  24
ATOM     24  CA  ALA A   1      -3.772  11.555  18.782  0.00  0.00    +0.000 C 
ATOM     25  CB  ALA A   1      -4.655  12.618  19.420  0.00  0.00    +0.000 C 
BRANCH  24  26
ATOM     26  C   ALA A   1      -3.856  11.593  17.245  0.00  0.00    +0.000 C 
ATOM     27  O   ALA A   1      -4.833  11.254  16.592  0.00  0.00    +0.000 OA
BRANCH  26  28
ATOM     28  OXT ALA A   1      -2.692  11.957  16.649  0.00  0.00    +0.000 OA
ATOM     29  HXT ALA A   1      -2.698  12.898  16.350  0.00  0.00    +0.000 HD
ENDBRANCH  26  28
ENDBRANCH  24  26
ENDBRANCH  22  24
ENDBRANCH  19  20
ENDBRANCH   3  19
TORSDOF 5
ENDMDL
