MODEL 1
REMARK VINA RESULT:      -5.1      0.000      0.000
REMARK  Name = 
REMARK  5 active torsions:
REMARK  status: ('A' for Active; 'I' for Inactive)
REMARK    1  A    between atoms: C_1  and  C_2
REMARK    2  A    between atoms: C_2  and  O_3
REMARK    3  A    between atoms: O_3  and  C_4
REMARK    4  A    between atoms: C_4  and  C_6
REMARK    5  A    between atoms: C_6  and  C_7
REMARK                            x       y       z     vdW  Elec       q    Type
REMARK                         _______ _______ _______ _____ _____    ______ ____
ROOT
ATOM      1  C   UNL     1       4.685   4.043  17.345  0.00  0.00    +0.000 C 
ATOM      2  N   UNL     1       5.294   3.345  18.441  0.00  0.00    +0.000 N 
ATOM      3  C   UNL     1       4.510   3.038  19.521  0.00  0.00    +0.000 C 
ATOM      4  O   UNL     1       4.843   2.232  20.378  0.00  0.00    +0.000 OA
ATOM      5  C   UNL     1       3.203   3.799  19.519  0.00  0.00    +0.000 C 
ATOM      6  S   UNL     1       3.262   4.899  18.076  0.00  0.00    +0.000 S 
ATOM      7  H   UNL     1       6.106   2.756  18.284  0.00  0.00    +0.000 HD
ENDROOT
BRANCH   1   8
ATOM      8  C   UNL     1       5.618   5.023  16.646  0.00  0.00    +0.000 C 
BRANCH   8   9
ATOM      9  C   UNL     1       6.948   5.062  17.351  0.00  0.00    +0.000 C 
ATOM     10  O   UNL     1       7.916   4.372  17.065  0.00  0.00    +0.000 OA
BRANCH   9  11
ATOM     11  O   UNL     1       6.866   5.896  18.423  0.00  0.00    +0.000 OA
BRANCH  11  13
ATOM     12  C   UNL     1       7.780   7.939  17.605  0.00  0.00    +0.000 C 
ATOM     13  C   UNL     1       7.974   6.793  18.579  0.00  0.00    +0.000 C 
ENDBRANCH  11  13
ENDBRANCH   9  11
ENDBRANCH   8   9
ENDBRANCH   1   8
TORSDOF 4
ENDMDL
MODEL 2
REMARK VINA RESULT:      -4.9      2.551      2.995
REMARK  Name = 
REMARK  5 active torsions:
REMARK  status: ('A' for Active; 'I' for Inactive)
REMARK    1  A    between atoms: C_1  and  C_2
REMARK    2  A    between atoms: C_2  and  O_3
REMARK    3  A    between atoms: O_3  and  C_4
REMARK    4  A    between atoms: C_4  and  C_6
REMARK    5  A    between atoms: C_6  and  C_7
REMARK                            x       y       z     vdW  Elec       q    Type
REMARK                         _______ _______ _______ _____ _____    ______ ____
ROOT
ATOM      1  C   UNL     1       3.183   2.741  18.652  0.00  0.00    +0.000 C 
ATOM      2  N   UNL     1       3.482   2.833  20.053  0.00  0.00    +0.000 N 
ATOM      3  C   UNL     1       2.434   2.807  20.934  0.00  0.00    +0.000 C 
ATOM      4  O   UNL     1       2.577   2.616  22.133  0.00  0.00    +0.000 OA
ATOM      5  C   UNL     1       1.103   3.035  20.254  0.00  0.00    +0.000 C 
ATOM      6  S   UNL     1       1.475   3.338  18.503  0.00  0.00    +0.000 S 
ATOM      7  H   UNL     1       4.383   2.524  20.405  0.00  0.00    +0.000 HD
ENDROOT
BRANCH   1   8
ATOM      8  C   UNL     1       4.127   3.548  17.769  0.00  0.00    +0.000 C 
BRANCH   8   9
ATOM      9  C   UNL     1       4.977   4.456  18.616  0.00  0.00    +0.000 C 
ATOM     10  O   UNL     1       6.083   4.178  19.055  0.00  0.00    +0.000 OA
BRANCH   9  11
ATOM     11  O   UNL     1       4.275   5.585  18.911  0.00  0.00    +0.000 OA
BRANCH  11  13
ATOM     12  C   UNL     1       2.723   7.244  18.194  0.00  0.00    +0.000 C 
ATOM     13  C   UNL     1       3.893   6.374  17.776  0.00  0.00    +0.000 C 
ENDBRANCH  11  13
ENDBRANCH   9  11
ENDBRANCH   8   9
ENDBRANCH   1   8
TORSDOF 4
ENDMDL
MODEL 3
REMARK VINA RESULT:      -4.9      1.756      4.680
REMARK  Name = 
REMARK  5 active torsions:
REMARK  status: ('A' for Active; 'I' for Inactive)
REMARK    1  A    between atoms: C_1  and  C_2
REMARK    2  A    between atoms: C_2  and  O_3
REMARK    3  A    between atoms: O_3  and  C_4
REMARK    4  A    between atoms: C_4  and  C_6
REMARK    5  A    between atoms: C_6  and  C_7
REMARK                            x       y       z     vdW  Elec       q    Type
REMARK                         _______ _______ _______ _____ _____    ______ ____
ROOT
ATOM      1  C   UNL     1       5.373   5.356  18.895  0.00  0.00    +0.000 C 
ATOM      2  N   UNL     1       6.389   4.370  18.659  0.00  0.00    +0.000 N 
ATOM      3  C   UNL     1       7.389   4.679  17.776  0.00  0.00    +0.000 C 
ATOM      4  O   UNL     1       8.429   4.040  17.697  0.00  0.00    +0.000 OA
ATOM      5  C   UNL     1       7.058   5.889  16.931  0.00  0.00    +0.000 C 
ATOM      6  S   UNL     1       5.380   6.392  17.405  0.00  0.00    +0.000 S 
ATOM      7  H   UNL     1       6.606   3.678  19.371  0.00  0.00    +0.000 HD
ENDROOT
BRANCH   1   8
ATOM      8  C   UNL     1       3.992   4.765  19.149  0.00  0.00    +0.000 C 
BRANCH   8   9
ATOM      9  C   UNL     1       3.966   3.317  18.737  0.00  0.00    +0.000 C 
ATOM     10  O   UNL     1       3.919   2.915  17.584  0.00  0.00    +0.000 OA
BRANCH   9  11
ATOM     11  O   UNL     1       3.886   2.534  19.847  0.00  0.00    +0.000 OA
BRANCH  11  13
ATOM     12  C   UNL     1       1.545   2.439  20.280  0.00  0.00    +0.000 C 
ATOM     13  C   UNL     1       2.885   2.928  20.796  0.00  0.00    +0.000 C 
ENDBRANCH  11  13
ENDBRANCH   9  11
ENDBRANCH   8   9
ENDBRANCH   1   8
TORSDOF 4
ENDMDL
MODEL 4
REMARK VINA RESULT:      -4.9      1.938      5.010
REMARK  Name = 
REMARK  5 active torsions:
REMARK  status: ('A' for Active; 'I' for Inactive)
REMARK    1  A    between atoms: C_1  and  C_2
REMARK    2  A    between atoms: C_2  and  O_3
REMARK    3  A    between atoms: O_3  and  C_4
REMARK    4  A    between atoms: C_4  and  C_6
REMARK    5  A    between atoms: C_6  and  C_7
REMARK                            x       y       z     vdW  Elec       q    Type
REMARK                         _______ _______ _______ _____ _____    ______ ____
ROOT
ATOM      1  C   UNL     1       4.592   4.078  17.944  0.00  0.00    +0.000 C 
ATOM      2  N   UNL     1       5.804   3.718  17.265  0.00  0.00    +0.000 N 
ATOM      3  C   UNL     1       6.810   4.646  17.213  0.00  0.00    +0.000 C 
ATOM      4  O   UNL     1       7.958   4.367  16.901  0.00  0.00    +0.000 OA
ATOM      5  C   UNL     1       6.335   6.032  17.588  0.00  0.00    +0.000 C 
ATOM      6  S   UNL     1       4.549   5.891  17.881  0.00  0.00    +0.000 S 
ATOM      7  H   UNL     1       6.078   2.743  17.190  0.00  0.00    +0.000 HD
ENDROOT
BRANCH   1   8
ATOM      8  C   UNL     1       3.338   3.476  17.322  0.00  0.00    +0.000 C 
BRANCH   8   9
ATOM      9  C   UNL     1       2.954   2.216  18.052  0.00  0.00    +0.000 C 
ATOM     10  O   UNL     1       3.718   1.302  18.327  0.00  0.00    +0.000 OA
BRANCH   9  11
ATOM     11  O   UNL     1       1.608   2.204  18.252  0.00  0.00    +0.000 OA
BRANCH  11  13
ATOM     12  C   UNL     1       1.241   2.937  20.490  0.00  0.00    +0.000 C 
ATOM     13  C   UNL     1       1.101   3.301  19.024  0.00  0.00    +0.000 C 
ENDBRANCH  11  13
ENDBRANCH   9  11
ENDBRANCH   8   9
ENDBRANCH   1   8
TORSDOF 4
ENDMDL
MODEL 5
REMARK VINA RESULT:      -4.8      1.317      1.353
REMARK  Name = 
REMARK  5 active torsions:
REMARK  status: ('A' for Active; 'I' for Inactive)
REMARK    1  A    between atoms: C_1  and  C_2
REMARK    2  A    between atoms: C_2  and  O_3
REMARK    3  A    between atoms: O_3  and  C_4
REMARK    4  A    between atoms: C_4  and  C_6
REMARK    5  A    between atoms: C_6  and  C_7
REMARK                            x       y       z     vdW  Elec       q    Type
REMARK                         _______ _______ _______ _____ _____    ______ ____
ROOT
ATOM      1  C   UNL     1       4.968   4.295  17.824  0.00  0.00    +0.000 C 
ATOM      2  N   UNL     1       5.348   3.683  19.065  0.00  0.00    +0.000 N 
ATOM      3  C   UNL     1       4.562   2.671  19.548  0.00  0.00    +0.000 C 
ATOM      4  O   UNL     1       4.923   1.914  20.438  0.00  0.00    +0.000 OA
ATOM      5  C   UNL     1       3.219   2.603  18.856  0.00  0.00    +0.000 C 
ATOM      6  S   UNL     1       3.183   3.993  17.688  0.00  0.00    +0.000 S 
ATOM      7  H   UNL     1       6.320   3.687  19.360  0.00  0.00    +0.000 HD
ENDROOT
BRANCH   1   8
ATOM      8  C   UNL     1       5.282   5.783  17.752  0.00  0.00    +0.000 C 
BRANCH   8   9
ATOM      9  C   UNL     1       6.142   6.073  16.551  0.00  0.00    +0.000 C 
ATOM     10  O   UNL     1       5.738   6.162  15.401  0.00  0.00    +0.000 OA
BRANCH   9  11
ATOM     11  O   UNL     1       7.449   6.103  16.930  0.00  0.00    +0.000 OA
BRANCH  11  13
ATOM     12  C   UNL     1       7.951   8.301  17.701  0.00  0.00    +0.000 C 
ATOM     13  C   UNL     1       7.718   6.862  18.117  0.00  0.00    +0.000 C 
ENDBRANCH  11  13
ENDBRANCH   9  11
ENDBRANCH   8   9
ENDBRANCH   1   8
TORSDOF 4
ENDMDL
MODEL 6
REMARK VINA RESULT:      -4.8      1.906      4.652
REMARK  Name = 
REMARK  5 active torsions:
REMARK  status: ('A' for Active; 'I' for Inactive)
REMARK    1  A    between atoms: C_1  and  C_2
REMARK    2  A    between atoms: C_2  and  O_3
REMARK    3  A    between atoms: O_3  and  C_4
REMARK    4  A    between atoms: C_4  and  C_6
REMARK    5  A    between atoms: C_6  and  C_7
REMARK                            x       y       z     vdW  Elec       q    Type
REMARK                         _______ _______ _______ _____ _____    ______ ____
ROOT
ATOM      1  C   UNL     1       4.830   4.340  18.220  0.00  0.00    +0.000 C 
ATOM      2  N   UNL     1       5.701   4.483  19.352  0.00  0.00    +0.000 N 
ATOM      3  C   UNL     1       6.875   5.167  19.174  0.00  0.00    +0.000 C 
ATOM      4  O   UNL     1       7.556   5.572  20.105  0.00  0.00    +0.000 OA
ATOM      5  C   UNL     1       7.215   5.359  17.714  0.00  0.00    +0.000 C 
ATOM      6  S   UNL     1       5.918   4.502  16.776  0.00  0.00    +0.000 S 
ATOM      7  H   UNL     1       5.323   4.461  20.294  0.00  0.00    +0.000 HD
ENDROOT
BRANCH   1   8
ATOM      8  C   UNL     1       4.071   3.020  18.193  0.00  0.00    +0.000 C 
BRANCH   8   9
ATOM      9  C   UNL     1       3.946   2.467  19.587  0.00  0.00    +0.000 C 
ATOM     10  O   UNL     1       4.856   1.963  20.229  0.00  0.00    +0.000 OA
BRANCH   9  11
ATOM     11  O   UNL     1       2.642   2.511  19.974  0.00  0.00    +0.000 OA
BRANCH  11  13
ATOM     12  C   UNL     1       1.508   4.482  20.687  0.00  0.00    +0.000 C 
ATOM     13  C   UNL     1       2.380   3.321  21.128  0.00  0.00    +0.000 C 
ENDBRANCH  11  13
ENDBRANCH   9  11
ENDBRANCH   8   9
ENDBRANCH   1   8
TORSDOF 4
ENDMDL
MODEL 7
REMARK VINA RESULT:      -4.8      1.754      4.641
REMARK  Name = 
REMARK  5 active torsions:
REMARK  status: ('A' for Active; 'I' for Inactive)
REMARK    1  A    between atoms: C_1  and  C_2
REMARK    2  A    between atoms: C_2  and  O_3
REMARK    3  A    between atoms: O_3  and  C_4
REMARK    4  A    between atoms: C_4  and  C_6
REMARK    5  A    between atoms: C_6  and  C_7
REMARK                            x       y       z     vdW  Elec       q    Type
REMARK                         _______ _______ _______ _____ _____    ______ ____
ROOT
ATOM      1  C   UNL     1       4.922   4.850  17.868  0.00  0.00    +0.000 C 
ATOM      2  N   UNL     1       6.101   4.036  17.794  0.00  0.00    +0.000 N 
ATOM      3  C   UNL     1       7.298   4.660  17.559  0.00  0.00    +0.000 C 
ATOM      4  O   UNL     1       8.378   4.116  17.734  0.00  0.00    +0.000 OA
ATOM      5  C   UNL     1       7.120   6.080  17.071  0.00  0.00    +0.000 C 
ATOM      6  S   UNL     1       5.330   6.343  16.920  0.00  0.00    +0.000 S 
ATOM      7  H   UNL     1       6.139   3.145  18.279  0.00  0.00    +0.000 HD
ENDROOT
BRANCH   1   8
ATOM      8  C   UNL     1       3.673   4.173  17.319  0.00  0.00    +0.000 C 
BRANCH   8   9
ATOM      9  C   UNL     1       3.292   3.006  18.190  0.00  0.00    +0.000 C 
ATOM     10  O   UNL     1       2.688   2.013  17.812  0.00  0.00    +0.000 OA
BRANCH   9  11
ATOM     11  O   UNL     1       3.622   3.281  19.482  0.00  0.00    +0.000 OA
BRANCH  11  13
ATOM     12  C   UNL     1       2.118   3.882  21.230  0.00  0.00    +0.000 C 
ATOM     13  C   UNL     1       2.736   2.727  20.464  0.00  0.00    +0.000 C 
ENDBRANCH  11  13
ENDBRANCH   9  11
ENDBRANCH   8   9
ENDBRANCH   1   8
TORSDOF 4
ENDMDL
MODEL 8
REMARK VINA RESULT:      -4.8      2.093      3.126
REMARK  Name = 
REMARK  5 active torsions:
REMARK  status: ('A' for Active; 'I' for Inactive)
REMARK    1  A    between atoms: C_1  and  C_2
REMARK    2  A    between atoms: C_2  and  O_3
REMARK    3  A    between atoms: O_3  and  C_4
REMARK    4  A    between atoms: C_4  and  C_6
REMARK    5  A    between atoms: C_6  and  C_7
REMARK                            x       y       z     vdW  Elec       q    Type
REMARK                         _______ _______ _______ _____ _____    ______ ____
ROOT
ATOM      1  C   UNL     1       4.549   5.001  16.794  0.00  0.00    +0.000 C 
ATOM      2  N   UNL     1       5.187   3.991  17.590  0.00  0.00    +0.000 N 
ATOM      3  C   UNL     1       4.914   3.964  18.932  0.00  0.00    +0.000 C 
ATOM      4  O   UNL     1       5.184   3.010  19.648  0.00  0.00    +0.000 OA
ATOM      5  C   UNL     1       4.245   5.233  19.409  0.00  0.00    +0.000 C 
ATOM      6  S   UNL     1       4.155   6.330  17.965  0.00  0.00    +0.000 S 
ATOM      7  H   UNL     1       5.481   3.116  17.166  0.00  0.00    +0.000 HD
ENDROOT
BRANCH   1   8
ATOM      8  C   UNL     1       5.410   5.514  15.648  0.00  0.00    +0.000 C 
BRANCH   8   9
ATOM      9  C   UNL     1       6.790   4.918  15.731  0.00  0.00    +0.000 C 
ATOM     10  O   UNL     1       7.579   5.096  16.648  0.00  0.00    +0.000 OA
BRANCH   9  11
ATOM     11  O   UNL     1       7.063   4.248  14.578  0.00  0.00    +0.000 OA
BRANCH  11  13
ATOM     12  C   UNL     1       6.406   3.524  12.405  0.00  0.00    +0.000 C 
ATOM     13  C   UNL     1       5.915   3.914  13.786  0.00  0.00    +0.000 C 
ENDBRANCH  11  13
ENDBRANCH   9  11
ENDBRANCH   8   9
ENDBRANCH   1   8
TORSDOF 4
ENDMDL
MODEL 9
REMARK VINA RESULT:      -4.7      1.533      1.673
REMARK  Name = 
REMARK  5 active torsions:
REMARK  status: ('A' for Active; 'I' for Inactive)
REMARK    1  A    between atoms: C_1  and  C_2
REMARK    2  A    between atoms: C_2  and  O_3
REMARK    3  A    between atoms: O_3  and  C_4
REMARK    4  A    between atoms: C_4  and  C_6
REMARK    5  A    between atoms: C_6  and  C_7
REMARK                            x       y       z     vdW  Elec       q    Type
REMARK                         _______ _______ _______ _____ _____    ______ ____
ROOT
ATOM      1  C   UNL     1       4.379   3.780  17.396  0.00  0.00    +0.000 C 
ATOM      2  N   UNL     1       4.967   3.457  18.665  0.00  0.00    +0.000 N 
ATOM      3  C   UNL     1       4.357   2.498  19.429  0.00  0.00    +0.000 C 
ATOM      4  O   UNL     1       4.899   1.963  20.385  0.00  0.00    +0.000 OA
ATOM      5  C   UNL     1       2.957   2.185  18.950  0.00  0.00    +0.000 C 
ATOM      6  S   UNL     1       2.634   3.310  17.563  0.00  0.00    +0.000 S 
ATOM      7  H   UNL     1       5.960   3.600  18.819  0.00  0.00    +0.000 HD
ENDROOT
BRANCH   1   8
ATOM      8  C   UNL     1       4.520   5.247  17.010  0.00  0.00    +0.000 C 
BRANCH   8   9
ATOM      9  C   UNL     1       5.425   5.381  15.814  0.00  0.00    +0.000 C 
ATOM     10  O   UNL     1       5.438   4.626  14.853  0.00  0.00    +0.000 OA
BRANCH   9  11
ATOM     11  O   UNL     1       6.300   6.402  16.024  0.00  0.00    +0.000 OA
BRANCH  11  13
ATOM     12  C   UNL     1       7.628   7.634  17.572  0.00  0.00    +0.000 C 
ATOM     13  C   UNL     1       7.139   6.254  17.178  0.00  0.00    +0.000 C 
ENDBRANCH  11  13
ENDBRANCH   9  11
ENDBRANCH   8   9
ENDBRANCH   1   8
TORSDOF 4
ENDMDL
