MODEL 1
REMARK VINA RESULT:      -7.4      0.000      0.000
REMARK  Name = 
REMARK  4 active torsions:
REMARK  status: ('A' for Active; 'I' for Inactive)
REMARK    1  A    between atoms: C_2  and  C_3
REMARK    2  A    between atoms: C_3  and  C_4
REMARK    3  A    between atoms: C_13  and  C_14
REMARK    4  A    between atoms: C_14  and  C_15
REMARK                            x       y       z     vdW  Elec       q    Type
REMARK                         _______ _______ _______ _____ _____    ______ ____
ROOT
ATOM      1  O   UNL     1       5.738   5.442  19.720  0.00  0.00    +0.000 OA
ATOM      2  C   UNL     1       5.433   4.631  18.842  0.00  0.00    +0.000 C 
ATOM      3  N   UNL     1       5.639   4.904  17.503  0.00  0.00    +0.000 N 
ATOM      4  C   UNL     1       6.217   6.165  17.078  0.00  0.00    +0.000 C 
ATOM      5  C   UNL     1       5.452   6.490  15.808  0.00  0.00    +0.000 C 
ATOM      6  C   UNL     1       5.240   5.115  15.158  0.00  0.00    +0.000 C 
ATOM      7  C   UNL     1       5.044   4.194  16.375  0.00  0.00    +0.000 C 
ENDROOT
BRANCH   2   8
ATOM      8  C   UNL     1       4.850   3.273  19.210  0.00  0.00    +0.000 C 
BRANCH   8   9
ATOM      9  C   UNL     1       3.357   3.269  19.441  0.00  0.00    +0.000 A 
ATOM     10  C   UNL     1       2.525   2.407  18.715  0.00  0.00    +0.000 A 
ATOM     11  C   UNL     1       1.152   2.363  18.965  0.00  0.00    +0.000 A 
ATOM     12  C   UNL     1       0.593   3.178  19.949  0.00  0.00    +0.000 A 
ATOM     13  C   UNL     1       1.407   4.035  20.683  0.00  0.00    +0.000 A 
ATOM     14  C   UNL     1       2.779   4.078  20.435  0.00  0.00    +0.000 A 
ENDBRANCH   8   9
ENDBRANCH   2   8
BRANCH   6  15
ATOM     15  C   UNL     1       6.441   4.725  14.276  0.00  0.00    +0.000 C 
BRANCH  15  16
ATOM     16  C   UNL     1       6.080   3.832  13.113  0.00  0.00    +0.000 A 
ATOM     17  C   UNL     1       4.753   3.718  12.676  0.00  0.00    +0.000 A 
ATOM     18  C   UNL     1       4.430   2.898  11.593  0.00  0.00    +0.000 A 
ATOM     19  C   UNL     1       5.432   2.192  10.930  0.00  0.00    +0.000 A 
ATOM     20  C   UNL     1       6.756   2.306  11.347  0.00  0.00    +0.000 A 
ATOM     21  C   UNL     1       7.079   3.123  12.433  0.00  0.00    +0.000 A 
ENDBRANCH  15  16
ENDBRANCH   6  15
TORSDOF 4
ENDMDL
MODEL 2
REMARK VINA RESULT:      -7.3      0.532      1.534
REMARK  Name = 
REMARK  4 active torsions:
REMARK  status: ('A' for Active; 'I' for Inactive)
REMARK    1  A    between atoms: C_2  and  C_3
REMARK    2  A    between atoms: C_3  and  C_4
REMARK    3  A    between atoms: C_13  and  C_14
REMARK    4  A    between atoms: C_14  and  C_15
REMARK                            x       y       z     vdW  Elec       q    Type
REMARK                         _______ _______ _______ _____ _____    ______ ____
ROOT
ATOM      1  O   UNL     1       6.116   5.155  19.688  0.00  0.00    +0.000 OA
ATOM      2  C   UNL     1       5.639   4.420  18.819  0.00  0.00    +0.000 C 
ATOM      3  N   UNL     1       5.845   4.664  17.475  0.00  0.00    +0.000 N 
ATOM      4  C   UNL     1       6.628   5.803  17.033  0.00  0.00    +0.000 C 
ATOM      5  C   UNL     1       5.892   6.273  15.792  0.00  0.00    +0.000 C 
ATOM      6  C   UNL     1       5.411   4.965  15.147  0.00  0.00    +0.000 C 
ATOM      7  C   UNL     1       5.093   4.084  16.367  0.00  0.00    +0.000 C 
ENDROOT
BRANCH   2   8
ATOM      8  C   UNL     1       4.831   3.187  19.204  0.00  0.00    +0.000 C 
BRANCH   8   9
ATOM      9  C   UNL     1       3.406   3.471  19.617  0.00  0.00    +0.000 A 
ATOM     10  C   UNL     1       3.060   4.705  20.182  0.00  0.00    +0.000 A 
ATOM     11  C   UNL     1       1.734   4.991  20.514  0.00  0.00    +0.000 A 
ATOM     12  C   UNL     1       0.735   4.046  20.281  0.00  0.00    +0.000 A 
ATOM     13  C   UNL     1       1.062   2.818  19.713  0.00  0.00    +0.000 A 
ATOM     14  C   UNL     1       2.386   2.533  19.380  0.00  0.00    +0.000 A 
ENDBRANCH   8   9
ENDBRANCH   2   8
BRANCH   6  15
ATOM     15  C   UNL     1       6.490   4.372  14.222  0.00  0.00    +0.000 C 
BRANCH  15  16
ATOM     16  C   UNL     1       5.933   3.635  13.027  0.00  0.00    +0.000 A 
ATOM     17  C   UNL     1       6.672   2.629  12.391  0.00  0.00    +0.000 A 
ATOM     18  C   UNL     1       6.145   1.946  11.293  0.00  0.00    +0.000 A 
ATOM     19  C   UNL     1       4.869   2.255  10.827  0.00  0.00    +0.000 A 
ATOM     20  C   UNL     1       4.119   3.244  11.458  0.00  0.00    +0.000 A 
ATOM     21  C   UNL     1       4.647   3.931  12.553  0.00  0.00    +0.000 A 
ENDBRANCH  15  16
ENDBRANCH   6  15
TORSDOF 4
ENDMDL
MODEL 3
REMARK VINA RESULT:      -7.2      0.444      1.060
REMARK  Name = 
REMARK  4 active torsions:
REMARK  status: ('A' for Active; 'I' for Inactive)
REMARK    1  A    between atoms: C_2  and  C_3
REMARK    2  A    between atoms: C_3  and  C_4
REMARK    3  A    between atoms: C_13  and  C_14
REMARK    4  A    between atoms: C_14  and  C_15
REMARK                            x       y       z     vdW  Elec       q    Type
REMARK                         _______ _______ _______ _____ _____    ______ ____
ROOT
ATOM      1  O   UNL     1       5.741   4.780  19.873  0.00  0.00    +0.000 OA
ATOM      2  C   UNL     1       5.389   4.136  18.881  0.00  0.00    +0.000 C 
ATOM      3  N   UNL     1       5.664   4.576  17.600  0.00  0.00    +0.000 N 
ATOM      4  C   UNL     1       6.373   5.821  17.373  0.00  0.00    +0.000 C 
ATOM      5  C   UNL     1       5.684   6.397  16.149  0.00  0.00    +0.000 C 
ATOM      6  C   UNL     1       5.365   5.156  15.304  0.00  0.00    +0.000 C 
ATOM      7  C   UNL     1       5.042   4.096  16.370  0.00  0.00    +0.000 C 
ENDROOT
BRANCH   2   8
ATOM      8  C   UNL     1       4.668   2.803  19.037  0.00  0.00    +0.000 C 
BRANCH   8   9
ATOM      9  C   UNL     1       3.221   2.915  19.457  0.00  0.00    +0.000 A 
ATOM     10  C   UNL     1       2.885   3.242  20.777  0.00  0.00    +0.000 A 
ATOM     11  C   UNL     1       1.549   3.400  21.154  0.00  0.00    +0.000 A 
ATOM     12  C   UNL     1       0.532   3.237  20.214  0.00  0.00    +0.000 A 
ATOM     13  C   UNL     1       0.851   2.919  18.896  0.00  0.00    +0.000 A 
ATOM     14  C   UNL     1       2.185   2.763  18.519  0.00  0.00    +0.000 A 
ENDBRANCH   8   9
ENDBRANCH   2   8
BRANCH   6  15
ATOM     15  C   UNL     1       6.551   4.780  14.397  0.00  0.00    +0.000 C 
BRANCH  15  16
ATOM     16  C   UNL     1       6.171   3.910  13.223  0.00  0.00    +0.000 A 
ATOM     17  C   UNL     1       4.843   3.831  12.784  0.00  0.00    +0.000 A 
ATOM     18  C   UNL     1       4.502   3.031  11.691  0.00  0.00    +0.000 A 
ATOM     19  C   UNL     1       5.488   2.312  11.019  0.00  0.00    +0.000 A 
ATOM     20  C   UNL     1       6.814   2.392  11.438  0.00  0.00    +0.000 A 
ATOM     21  C   UNL     1       7.155   3.188  12.534  0.00  0.00    +0.000 A 
ENDBRANCH  15  16
ENDBRANCH   6  15
TORSDOF 4
ENDMDL
MODEL 4
REMARK VINA RESULT:      -7.1      1.426      7.127
REMARK  Name = 
REMARK  4 active torsions:
REMARK  status: ('A' for Active; 'I' for Inactive)
REMARK    1  A    between atoms: C_2  and  C_3
REMARK    2  A    between atoms: C_3  and  C_4
REMARK    3  A    between atoms: C_13  and  C_14
REMARK    4  A    between atoms: C_14  and  C_15
REMARK                            x       y       z     vdW  Elec       q    Type
REMARK                         _______ _______ _______ _____ _____    ______ ____
ROOT
ATOM      1  O   UNL     1       4.977   6.930  15.663  0.00  0.00    +0.000 OA
ATOM      2  C   UNL     1       5.677   6.017  16.108  0.00  0.00    +0.000 C 
ATOM      3  N   UNL     1       5.268   5.251  17.183  0.00  0.00    +0.000 N 
ATOM      4  C   UNL     1       3.997   5.501  17.837  0.00  0.00    +0.000 C 
ATOM      5  C   UNL     1       4.308   5.264  19.304  0.00  0.00    +0.000 C 
ATOM      6  C   UNL     1       5.307   4.099  19.273  0.00  0.00    +0.000 C 
ATOM      7  C   UNL     1       6.112   4.379  17.993  0.00  0.00    +0.000 C 
ENDROOT
BRANCH   2   8
ATOM      8  C   UNL     1       7.010   5.673  15.455  0.00  0.00    +0.000 C 
BRANCH   8   9
ATOM      9  C   UNL     1       6.897   4.904  14.159  0.00  0.00    +0.000 A 
ATOM     10  C   UNL     1       5.892   3.944  13.986  0.00  0.00    +0.000 A 
ATOM     11  C   UNL     1       5.751   3.271  12.770  0.00  0.00    +0.000 A 
ATOM     12  C   UNL     1       6.612   3.553  11.710  0.00  0.00    +0.000 A 
ATOM     13  C   UNL     1       7.612   4.510  11.865  0.00  0.00    +0.000 A 
ATOM     14  C   UNL     1       7.752   5.184  13.078  0.00  0.00    +0.000 A 
ENDBRANCH   8   9
ENDBRANCH   2   8
BRANCH   6  15
ATOM     15  C   UNL     1       4.579   2.742  19.259  0.00  0.00    +0.000 C 
BRANCH  15  16
ATOM     16  C   UNL     1       3.114   2.831  19.620  0.00  0.00    +0.000 A 
ATOM     17  C   UNL     1       2.711   3.114  20.932  0.00  0.00    +0.000 A 
ATOM     18  C   UNL     1       1.355   3.203  21.254  0.00  0.00    +0.000 A 
ATOM     19  C   UNL     1       0.390   3.022  20.265  0.00  0.00    +0.000 A 
ATOM     20  C   UNL     1       0.779   2.753  18.955  0.00  0.00    +0.000 A 
ATOM     21  C   UNL     1       2.134   2.658  18.634  0.00  0.00    +0.000 A 
ENDBRANCH  15  16
ENDBRANCH   6  15
TORSDOF 4
ENDMDL
MODEL 5
REMARK VINA RESULT:      -7.1      3.374      5.181
REMARK  Name = 
REMARK  4 active torsions:
REMARK  status: ('A' for Active; 'I' for Inactive)
REMARK    1  A    between atoms: C_2  and  C_3
REMARK    2  A    between atoms: C_3  and  C_4
REMARK    3  A    between atoms: C_13  and  C_14
REMARK    4  A    between atoms: C_14  and  C_15
REMARK                            x       y       z     vdW  Elec       q    Type
REMARK                         _______ _______ _______ _____ _____    ______ ____
ROOT
ATOM      1  O   UNL     1       0.351   3.907  20.131  0.00  0.00    +0.000 OA
ATOM      2  C   UNL     1       1.524   4.288  20.107  0.00  0.00    +0.000 C 
ATOM      3  N   UNL     1       2.452   3.716  19.258  0.00  0.00    +0.000 N 
ATOM      4  C   UNL     1       2.080   2.635  18.363  0.00  0.00    +0.000 C 
ATOM      5  C   UNL     1       3.298   1.731  18.382  0.00  0.00    +0.000 C 
ATOM      6  C   UNL     1       4.472   2.717  18.470  0.00  0.00    +0.000 C 
ATOM      7  C   UNL     1       3.902   3.841  19.352  0.00  0.00    +0.000 C 
ENDROOT
BRANCH   2   8
ATOM      8  C   UNL     1       1.985   5.438  20.993  0.00  0.00    +0.000 C 
BRANCH   8   9
ATOM      9  C   UNL     1       1.831   6.809  20.377  0.00  0.00    +0.000 A 
ATOM     10  C   UNL     1       2.344   7.078  19.101  0.00  0.00    +0.000 A 
ATOM     11  C   UNL     1       2.156   8.327  18.506  0.00  0.00    +0.000 A 
ATOM     12  C   UNL     1       1.448   9.323  19.177  0.00  0.00    +0.000 A 
ATOM     13  C   UNL     1       0.926   9.068  20.443  0.00  0.00    +0.000 A 
ATOM     14  C   UNL     1       1.112   7.820  21.037  0.00  0.00    +0.000 A 
ENDBRANCH   8   9
ENDBRANCH   2   8
BRANCH   6  15
ATOM     15  C   UNL     1       4.907   3.190  17.071  0.00  0.00    +0.000 C 
BRANCH  15  16
ATOM     16  C   UNL     1       5.514   4.573  17.055  0.00  0.00    +0.000 A 
ATOM     17  C   UNL     1       4.773   5.681  16.621  0.00  0.00    +0.000 A 
ATOM     18  C   UNL     1       5.339   6.957  16.619  0.00  0.00    +0.000 A 
ATOM     19  C   UNL     1       6.648   7.140  17.061  0.00  0.00    +0.000 A 
ATOM     20  C   UNL     1       7.390   6.049  17.507  0.00  0.00    +0.000 A 
ATOM     21  C   UNL     1       6.826   4.772  17.505  0.00  0.00    +0.000 A 
ENDBRANCH  15  16
ENDBRANCH   6  15
TORSDOF 4
ENDMDL
MODEL 6
REMARK VINA RESULT:      -7.1      1.417      7.134
REMARK  Name = 
REMARK  4 active torsions:
REMARK  status: ('A' for Active; 'I' for Inactive)
REMARK    1  A    between atoms: C_2  and  C_3
REMARK    2  A    between atoms: C_3  and  C_4
REMARK    3  A    between atoms: C_13  and  C_14
REMARK    4  A    between atoms: C_14  and  C_15
REMARK                            x       y       z     vdW  Elec       q    Type
REMARK                         _______ _______ _______ _____ _____    ______ ____
ROOT
ATOM      1  O   UNL     1       4.896   6.918  15.654  0.00  0.00    +0.000 OA
ATOM      2  C   UNL     1       5.611   6.016  16.097  0.00  0.00    +0.000 C 
ATOM      3  N   UNL     1       5.227   5.260  17.188  0.00  0.00    +0.000 N 
ATOM      4  C   UNL     1       3.965   5.506  17.861  0.00  0.00    +0.000 C 
ATOM      5  C   UNL     1       4.303   5.290  19.325  0.00  0.00    +0.000 C 
ATOM      6  C   UNL     1       5.312   4.133  19.291  0.00  0.00    +0.000 C 
ATOM      7  C   UNL     1       6.093   4.405  17.994  0.00  0.00    +0.000 C 
ENDROOT
BRANCH   2   8
ATOM      8  C   UNL     1       6.936   5.676  15.426  0.00  0.00    +0.000 C 
BRANCH   8   9
ATOM      9  C   UNL     1       6.806   4.950  14.107  0.00  0.00    +0.000 A 
ATOM     10  C   UNL     1       7.716   5.189  13.069  0.00  0.00    +0.000 A 
ATOM     11  C   UNL     1       7.631   4.479  11.869  0.00  0.00    +0.000 A 
ATOM     12  C   UNL     1       6.638   3.516  11.694  0.00  0.00    +0.000 A 
ATOM     13  C   UNL     1       5.730   3.263  12.719  0.00  0.00    +0.000 A 
ATOM     14  C   UNL     1       5.815   3.971  13.918  0.00  0.00    +0.000 A 
ENDBRANCH   8   9
ENDBRANCH   2   8
BRANCH   6  15
ATOM     15  C   UNL     1       4.596   2.770  19.306  0.00  0.00    +0.000 C 
BRANCH  15  16
ATOM     16  C   UNL     1       3.120   2.858  19.617  0.00  0.00    +0.000 A 
ATOM     17  C   UNL     1       2.159   2.634  18.623  0.00  0.00    +0.000 A 
ATOM     18  C   UNL     1       0.797   2.709  18.922  0.00  0.00    +0.000 A 
ATOM     19  C   UNL     1       0.383   2.996  20.221  0.00  0.00    +0.000 A 
ATOM     20  C   UNL     1       1.329   3.207  21.221  0.00  0.00    +0.000 A 
ATOM     21  C   UNL     1       2.691   3.138  20.922  0.00  0.00    +0.000 A 
ENDBRANCH  15  16
ENDBRANCH   6  15
TORSDOF 4
ENDMDL
MODEL 7
REMARK VINA RESULT:      -7.1      1.444      7.184
REMARK  Name = 
REMARK  4 active torsions:
REMARK  status: ('A' for Active; 'I' for Inactive)
REMARK    1  A    between atoms: C_2  and  C_3
REMARK    2  A    between atoms: C_3  and  C_4
REMARK    3  A    between atoms: C_13  and  C_14
REMARK    4  A    between atoms: C_14  and  C_15
REMARK                            x       y       z     vdW  Elec       q    Type
REMARK                         _______ _______ _______ _____ _____    ______ ____
ROOT
ATOM      1  O   UNL     1       4.943   6.923  15.699  0.00  0.00    +0.000 OA
ATOM      2  C   UNL     1       5.649   6.014  16.144  0.00  0.00    +0.000 C 
ATOM      3  N   UNL     1       5.247   5.250  17.223  0.00  0.00    +0.000 N 
ATOM      4  C   UNL     1       3.977   5.495  17.881  0.00  0.00    +0.000 C 
ATOM      5  C   UNL     1       4.293   5.264  19.347  0.00  0.00    +0.000 C 
ATOM      6  C   UNL     1       5.297   4.103  19.317  0.00  0.00    +0.000 C 
ATOM      7  C   UNL     1       6.097   4.384  18.033  0.00  0.00    +0.000 C 
ENDROOT
BRANCH   2   8
ATOM      8  C   UNL     1       6.981   5.675  15.488  0.00  0.00    +0.000 C 
BRANCH   8   9
ATOM      9  C   UNL     1       6.867   4.983  14.150  0.00  0.00    +0.000 A 
ATOM     10  C   UNL     1       7.744   5.302  13.106  0.00  0.00    +0.000 A 
ATOM     11  C   UNL     1       7.675   4.626  11.885  0.00  0.00    +0.000 A 
ATOM     12  C   UNL     1       6.731   3.617  11.696  0.00  0.00    +0.000 A 
ATOM     13  C   UNL     1       5.858   3.283  12.728  0.00  0.00    +0.000 A 
ATOM     14  C   UNL     1       5.927   3.958  13.947  0.00  0.00    +0.000 A 
ENDBRANCH   8   9
ENDBRANCH   2   8
BRANCH   6  15
ATOM     15  C   UNL     1       4.575   2.743  19.309  0.00  0.00    +0.000 C 
BRANCH  15  16
ATOM     16  C   UNL     1       3.114   2.825  19.681  0.00  0.00    +0.000 A 
ATOM     17  C   UNL     1       2.718   3.075  21.001  0.00  0.00    +0.000 A 
ATOM     18  C   UNL     1       1.365   3.159  21.334  0.00  0.00    +0.000 A 
ATOM     19  C   UNL     1       0.394   3.005  20.347  0.00  0.00    +0.000 A 
ATOM     20  C   UNL     1       0.774   2.768  19.028  0.00  0.00    +0.000 A 
ATOM     21  C   UNL     1       2.127   2.679  18.696  0.00  0.00    +0.000 A 
ENDBRANCH  15  16
ENDBRANCH   6  15
TORSDOF 4
ENDMDL
MODEL 8
REMARK VINA RESULT:      -7.0      2.962      7.381
REMARK  Name = 
REMARK  4 active torsions:
REMARK  status: ('A' for Active; 'I' for Inactive)
REMARK    1  A    between atoms: C_2  and  C_3
REMARK    2  A    between atoms: C_3  and  C_4
REMARK    3  A    between atoms: C_13  and  C_14
REMARK    4  A    between atoms: C_14  and  C_15
REMARK                            x       y       z     vdW  Elec       q    Type
REMARK                         _______ _______ _______ _____ _____    ______ ____
ROOT
ATOM      1  O   UNL     1       4.017   1.494  18.513  0.00  0.00    +0.000 OA
ATOM      2  C   UNL     1       3.469   2.561  18.226  0.00  0.00    +0.000 C 
ATOM      3  N   UNL     1       2.850   3.337  19.187  0.00  0.00    +0.000 N 
ATOM      4  C   UNL     1       2.815   2.919  20.576  0.00  0.00    +0.000 C 
ATOM      5  C   UNL     1       1.434   3.351  21.036  0.00  0.00    +0.000 C 
ATOM      6  C   UNL     1       1.208   4.674  20.291  0.00  0.00    +0.000 C 
ATOM      7  C   UNL     1       1.910   4.426  18.944  0.00  0.00    +0.000 C 
ENDROOT
BRANCH   2   8
ATOM      8  C   UNL     1       3.491   3.083  16.795  0.00  0.00    +0.000 C 
BRANCH   8   9
ATOM      9  C   UNL     1       4.626   4.032  16.488  0.00  0.00    +0.000 A 
ATOM     10  C   UNL     1       4.568   5.369  16.901  0.00  0.00    +0.000 A 
ATOM     11  C   UNL     1       5.639   6.235  16.667  0.00  0.00    +0.000 A 
ATOM     12  C   UNL     1       6.785   5.772  16.020  0.00  0.00    +0.000 A 
ATOM     13  C   UNL     1       6.860   4.444  15.611  0.00  0.00    +0.000 A 
ATOM     14  C   UNL     1       5.791   3.579  15.845  0.00  0.00    +0.000 A 
ENDBRANCH   8   9
ENDBRANCH   2   8
BRANCH   6  15
ATOM     15  C   UNL     1       1.788   5.862  21.080  0.00  0.00    +0.000 C 
BRANCH  15  16
ATOM     16  C   UNL     1       1.608   7.196  20.395  0.00  0.00    +0.000 A 
ATOM     17  C   UNL     1       0.899   8.235  21.013  0.00  0.00    +0.000 A 
ATOM     18  C   UNL     1       0.745   9.467  20.377  0.00  0.00    +0.000 A 
ATOM     19  C   UNL     1       1.309   9.679  19.120  0.00  0.00    +0.000 A 
ATOM     20  C   UNL     1       2.027   8.659  18.500  0.00  0.00    +0.000 A 
ATOM     21  C   UNL     1       2.177   7.424  19.134  0.00  0.00    +0.000 A 
ENDBRANCH  15  16
ENDBRANCH   6  15
TORSDOF 4
ENDMDL
MODEL 9
REMARK VINA RESULT:      -6.9      3.089      7.612
REMARK  Name = 
REMARK  4 active torsions:
REMARK  status: ('A' for Active; 'I' for Inactive)
REMARK    1  A    between atoms: C_2  and  C_3
REMARK    2  A    between atoms: C_3  and  C_4
REMARK    3  A    between atoms: C_13  and  C_14
REMARK    4  A    between atoms: C_14  and  C_15
REMARK                            x       y       z     vdW  Elec       q    Type
REMARK                         _______ _______ _______ _____ _____    ______ ____
ROOT
ATOM      1  O   UNL     1       3.902   1.601  18.564  0.00  0.00    +0.000 OA
ATOM      2  C   UNL     1       3.448   2.708  18.263  0.00  0.00    +0.000 C 
ATOM      3  N   UNL     1       2.817   3.508  19.197  0.00  0.00    +0.000 N 
ATOM      4  C   UNL     1       2.658   3.070  20.571  0.00  0.00    +0.000 C 
ATOM      5  C   UNL     1       1.280   3.588  20.945  0.00  0.00    +0.000 C 
ATOM      6  C   UNL     1       1.196   4.935  20.214  0.00  0.00    +0.000 C 
ATOM      7  C   UNL     1       1.971   4.663  18.914  0.00  0.00    +0.000 C 
ENDROOT
BRANCH   2   8
ATOM      8  C   UNL     1       3.604   3.251  16.848  0.00  0.00    +0.000 C 
BRANCH   8   9
ATOM      9  C   UNL     1       4.832   4.104  16.633  0.00  0.00    +0.000 A 
ATOM     10  C   UNL     1       5.765   3.772  15.642  0.00  0.00    +0.000 A 
ATOM     11  C   UNL     1       6.873   4.589  15.404  0.00  0.00    +0.000 A 
ATOM     12  C   UNL     1       7.060   5.751  16.151  0.00  0.00    +0.000 A 
ATOM     13  C   UNL     1       6.137   6.098  17.135  0.00  0.00    +0.000 A 
ATOM     14  C   UNL     1       5.030   5.283  17.372  0.00  0.00    +0.000 A 
ENDBRANCH   8   9
ENDBRANCH   2   8
BRANCH   6  15
ATOM     15  C   UNL     1       1.799   6.068  21.066  0.00  0.00    +0.000 C 
BRANCH  15  16
ATOM     16  C   UNL     1       1.383   7.452  20.625  0.00  0.00    +0.000 A 
ATOM     17  C   UNL     1       0.527   8.233  21.413  0.00  0.00    +0.000 A 
ATOM     18  C   UNL     1       0.156   9.514  21.002  0.00  0.00    +0.000 A 
ATOM     19  C   UNL     1       0.645  10.032  19.804  0.00  0.00    +0.000 A 
ATOM     20  C   UNL     1       1.506   9.270  19.018  0.00  0.00    +0.000 A 
ATOM     21  C   UNL     1       1.874   7.986  19.426  0.00  0.00    +0.000 A 
ENDBRANCH  15  16
ENDBRANCH   6  15
TORSDOF 4
ENDMDL
