MODEL 1
REMARK VINA RESULT:      -7.0      0.000      0.000
REMARK  Name = 
REMARK  14 active torsions:
REMARK  status: ('A' for Active; 'I' for Inactive)
REMARK    1  A    between atoms: C_1  and  C_2
REMARK    2  A    between atoms: C_2  and  C_3
REMARK    3  A    between atoms: C_3  and  C_4
REMARK    4  A    between atoms: C_4  and  C_5
REMARK    5  A    between atoms: C_4  and  N_6
REMARK    6  A    between atoms: C_7  and  C_9
REMARK    7  A    between atoms: C_11  and  C_12
REMARK    8  A    between atoms: C_14  and  O_15
REMARK    9  A    between atoms: O_15  and  C_16
REMARK   10  A    between atoms: C_17  and  O_18
REMARK   11  A    between atoms: O_18  and  C_19
REMARK   12  A    between atoms: C_20  and  O_21
REMARK   13  A    between atoms: O_21  and  C_22
REMARK   14  A    between atoms: C_26  and  N_27
REMARK                            x       y       z     vdW  Elec       q    Type
REMARK                         _______ _______ _______ _____ _____    ______ ____
ROOT
ATOM      1  C   UNL     1       0.251  10.234  20.008  0.00  0.00    +0.000 A 
ATOM      2  N   UNL     1       0.831   9.073  19.561  0.00  0.00    +0.000 NA
ATOM      3  C   UNL     1       1.429   8.307  20.517  0.00  0.00    +0.000 A 
ATOM      4  C   UNL     1       1.462   8.727  21.844  0.00  0.00    +0.000 A 
ATOM      5  N   UNL     1       0.909   9.886  22.283  0.00  0.00    +0.000 NA
ATOM      6  C   UNL     1       0.289  10.641  21.352  0.00  0.00    +0.000 A 
ENDROOT
BRANCH   3   7
ATOM      7  C   UNL     1       2.045   7.042  20.067  0.00  0.00    +0.000 A 
ATOM      8  C   UNL     1       2.678   6.978  18.822  0.00  0.00    +0.000 A 
ATOM      9  C   UNL     1       3.301   5.807  18.373  0.00  0.00    +0.000 A 
ATOM     10  C   UNL     1       3.264   4.640  19.162  0.00  0.00    +0.000 A 
ATOM     11  C   UNL     1       2.610   4.668  20.411  0.00  0.00    +0.000 A 
ATOM     12  C   UNL     1       2.025   5.870  20.849  0.00  0.00    +0.000 A 
BRANCH   9  13
ATOM     13  O   UNL     1       3.951   5.731  17.163  0.00  0.00    +0.000 OA
ATOM     14  C   UNL     1       5.017   6.653  16.964  0.00  0.00    +0.000 C 
ENDBRANCH   9  13
BRANCH  10  15
ATOM     15  O   UNL     1       3.833   3.528  18.580  0.00  0.00    +0.000 OA
ATOM     16  C   UNL     1       2.979   2.645  17.864  0.00  0.00    +0.000 C 
ENDBRANCH  10  15
BRANCH  11  17
ATOM     17  O   UNL     1       2.548   3.505  21.133  0.00  0.00    +0.000 OA
ATOM     18  C   UNL     1       1.312   2.807  21.204  0.00  0.00    +0.000 C 
ENDBRANCH  11  17
ENDBRANCH   3   7
BRANCH   1  20
ATOM     19  N   UNL     1      -1.574  10.402  18.392  0.00  0.00    +0.000 N 
ATOM     20  C   UNL     1      -0.507  11.040  18.995  0.00  0.00    +0.000 C 
ATOM     21  O   UNL     1      -0.194  12.204  18.747  0.00  0.00    +0.000 OA
ATOM     22  H   UNL     1      -1.736   9.432  18.646  0.00  0.00    +0.000 HD
BRANCH  19  23
ATOM     23  C   UNL     1      -2.382  11.034  17.349  0.00  0.00    +0.000 C 
ATOM     24  C   UNL     1      -3.708  11.502  17.947  0.00  0.00    +0.000 C 
BRANCH  23  25
ATOM     25  C   UNL     1      -2.579  10.073  16.158  0.00  0.00    +0.000 C 
BRANCH  25  27
ATOM     26  C   UNL     1      -3.348   9.990  13.744  0.00  0.00    +0.000 C 
ATOM     27  C   UNL     1      -3.593  10.583  15.125  0.00  0.00    +0.000 C 
ENDBRANCH  25  27
ENDBRANCH  23  25
ENDBRANCH  19  23
ENDBRANCH   1  20
BRANCH   6  28
ATOM     28  N   UNL     1      -0.163  11.874  21.808  0.00  0.00    +0.000 N 
ATOM     29  H   UNL     1      -1.163  11.838  21.964  0.00  0.00    +0.000 HD
ATOM     30  H   UNL     1       0.152  12.643  21.214  0.00  0.00    +0.000 HD
ENDBRANCH   6  28
TORSDOF 9
ENDMDL
MODEL 2
REMARK VINA RESULT:      -7.0      0.118      2.448
REMARK  Name = 
REMARK  14 active torsions:
REMARK  status: ('A' for Active; 'I' for Inactive)
REMARK    1  A    between atoms: C_1  and  C_2
REMARK    2  A    between atoms: C_2  and  C_3
REMARK    3  A    between atoms: C_3  and  C_4
REMARK    4  A    between atoms: C_4  and  C_5
REMARK    5  A    between atoms: C_4  and  N_6
REMARK    6  A    between atoms: C_7  and  C_9
REMARK    7  A    between atoms: C_11  and  C_12
REMARK    8  A    between atoms: C_14  and  O_15
REMARK    9  A    between atoms: O_15  and  C_16
REMARK   10  A    between atoms: C_17  and  O_18
REMARK   11  A    between atoms: O_18  and  C_19
REMARK   12  A    between atoms: C_20  and  O_21
REMARK   13  A    between atoms: O_21  and  C_22
REMARK   14  A    between atoms: C_26  and  N_27
REMARK                            x       y       z     vdW  Elec       q    Type
REMARK                         _______ _______ _______ _____ _____    ______ ____
ROOT
ATOM      1  C   UNL     1       0.229  10.268  20.080  0.00  0.00    +0.000 A 
ATOM      2  N   UNL     1       0.819   9.128  19.594  0.00  0.00    +0.000 NA
ATOM      3  C   UNL     1       1.416   8.331  20.524  0.00  0.00    +0.000 A 
ATOM      4  C   UNL     1       1.438   8.701  21.866  0.00  0.00    +0.000 A 
ATOM      5  N   UNL     1       0.874   9.839  22.344  0.00  0.00    +0.000 NA
ATOM      6  C   UNL     1       0.256  10.625  21.438  0.00  0.00    +0.000 A 
ENDROOT
BRANCH   3   7
ATOM      7  C   UNL     1       2.043   7.088  20.031  0.00  0.00    +0.000 A 
ATOM      8  C   UNL     1       2.004   5.928  20.812  0.00  0.00    +0.000 A 
ATOM      9  C   UNL     1       2.560   4.723  20.367  0.00  0.00    +0.000 A 
ATOM     10  C   UNL     1       3.218   4.665  19.122  0.00  0.00    +0.000 A 
ATOM     11  C   UNL     1       3.294   5.825  18.324  0.00  0.00    +0.000 A 
ATOM     12  C   UNL     1       2.695   7.011  18.784  0.00  0.00    +0.000 A 
BRANCH   9  13
ATOM     13  O   UNL     1       2.511   3.566  21.109  0.00  0.00    +0.000 OA
ATOM     14  C   UNL     1       1.265   2.875  21.112  0.00  0.00    +0.000 C 
ENDBRANCH   9  13
BRANCH  10  15
ATOM     15  O   UNL     1       3.800   3.451  18.829  0.00  0.00    +0.000 OA
ATOM     16  C   UNL     1       3.140   2.609  17.893  0.00  0.00    +0.000 C 
ENDBRANCH  10  15
BRANCH  11  17
ATOM     17  O   UNL     1       3.982   5.749  17.141  0.00  0.00    +0.000 OA
ATOM     18  C   UNL     1       5.062   6.646  16.917  0.00  0.00    +0.000 C 
ENDBRANCH  11  17
ENDBRANCH   3   7
BRANCH   1  20
ATOM     19  N   UNL     1      -1.562  10.473  18.430  0.00  0.00    +0.000 N 
ATOM     20  C   UNL     1      -0.528  11.107  19.092  0.00  0.00    +0.000 C 
ATOM     21  O   UNL     1      -0.242  12.291  18.914  0.00  0.00    +0.000 OA
ATOM     22  H   UNL     1      -1.701   9.486  18.627  0.00  0.00    +0.000 HD
BRANCH  19  23
ATOM     23  C   UNL     1      -2.362  11.138  17.402  0.00  0.00    +0.000 C 
ATOM     24  C   UNL     1      -3.745  11.463  17.965  0.00  0.00    +0.000 C 
BRANCH  23  25
ATOM     25  C   UNL     1      -2.434  10.274  16.125  0.00  0.00    +0.000 C 
BRANCH  25  27
ATOM     26  C   UNL     1      -3.471   9.968  13.833  0.00  0.00    +0.000 C 
ATOM     27  C   UNL     1      -3.562  10.689  15.171  0.00  0.00    +0.000 C 
ENDBRANCH  25  27
ENDBRANCH  23  25
ENDBRANCH  19  23
ENDBRANCH   1  20
BRANCH   6  28
ATOM     28  N   UNL     1      -0.208  11.837  21.937  0.00  0.00    +0.000 N 
ATOM     29  H   UNL     1      -1.050  11.687  22.479  0.00  0.00    +0.000 HD
ATOM     30  H   UNL     1      -0.287  12.547  21.207  0.00  0.00    +0.000 HD
ENDBRANCH   6  28
TORSDOF 9
ENDMDL
MODEL 3
REMARK VINA RESULT:      -6.8      3.601      7.803
REMARK  Name = 
REMARK  14 active torsions:
REMARK  status: ('A' for Active; 'I' for Inactive)
REMARK    1  A    between atoms: C_1  and  C_2
REMARK    2  A    between atoms: C_2  and  C_3
REMARK    3  A    between atoms: C_3  and  C_4
REMARK    4  A    between atoms: C_4  and  C_5
REMARK    5  A    between atoms: C_4  and  N_6
REMARK    6  A    between atoms: C_7  and  C_9
REMARK    7  A    between atoms: C_11  and  C_12
REMARK    8  A    between atoms: C_14  and  O_15
REMARK    9  A    between atoms: O_15  and  C_16
REMARK   10  A    between atoms: C_17  and  O_18
REMARK   11  A    between atoms: O_18  and  C_19
REMARK   12  A    between atoms: C_20  and  O_21
REMARK   13  A    between atoms: O_21  and  C_22
REMARK   14  A    between atoms: C_26  and  N_27
REMARK                            x       y       z     vdW  Elec       q    Type
REMARK                         _______ _______ _______ _____ _____    ______ ____
ROOT
ATOM      1  C   UNL     1       3.812   5.120  19.511  0.00  0.00    +0.000 A 
ATOM      2  N   UNL     1       3.354   6.406  19.647  0.00  0.00    +0.000 NA
ATOM      3  C   UNL     1       2.127   6.537  20.226  0.00  0.00    +0.000 A 
ATOM      4  C   UNL     1       1.399   5.413  20.607  0.00  0.00    +0.000 A 
ATOM      5  N   UNL     1       1.842   4.140  20.453  0.00  0.00    +0.000 NA
ATOM      6  C   UNL     1       3.066   3.996  19.906  0.00  0.00    +0.000 A 
ENDROOT
BRANCH   3   7
ATOM      7  C   UNL     1       1.617   7.913  20.402  0.00  0.00    +0.000 A 
ATOM      8  C   UNL     1       1.578   8.788  19.313  0.00  0.00    +0.000 A 
ATOM      9  C   UNL     1       1.073  10.088  19.431  0.00  0.00    +0.000 A 
ATOM     10  C   UNL     1       0.627  10.562  20.682  0.00  0.00    +0.000 A 
ATOM     11  C   UNL     1       0.679   9.709  21.804  0.00  0.00    +0.000 A 
ATOM     12  C   UNL     1       1.159   8.397  21.643  0.00  0.00    +0.000 A 
BRANCH   9  13
ATOM     13  O   UNL     1       1.003  10.956  18.366  0.00  0.00    +0.000 OA
ATOM     14  C   UNL     1       2.248  11.389  17.827  0.00  0.00    +0.000 C 
ENDBRANCH   9  13
BRANCH  10  15
ATOM     15  O   UNL     1       0.235  11.882  20.695  0.00  0.00    +0.000 OA
ATOM     16  C   UNL     1       1.209  12.859  21.038  0.00  0.00    +0.000 C 
ENDBRANCH  10  15
BRANCH  11  17
ATOM     17  O   UNL     1       0.285  10.215  23.015  0.00  0.00    +0.000 OA
ATOM     18  C   UNL     1      -1.090  10.508  23.222  0.00  0.00    +0.000 C 
ENDBRANCH  11  17
ENDBRANCH   3   7
BRANCH   1  20
ATOM     19  N   UNL     1       5.588   5.857  18.003  0.00  0.00    +0.000 N 
ATOM     20  C   UNL     1       5.204   4.954  18.976  0.00  0.00    +0.000 C 
ATOM     21  O   UNL     1       5.949   4.075  19.407  0.00  0.00    +0.000 OA
ATOM     22  H   UNL     1       4.890   6.529  17.695  0.00  0.00    +0.000 HD
BRANCH  19  23
ATOM     23  C   UNL     1       6.893   5.799  17.346  0.00  0.00    +0.000 C 
ATOM     24  C   UNL     1       7.680   7.068  17.667  0.00  0.00    +0.000 C 
BRANCH  23  25
ATOM     25  C   UNL     1       6.729   5.576  15.828  0.00  0.00    +0.000 C 
BRANCH  25  27
ATOM     26  C   UNL     1       6.121   3.900  14.027  0.00  0.00    +0.000 C 
ATOM     27  C   UNL     1       5.930   4.313  15.481  0.00  0.00    +0.000 C 
ENDBRANCH  25  27
ENDBRANCH  23  25
ENDBRANCH  19  23
ENDBRANCH   1  20
BRANCH   6  28
ATOM     28  N   UNL     1       3.441   2.681  19.652  0.00  0.00    +0.000 N 
ATOM     29  H   UNL     1       2.630   2.138  19.384  0.00  0.00    +0.000 HD
ATOM     30  H   UNL     1       3.992   2.285  20.415  0.00  0.00    +0.000 HD
ENDBRANCH   6  28
TORSDOF 9
ENDMDL
MODEL 4
REMARK VINA RESULT:      -6.8      3.907      8.211
REMARK  Name = 
REMARK  14 active torsions:
REMARK  status: ('A' for Active; 'I' for Inactive)
REMARK    1  A    between atoms: C_1  and  C_2
REMARK    2  A    between atoms: C_2  and  C_3
REMARK    3  A    between atoms: C_3  and  C_4
REMARK    4  A    between atoms: C_4  and  C_5
REMARK    5  A    between atoms: C_4  and  N_6
REMARK    6  A    between atoms: C_7  and  C_9
REMARK    7  A    between atoms: C_11  and  C_12
REMARK    8  A    between atoms: C_14  and  O_15
REMARK    9  A    between atoms: O_15  and  C_16
REMARK   10  A    between atoms: C_17  and  O_18
REMARK   11  A    between atoms: O_18  and  C_19
REMARK   12  A    between atoms: C_20  and  O_21
REMARK   13  A    between atoms: O_21  and  C_22
REMARK   14  A    between atoms: C_26  and  N_27
REMARK                            x       y       z     vdW  Elec       q    Type
REMARK                         _______ _______ _______ _____ _____    ______ ____
ROOT
ATOM      1  C   UNL     1       4.392   4.471  18.880  0.00  0.00    +0.000 A 
ATOM      2  N   UNL     1       3.720   5.668  18.874  0.00  0.00    +0.000 NA
ATOM      3  C   UNL     1       2.757   5.807  19.829  0.00  0.00    +0.000 A 
ATOM      4  C   UNL     1       2.476   4.766  20.710  0.00  0.00    +0.000 A 
ATOM      5  N   UNL     1       3.125   3.574  20.702  0.00  0.00    +0.000 NA
ATOM      6  C   UNL     1       4.099   3.432  19.779  0.00  0.00    +0.000 A 
ENDROOT
BRANCH   3   7
ATOM      7  C   UNL     1       2.030   7.093  19.858  0.00  0.00    +0.000 A 
ATOM      8  C   UNL     1       1.184   7.393  20.930  0.00  0.00    +0.000 A 
ATOM      9  C   UNL     1       0.503   8.612  21.010  0.00  0.00    +0.000 A 
ATOM     10  C   UNL     1       0.624   9.560  19.974  0.00  0.00    +0.000 A 
ATOM     11  C   UNL     1       1.451   9.274  18.868  0.00  0.00    +0.000 A 
ATOM     12  C   UNL     1       2.150   8.054  18.835  0.00  0.00    +0.000 A 
BRANCH   9  13
ATOM     13  O   UNL     1      -0.315   8.936  22.068  0.00  0.00    +0.000 OA
ATOM     14  C   UNL     1       0.339   9.365  23.258  0.00  0.00    +0.000 C 
ENDBRANCH   9  13
BRANCH  10  15
ATOM     15  O   UNL     1      -0.159  10.683  20.119  0.00  0.00    +0.000 OA
ATOM     16  C   UNL     1       0.451  11.852  20.650  0.00  0.00    +0.000 C 
ENDBRANCH  10  15
BRANCH  11  17
ATOM     17  O   UNL     1       1.511  10.193  17.853  0.00  0.00    +0.000 OA
ATOM     18  C   UNL     1       2.513  11.199  17.897  0.00  0.00    +0.000 C 
ENDBRANCH  11  17
ENDBRANCH   3   7
BRANCH   1  20
ATOM     19  N   UNL     1       5.187   4.368  16.571  0.00  0.00    +0.000 N 
ATOM     20  C   UNL     1       5.528   4.334  17.910  0.00  0.00    +0.000 C 
ATOM     21  O   UNL     1       6.689   4.220  18.304  0.00  0.00    +0.000 OA
ATOM     22  H   UNL     1       4.199   4.438  16.348  0.00  0.00    +0.000 HD
BRANCH  19  23
ATOM     23  C   UNL     1       6.172   4.198  15.503  0.00  0.00    +0.000 C 
ATOM     24  C   UNL     1       7.168   5.356  15.541  0.00  0.00    +0.000 C 
BRANCH  23  25
ATOM     25  C   UNL     1       5.472   4.066  14.134  0.00  0.00    +0.000 C 
BRANCH  25  27
ATOM     26  C   UNL     1       5.865   2.871  11.934  0.00  0.00    +0.000 C 
ATOM     27  C   UNL     1       6.445   3.821  12.973  0.00  0.00    +0.000 C 
ENDBRANCH  25  27
ENDBRANCH  23  25
ENDBRANCH  19  23
ENDBRANCH   1  20
BRANCH   6  28
ATOM     28  N   UNL     1       4.663   2.163  19.717  0.00  0.00    +0.000 N 
ATOM     29  H   UNL     1       5.673   2.235  19.710  0.00  0.00    +0.000 HD
ATOM     30  H   UNL     1       4.267   1.603  18.960  0.00  0.00    +0.000 HD
ENDBRANCH   6  28
TORSDOF 9
ENDMDL
MODEL 5
REMARK VINA RESULT:      -6.8      3.449      8.292
REMARK  Name = 
REMARK  14 active torsions:
REMARK  status: ('A' for Active; 'I' for Inactive)
REMARK    1  A    between atoms: C_1  and  C_2
REMARK    2  A    between atoms: C_2  and  C_3
REMARK    3  A    between atoms: C_3  and  C_4
REMARK    4  A    between atoms: C_4  and  C_5
REMARK    5  A    between atoms: C_4  and  N_6
REMARK    6  A    between atoms: C_7  and  C_9
REMARK    7  A    between atoms: C_11  and  C_12
REMARK    8  A    between atoms: C_14  and  O_15
REMARK    9  A    between atoms: O_15  and  C_16
REMARK   10  A    between atoms: C_17  and  O_18
REMARK   11  A    between atoms: O_18  and  C_19
REMARK   12  A    between atoms: C_20  and  O_21
REMARK   13  A    between atoms: O_21  and  C_22
REMARK   14  A    between atoms: C_26  and  N_27
REMARK                            x       y       z     vdW  Elec       q    Type
REMARK                         _______ _______ _______ _____ _____    ______ ____
ROOT
ATOM      1  C   UNL     1       3.385   5.141  18.978  0.00  0.00    +0.000 A 
ATOM      2  N   UNL     1       3.000   6.453  19.101  0.00  0.00    +0.000 NA
ATOM      3  C   UNL     1       2.058   6.704  20.053  0.00  0.00    +0.000 A 
ATOM      4  C   UNL     1       1.515   5.665  20.805  0.00  0.00    +0.000 A 
ATOM      5  N   UNL     1       1.879   4.365  20.668  0.00  0.00    +0.000 NA
ATOM      6  C   UNL     1       2.832   4.105  19.749  0.00  0.00    +0.000 A 
ENDROOT
BRANCH   3   7
ATOM      7  C   UNL     1       1.638   8.110  20.220  0.00  0.00    +0.000 A 
ATOM      8  C   UNL     1       1.193   8.564  21.465  0.00  0.00    +0.000 A 
ATOM      9  C   UNL     1       0.817   9.896  21.671  0.00  0.00    +0.000 A 
ATOM     10  C   UNL     1       0.839  10.811  20.599  0.00  0.00    +0.000 A 
ATOM     11  C   UNL     1       1.260  10.376  19.326  0.00  0.00    +0.000 A 
ATOM     12  C   UNL     1       1.665   9.039  19.160  0.00  0.00    +0.000 A 
BRANCH   9  13
ATOM     13  O   UNL     1       0.399  10.367  22.895  0.00  0.00    +0.000 OA
ATOM     14  C   UNL     1      -0.893   9.946  23.321  0.00  0.00    +0.000 C 
ENDBRANCH   9  13
BRANCH  10  15
ATOM     15  O   UNL     1       0.365  12.068  20.900  0.00  0.00    +0.000 OA
ATOM     16  C   UNL     1      -0.966  12.385  20.512  0.00  0.00    +0.000 C 
ENDBRANCH  10  15
BRANCH  11  17
ATOM     17  O   UNL     1       1.223  11.276  18.293  0.00  0.00    +0.000 OA
ATOM     18  C   UNL     1       2.340  12.130  18.088  0.00  0.00    +0.000 C 
ENDBRANCH  11  17
ENDBRANCH   3   7
BRANCH   1  20
ATOM     19  N   UNL     1       5.589   5.701  18.083  0.00  0.00    +0.000 N 
ATOM     20  C   UNL     1       4.499   4.855  18.014  0.00  0.00    +0.000 C 
ATOM     21  O   UNL     1       4.434   3.906  17.232  0.00  0.00    +0.000 OA
ATOM     22  H   UNL     1       5.536   6.471  18.744  0.00  0.00    +0.000 HD
BRANCH  19  23
ATOM     23  C   UNL     1       6.733   5.586  17.179  0.00  0.00    +0.000 C 
ATOM     24  C   UNL     1       7.724   4.567  17.741  0.00  0.00    +0.000 C 
BRANCH  23  25
ATOM     25  C   UNL     1       7.380   6.966  16.941  0.00  0.00    +0.000 C 
BRANCH  25  27
ATOM     26  C   UNL     1       8.318   9.056  18.024  0.00  0.00    +0.000 C 
ATOM     27  C   UNL     1       7.989   7.581  18.208  0.00  0.00    +0.000 C 
ENDBRANCH  25  27
ENDBRANCH  23  25
ENDBRANCH  19  23
ENDBRANCH   1  20
BRANCH   6  28
ATOM     28  N   UNL     1       3.097   2.755  19.549  0.00  0.00    +0.000 N 
ATOM     29  H   UNL     1       3.563   2.624  18.659  0.00  0.00    +0.000 HD
ATOM     30  H   UNL     1       2.268   2.176  19.689  0.00  0.00    +0.000 HD
ENDBRANCH   6  28
TORSDOF 9
ENDMDL
MODEL 6
REMARK VINA RESULT:      -6.7      3.683      8.171
REMARK  Name = 
REMARK  14 active torsions:
REMARK  status: ('A' for Active; 'I' for Inactive)
REMARK    1  A    between atoms: C_1  and  C_2
REMARK    2  A    between atoms: C_2  and  C_3
REMARK    3  A    between atoms: C_3  and  C_4
REMARK    4  A    between atoms: C_4  and  C_5
REMARK    5  A    between atoms: C_4  and  N_6
REMARK    6  A    between atoms: C_7  and  C_9
REMARK    7  A    between atoms: C_11  and  C_12
REMARK    8  A    between atoms: C_14  and  O_15
REMARK    9  A    between atoms: O_15  and  C_16
REMARK   10  A    between atoms: C_17  and  O_18
REMARK   11  A    between atoms: O_18  and  C_19
REMARK   12  A    between atoms: C_20  and  O_21
REMARK   13  A    between atoms: O_21  and  C_22
REMARK   14  A    between atoms: C_26  and  N_27
REMARK                            x       y       z     vdW  Elec       q    Type
REMARK                         _______ _______ _______ _____ _____    ______ ____
ROOT
ATOM      1  C   UNL     1       3.742   4.881  19.476  0.00  0.00    +0.000 A 
ATOM      2  N   UNL     1       3.340   6.192  19.543  0.00  0.00    +0.000 NA
ATOM      3  C   UNL     1       2.164   6.415  20.193  0.00  0.00    +0.000 A 
ATOM      4  C   UNL     1       1.426   5.353  20.710  0.00  0.00    +0.000 A 
ATOM      5  N   UNL     1       1.812   4.055  20.625  0.00  0.00    +0.000 NA
ATOM      6  C   UNL     1       2.989   3.821  20.007  0.00  0.00    +0.000 A 
ENDROOT
BRANCH   3   7
ATOM      7  C   UNL     1       1.716   7.819  20.296  0.00  0.00    +0.000 A 
ATOM      8  C   UNL     1       1.305   8.333  21.530  0.00  0.00    +0.000 A 
ATOM      9  C   UNL     1       0.904   9.666  21.674  0.00  0.00    +0.000 A 
ATOM     10  C   UNL     1       0.864  10.518  20.553  0.00  0.00    +0.000 A 
ATOM     11  C   UNL     1       1.249  10.020  19.290  0.00  0.00    +0.000 A 
ATOM     12  C   UNL     1       1.681   8.686  19.186  0.00  0.00    +0.000 A 
BRANCH   9  13
ATOM     13  O   UNL     1       0.519  10.197  22.884  0.00  0.00    +0.000 OA
ATOM     14  C   UNL     1      -0.856  10.051  23.225  0.00  0.00    +0.000 C 
ENDBRANCH   9  13
BRANCH  10  15
ATOM     15  O   UNL     1       0.370  11.780  20.799  0.00  0.00    +0.000 OA
ATOM     16  C   UNL     1       1.306  12.840  20.951  0.00  0.00    +0.000 C 
ENDBRANCH  10  15
BRANCH  11  17
ATOM     17  O   UNL     1       1.152  10.858  18.211  0.00  0.00    +0.000 OA
ATOM     18  C   UNL     1       2.296  11.605  17.818  0.00  0.00    +0.000 C 
ENDBRANCH  11  17
ENDBRANCH   3   7
BRANCH   1  20
ATOM     19  N   UNL     1       5.154   4.741  17.486  0.00  0.00    +0.000 N 
ATOM     20  C   UNL     1       5.086   4.621  18.862  0.00  0.00    +0.000 C 
ATOM     21  O   UNL     1       6.059   4.338  19.559  0.00  0.00    +0.000 OA
ATOM     22  H   UNL     1       4.288   4.952  16.998  0.00  0.00    +0.000 HD
BRANCH  19  23
ATOM     23  C   UNL     1       6.377   4.472  16.732  0.00  0.00    +0.000 C 
ATOM     24  C   UNL     1       7.078   5.791  16.411  0.00  0.00    +0.000 C 
BRANCH  23  25
ATOM     25  C   UNL     1       6.065   3.647  15.466  0.00  0.00    +0.000 C 
BRANCH  25  27
ATOM     26  C   UNL     1       6.054   3.644  12.932  0.00  0.00    +0.000 C 
ATOM     27  C   UNL     1       5.976   4.497  14.191  0.00  0.00    +0.000 C 
ENDBRANCH  25  27
ENDBRANCH  23  25
ENDBRANCH  19  23
ENDBRANCH   1  20
BRANCH   6  28
ATOM     28  N   UNL     1       3.299   2.478  19.831  0.00  0.00    +0.000 N 
ATOM     29  H   UNL     1       4.294   2.372  19.674  0.00  0.00    +0.000 HD
ATOM     30  H   UNL     1       2.703   2.035  19.129  0.00  0.00    +0.000 HD
ENDBRANCH   6  28
TORSDOF 9
ENDMDL
MODEL 7
REMARK VINA RESULT:      -6.7      3.497      8.155
REMARK  Name = 
REMARK  14 active torsions:
REMARK  status: ('A' for Active; 'I' for Inactive)
REMARK    1  A    between atoms: C_1  and  C_2
REMARK    2  A    between atoms: C_2  and  C_3
REMARK    3  A    between atoms: C_3  and  C_4
REMARK    4  A    between atoms: C_4  and  C_5
REMARK    5  A    between atoms: C_4  and  N_6
REMARK    6  A    between atoms: C_7  and  C_9
REMARK    7  A    between atoms: C_11  and  C_12
REMARK    8  A    between atoms: C_14  and  O_15
REMARK    9  A    between atoms: O_15  and  C_16
REMARK   10  A    between atoms: C_17  and  O_18
REMARK   11  A    between atoms: O_18  and  C_19
REMARK   12  A    between atoms: C_20  and  O_21
REMARK   13  A    between atoms: O_21  and  C_22
REMARK   14  A    between atoms: C_26  and  N_27
REMARK                            x       y       z     vdW  Elec       q    Type
REMARK                         _______ _______ _______ _____ _____    ______ ____
ROOT
ATOM      1  C   UNL     1       3.585   4.946  19.611  0.00  0.00    +0.000 A 
ATOM      2  N   UNL     1       3.238   6.271  19.697  0.00  0.00    +0.000 NA
ATOM      3  C   UNL     1       1.996   6.524  20.198  0.00  0.00    +0.000 A 
ATOM      4  C   UNL     1       1.148   5.477  20.553  0.00  0.00    +0.000 A 
ATOM      5  N   UNL     1       1.483   4.167  20.448  0.00  0.00    +0.000 NA
ATOM      6  C   UNL     1       2.720   3.902  19.979  0.00  0.00    +0.000 A 
ENDROOT
BRANCH   3   7
ATOM      7  C   UNL     1       1.603   7.942  20.319  0.00  0.00    +0.000 A 
ATOM      8  C   UNL     1       1.174   8.446  21.550  0.00  0.00    +0.000 A 
ATOM      9  C   UNL     1       0.822   9.791  21.713  0.00  0.00    +0.000 A 
ATOM     10  C   UNL     1       0.854  10.668  20.610  0.00  0.00    +0.000 A 
ATOM     11  C   UNL     1       1.258  10.182  19.349  0.00  0.00    +0.000 A 
ATOM     12  C   UNL     1       1.639   8.834  19.228  0.00  0.00    +0.000 A 
BRANCH   9  13
ATOM     13  O   UNL     1       0.422  10.312  22.922  0.00  0.00    +0.000 OA
ATOM     14  C   UNL     1      -0.955  10.150  23.248  0.00  0.00    +0.000 C 
ENDBRANCH   9  13
BRANCH  10  15
ATOM     15  O   UNL     1       0.404  11.944  20.870  0.00  0.00    +0.000 OA
ATOM     16  C   UNL     1      -0.855  12.325  20.330  0.00  0.00    +0.000 C 
ENDBRANCH  10  15
BRANCH  11  17
ATOM     17  O   UNL     1       1.231  11.047  18.287  0.00  0.00    +0.000 OA
ATOM     18  C   UNL     1       2.376  11.846  18.023  0.00  0.00    +0.000 C 
ENDBRANCH  11  17
ENDBRANCH   3   7
BRANCH   1  20
ATOM     19  N   UNL     1       5.609   5.633  18.426  0.00  0.00    +0.000 N 
ATOM     20  C   UNL     1       4.986   4.646  19.166  0.00  0.00    +0.000 C 
ATOM     21  O   UNL     1       5.536   3.587  19.469  0.00  0.00    +0.000 OA
ATOM     22  H   UNL     1       5.062   6.460  18.206  0.00  0.00    +0.000 HD
BRANCH  19  23
ATOM     23  C   UNL     1       6.955   5.474  17.876  0.00  0.00    +0.000 C 
ATOM     24  C   UNL     1       7.945   6.285  18.712  0.00  0.00    +0.000 C 
BRANCH  23  25
ATOM     25  C   UNL     1       6.983   5.868  16.385  0.00  0.00    +0.000 C 
BRANCH  25  27
ATOM     26  C   UNL     1       5.942   3.891  15.188  0.00  0.00    +0.000 C 
ATOM     27  C   UNL     1       5.774   5.349  15.594  0.00  0.00    +0.000 C 
ENDBRANCH  25  27
ENDBRANCH  23  25
ENDBRANCH  19  23
ENDBRANCH   1  20
BRANCH   6  28
ATOM     28  N   UNL     1       2.990   2.554  19.770  0.00  0.00    +0.000 N 
ATOM     29  H   UNL     1       2.122   2.043  19.662  0.00  0.00    +0.000 HD
ATOM     30  H   UNL     1       3.626   2.177  20.474  0.00  0.00    +0.000 HD
ENDBRANCH   6  28
TORSDOF 9
ENDMDL
MODEL 8
REMARK VINA RESULT:      -6.7      5.266      8.539
REMARK  Name = 
REMARK  14 active torsions:
REMARK  status: ('A' for Active; 'I' for Inactive)
REMARK    1  A    between atoms: C_1  and  C_2
REMARK    2  A    between atoms: C_2  and  C_3
REMARK    3  A    between atoms: C_3  and  C_4
REMARK    4  A    between atoms: C_4  and  C_5
REMARK    5  A    between atoms: C_4  and  N_6
REMARK    6  A    between atoms: C_7  and  C_9
REMARK    7  A    between atoms: C_11  and  C_12
REMARK    8  A    between atoms: C_14  and  O_15
REMARK    9  A    between atoms: O_15  and  C_16
REMARK   10  A    between atoms: C_17  and  O_18
REMARK   11  A    between atoms: O_18  and  C_19
REMARK   12  A    between atoms: C_20  and  O_21
REMARK   13  A    between atoms: O_21  and  C_22
REMARK   14  A    between atoms: C_26  and  N_27
REMARK                            x       y       z     vdW  Elec       q    Type
REMARK                         _______ _______ _______ _____ _____    ______ ____
ROOT
ATOM      1  C   UNL     1       6.286   4.569  14.315  0.00  0.00    +0.000 A 
ATOM      2  N   UNL     1       5.315   4.317  15.253  0.00  0.00    +0.000 NA
ATOM      3  C   UNL     1       5.452   4.979  16.436  0.00  0.00    +0.000 A 
ATOM      4  C   UNL     1       6.542   5.818  16.657  0.00  0.00    +0.000 A 
ATOM      5  N   UNL     1       7.513   6.051  15.739  0.00  0.00    +0.000 NA
ATOM      6  C   UNL     1       7.375   5.423  14.552  0.00  0.00    +0.000 A 
ENDROOT
BRANCH   3   7
ATOM      7  C   UNL     1       4.412   4.740  17.456  0.00  0.00    +0.000 A 
ATOM      8  C   UNL     1       4.018   3.434  17.762  0.00  0.00    +0.000 A 
ATOM      9  C   UNL     1       3.058   3.166  18.744  0.00  0.00    +0.000 A 
ATOM     10  C   UNL     1       2.428   4.226  19.426  0.00  0.00    +0.000 A 
ATOM     11  C   UNL     1       2.787   5.556  19.121  0.00  0.00    +0.000 A 
ATOM     12  C   UNL     1       3.781   5.790  18.154  0.00  0.00    +0.000 A 
BRANCH   9  13
ATOM     13  O   UNL     1       2.675   1.886  19.076  0.00  0.00    +0.000 OA
ATOM     14  C   UNL     1       3.653   0.869  18.883  0.00  0.00    +0.000 C 
ENDBRANCH   9  13
BRANCH  10  15
ATOM     15  O   UNL     1       1.440   3.845  20.306  0.00  0.00    +0.000 OA
ATOM     16  C   UNL     1       1.832   3.476  21.622  0.00  0.00    +0.000 C 
ENDBRANCH  10  15
BRANCH  11  17
ATOM     17  O   UNL     1       2.122   6.566  19.765  0.00  0.00    +0.000 OA
ATOM     18  C   UNL     1       2.151   7.872  19.206  0.00  0.00    +0.000 C 
ENDBRANCH  11  17
ENDBRANCH   3   7
BRANCH   1  20
ATOM     19  N   UNL     1       4.857   3.381  12.728  0.00  0.00    +0.000 N 
ATOM     20  C   UNL     1       6.099   3.938  12.967  0.00  0.00    +0.000 C 
ATOM     21  O   UNL     1       7.003   3.945  12.132  0.00  0.00    +0.000 OA
ATOM     22  H   UNL     1       4.186   3.403  13.492  0.00  0.00    +0.000 HD
BRANCH  19  23
ATOM     23  C   UNL     1       4.532   2.685  11.484  0.00  0.00    +0.000 C 
ATOM     24  C   UNL     1       5.672   1.735  11.120  0.00  0.00    +0.000 C 
BRANCH  23  25
ATOM     25  C   UNL     1       4.225   3.696  10.359  0.00  0.00    +0.000 C 
BRANCH  25  27
ATOM     26  C   UNL     1       2.439   4.847   8.977  0.00  0.00    +0.000 C 
ATOM     27  C   UNL     1       2.754   3.695   9.923  0.00  0.00    +0.000 C 
ENDBRANCH  25  27
ENDBRANCH  23  25
ENDBRANCH  19  23
ENDBRANCH   1  20
BRANCH   6  28
ATOM     28  N   UNL     1       8.445   5.586  13.678  0.00  0.00    +0.000 N 
ATOM     29  H   UNL     1       8.304   6.416  13.114  0.00  0.00    +0.000 HD
ATOM     30  H   UNL     1       8.642   4.735  13.150  0.00  0.00    +0.000 HD
ENDBRANCH   6  28
TORSDOF 9
ENDMDL
MODEL 9
REMARK VINA RESULT:      -6.6      3.403      6.434
REMARK  Name = 
REMARK  14 active torsions:
REMARK  status: ('A' for Active; 'I' for Inactive)
REMARK    1  A    between atoms: C_1  and  C_2
REMARK    2  A    between atoms: C_2  and  C_3
REMARK    3  A    between atoms: C_3  and  C_4
REMARK    4  A    between atoms: C_4  and  C_5
REMARK    5  A    between atoms: C_4  and  N_6
REMARK    6  A    between atoms: C_7  and  C_9
REMARK    7  A    between atoms: C_11  and  C_12
REMARK    8  A    between atoms: C_14  and  O_15
REMARK    9  A    between atoms: O_15  and  C_16
REMARK   10  A    between atoms: C_17  and  O_18
REMARK   11  A    between atoms: O_18  and  C_19
REMARK   12  A    between atoms: C_20  and  O_21
REMARK   13  A    between atoms: O_21  and  C_22
REMARK   14  A    between atoms: C_26  and  N_27
REMARK                            x       y       z     vdW  Elec       q    Type
REMARK                         _______ _______ _______ _____ _____    ______ ____
ROOT
ATOM      1  C   UNL     1       2.321   4.799  19.162  0.00  0.00    +0.000 A 
ATOM      2  N   UNL     1       3.421   5.067  18.387  0.00  0.00    +0.000 NA
ATOM      3  C   UNL     1       3.632   4.212  17.347  0.00  0.00    +0.000 A 
ATOM      4  C   UNL     1       2.786   3.125  17.140  0.00  0.00    +0.000 A 
ATOM      5  N   UNL     1       1.711   2.847  17.920  0.00  0.00    +0.000 NA
ATOM      6  C   UNL     1       1.474   3.701  18.937  0.00  0.00    +0.000 A 
ENDROOT
BRANCH   3   7
ATOM      7  C   UNL     1       4.799   4.487  16.485  0.00  0.00    +0.000 A 
ATOM      8  C   UNL     1       5.721   5.472  16.851  0.00  0.00    +0.000 A 
ATOM      9  C   UNL     1       6.856   5.741  16.077  0.00  0.00    +0.000 A 
ATOM     10  C   UNL     1       7.072   5.043  14.872  0.00  0.00    +0.000 A 
ATOM     11  C   UNL     1       6.145   4.061  14.465  0.00  0.00    +0.000 A 
ATOM     12  C   UNL     1       5.034   3.790  15.283  0.00  0.00    +0.000 A 
BRANCH   9  13
ATOM     13  O   UNL     1       7.788   6.689  16.432  0.00  0.00    +0.000 OA
ATOM     14  C   UNL     1       7.436   7.537  17.521  0.00  0.00    +0.000 C 
ENDBRANCH   9  13
BRANCH  10  15
ATOM     15  O   UNL     1       8.172   5.453  14.152  0.00  0.00    +0.000 OA
ATOM     16  C   UNL     1       8.016   5.640  12.751  0.00  0.00    +0.000 C 
ENDBRANCH  10  15
BRANCH  11  17
ATOM     17  O   UNL     1       6.356   3.434  13.264  0.00  0.00    +0.000 OA
ATOM     18  C   UNL     1       5.273   3.317  12.352  0.00  0.00    +0.000 C 
ENDBRANCH  11  17
ENDBRANCH   3   7
BRANCH   1  20
ATOM     19  N   UNL     1       1.693   7.066  19.825  0.00  0.00    +0.000 N 
ATOM     20  C   UNL     1       2.005   5.787  20.246  0.00  0.00    +0.000 C 
ATOM     21  O   UNL     1       2.008   5.453  21.431  0.00  0.00    +0.000 OA
ATOM     22  H   UNL     1       1.744   7.249  18.827  0.00  0.00    +0.000 HD
BRANCH  19  23
ATOM     23  C   UNL     1       1.411   8.156  20.758  0.00  0.00    +0.000 C 
ATOM     24  C   UNL     1       0.060   7.913  21.429  0.00  0.00    +0.000 C 
BRANCH  23  25
ATOM     25  C   UNL     1       1.475   9.519  20.039  0.00  0.00    +0.000 C 
BRANCH  25  27
ATOM     26  C   UNL     1      -0.196  10.066  18.213  0.00  0.00    +0.000 C 
ATOM     27  C   UNL     1       1.150   9.434  18.541  0.00  0.00    +0.000 C 
ENDBRANCH  25  27
ENDBRANCH  23  25
ENDBRANCH  19  23
ENDBRANCH   1  20
BRANCH   6  28
ATOM     28  N   UNL     1       0.440   3.325  19.786  0.00  0.00    +0.000 N 
ATOM     29  H   UNL     1       0.623   2.404  20.165  0.00  0.00    +0.000 HD
ATOM     30  H   UNL     1      -0.476   3.434  19.348  0.00  0.00    +0.000 HD
ENDBRANCH   6  28
TORSDOF 9
ENDMDL
