MODEL 1
REMARK VINA RESULT:      -8.1      0.000      0.000
REMARK  Name = 
REMARK  8 active torsions:
REMARK  status: ('A' for Active; 'I' for Inactive)
REMARK    1  A    between atoms: N_1  and  C_2
REMARK    2  A    between atoms: N_9  and  C_10
REMARK    3  A    between atoms: C_13  and  C_14
REMARK    4  A    between atoms: C_14  and  O_15
REMARK    5  A    between atoms: O_15  and  S_16
REMARK    6  A    between atoms: S_16  and  N_19
REMARK    7  A    between atoms: C_20  and  C_22
REMARK    8  A    between atoms: C_27  and  O_28
REMARK                            x       y       z     vdW  Elec       q    Type
REMARK                         _______ _______ _______ _____ _____    ______ ____
ROOT
ATOM      1  C   UNL     1       4.725   4.463  17.577  0.00  0.00    +0.000 C 
ATOM      2  C   UNL     1       4.913   4.984  16.132  0.00  0.00    +0.000 C 
ATOM      3  C   UNL     1       4.492   6.461  16.145  0.00  0.00    +0.000 C 
ATOM      4  C   UNL     1       4.476   6.902  17.618  0.00  0.00    +0.000 C 
ATOM      5  C   UNL     1       5.121   5.724  18.365  0.00  0.00    +0.000 C 
ENDROOT
BRANCH   1  13
ATOM      6  C   UNL     1       3.567   2.836  20.239  0.00  0.00    +0.000 A 
ATOM      7  N   UNL     1       2.745   2.389  21.208  0.00  0.00    +0.000 NA
ATOM      8  C   UNL     1       1.415   2.430  21.004  0.00  0.00    +0.000 A 
ATOM      9  N   UNL     1       0.774   2.821  19.907  0.00  0.00    +0.000 NA
ATOM     10  C   UNL     1       1.604   3.279  18.956  0.00  0.00    +0.000 A 
ATOM     11  N   UNL     1       1.190   3.694  17.725  0.00  0.00    +0.000 NA
ATOM     12  C   UNL     1       2.287   4.055  17.110  0.00  0.00    +0.000 A 
ATOM     13  N   UNL     1       3.399   3.956  17.911  0.00  0.00    +0.000 N 
ATOM     14  C   UNL     1       2.989   3.353  19.086  0.00  0.00    +0.000 A 
BRANCH   6  15
ATOM     15  N   UNL     1       4.923   2.685  20.494  0.00  0.00    +0.000 N 
ATOM     16  H   UNL     1       5.305   3.614  20.656  0.00  0.00    +0.000 HD
ATOM     17  H   UNL     1       5.435   2.153  19.809  0.00  0.00    +0.000 HD
ENDBRANCH   6  15
ENDBRANCH   1  13
BRANCH   4  18
ATOM     18  C   UNL     1       3.040   7.254  18.039  0.00  0.00    +0.000 C 
BRANCH  18  19
ATOM     19  O   UNL     1       2.512   8.376  17.351  0.00  0.00    +0.000 OA
BRANCH  19  20
ATOM     20  S   UNL     1       1.810   9.501  18.306  0.00  0.00    +0.000 S 
ATOM     21  O   UNL     1       1.778   9.012  19.665  0.00  0.00    +0.000 OA
ATOM     22  O   UNL     1       2.432  10.773  18.000  0.00  0.00    +0.000 OA
BRANCH  20  23
ATOM     23  N   UNL     1       0.267   9.637  17.750  0.00  0.00    +0.000 N 
ATOM     24  C   UNL     1      -0.670  10.530  18.257  0.00  0.00    +0.000 C 
ATOM     25  O   UNL     1      -0.491  11.188  19.270  0.00  0.00    +0.000 OA
ATOM     26  H   UNL     1       0.057   9.063  16.937  0.00  0.00    +0.000 HD
BRANCH  24  27
ATOM     27  C   UNL     1      -1.932  10.662  17.480  0.00  0.00    +0.000 A 
ATOM     28  C   UNL     1      -2.051   9.850  16.340  0.00  0.00    +0.000 A 
ATOM     29  C   UNL     1      -3.196   9.896  15.547  0.00  0.00    +0.000 A 
ATOM     30  C   UNL     1      -4.237  10.759  15.885  0.00  0.00    +0.000 A 
ATOM     31  C   UNL     1      -4.139  11.566  17.021  0.00  0.00    +0.000 A 
ATOM     32  C   UNL     1      -2.993  11.512  17.822  0.00  0.00    +0.000 A 
BRANCH  32  33
ATOM     33  O   UNL     1      -2.924  12.310  18.933  0.00  0.00    +0.000 OA
ATOM     34  H   UNL     1      -2.052  12.747  18.954  0.00  0.00    +0.000 HD
ENDBRANCH  32  33
ENDBRANCH  24  27
ENDBRANCH  20  23
ENDBRANCH  19  20
ENDBRANCH  18  19
ENDBRANCH   4  18
TORSDOF 8
ENDMDL
MODEL 2
REMARK VINA RESULT:      -7.8      2.910      4.540
REMARK  Name = 
REMARK  8 active torsions:
REMARK  status: ('A' for Active; 'I' for Inactive)
REMARK    1  A    between atoms: N_1  and  C_2
REMARK    2  A    between atoms: N_9  and  C_10
REMARK    3  A    between atoms: C_13  and  C_14
REMARK    4  A    between atoms: C_14  and  O_15
REMARK    5  A    between atoms: O_15  and  S_16
REMARK    6  A    between atoms: S_16  and  N_19
REMARK    7  A    between atoms: C_20  and  C_22
REMARK    8  A    between atoms: C_27  and  O_28
REMARK                            x       y       z     vdW  Elec       q    Type
REMARK                         _______ _______ _______ _____ _____    ______ ____
ROOT
ATOM      1  C   UNL     1       3.861   2.576  17.565  0.00  0.00    +0.000 C 
ATOM      2  C   UNL     1       3.153   1.633  18.567  0.00  0.00    +0.000 C 
ATOM      3  C   UNL     1       1.908   2.384  19.064  0.00  0.00    +0.000 C 
ATOM      4  C   UNL     1       1.662   3.533  18.073  0.00  0.00    +0.000 C 
ATOM      5  C   UNL     1       2.635   3.243  16.919  0.00  0.00    +0.000 C 
ENDROOT
BRANCH   1  13
ATOM      6  C   UNL     1       6.014   4.691  16.162  0.00  0.00    +0.000 A 
ATOM      7  N   UNL     1       6.796   5.767  15.948  0.00  0.00    +0.000 NA
ATOM      8  C   UNL     1       7.185   6.509  17.001  0.00  0.00    +0.000 A 
ATOM      9  N   UNL     1       6.934   6.287  18.288  0.00  0.00    +0.000 NA
ATOM     10  C   UNL     1       6.141   5.222  18.486  0.00  0.00    +0.000 A 
ATOM     11  N   UNL     1       5.780   4.765  19.718  0.00  0.00    +0.000 NA
ATOM     12  C   UNL     1       5.019   3.728  19.478  0.00  0.00    +0.000 A 
ATOM     13  N   UNL     1       4.811   3.525  18.135  0.00  0.00    +0.000 N 
ATOM     14  C   UNL     1       5.620   4.426  17.468  0.00  0.00    +0.000 A 
BRANCH   6  15
ATOM     15  N   UNL     1       5.725   3.933  15.036  0.00  0.00    +0.000 N 
ATOM     16  H   UNL     1       5.417   4.576  14.310  0.00  0.00    +0.000 HD
ATOM     17  H   UNL     1       5.094   3.163  15.185  0.00  0.00    +0.000 HD
ENDBRANCH   6  15
ENDBRANCH   1  13
BRANCH   4  18
ATOM     18  C   UNL     1       1.852   4.883  18.783  0.00  0.00    +0.000 C 
BRANCH  18  19
ATOM     19  O   UNL     1       1.879   5.987  17.893  0.00  0.00    +0.000 OA
BRANCH  19  20
ATOM     20  S   UNL     1       2.850   7.217  18.354  0.00  0.00    +0.000 S 
ATOM     21  O   UNL     1       3.346   6.953  19.686  0.00  0.00    +0.000 OA
ATOM     22  O   UNL     1       3.773   7.468  17.265  0.00  0.00    +0.000 OA
BRANCH  20  23
ATOM     23  N   UNL     1       1.876   8.543  18.400  0.00  0.00    +0.000 N 
ATOM     24  C   UNL     1       1.258   9.020  19.549  0.00  0.00    +0.000 C 
ATOM     25  O   UNL     1       1.246   8.409  20.607  0.00  0.00    +0.000 OA
ATOM     26  H   UNL     1       1.813   9.053  17.521  0.00  0.00    +0.000 HD
BRANCH  24  27
ATOM     27  C   UNL     1       0.603  10.350  19.434  0.00  0.00    +0.000 A 
ATOM     28  C   UNL     1      -0.579  10.530  20.172  0.00  0.00    +0.000 A 
ATOM     29  C   UNL     1      -1.266  11.743  20.134  0.00  0.00    +0.000 A 
ATOM     30  C   UNL     1      -0.778  12.790  19.355  0.00  0.00    +0.000 A 
ATOM     31  C   UNL     1       0.401  12.631  18.624  0.00  0.00    +0.000 A 
ATOM     32  C   UNL     1       1.095  11.418  18.669  0.00  0.00    +0.000 A 
BRANCH  32  33
ATOM     33  O   UNL     1       2.252  11.289  17.947  0.00  0.00    +0.000 OA
ATOM     34  H   UNL     1       2.119  11.681  17.064  0.00  0.00    +0.000 HD
ENDBRANCH  32  33
ENDBRANCH  24  27
ENDBRANCH  20  23
ENDBRANCH  19  20
ENDBRANCH  18  19
ENDBRANCH   4  18
TORSDOF 8
ENDMDL
MODEL 3
REMARK VINA RESULT:      -7.7      4.899      7.438
REMARK  Name = 
REMARK  8 active torsions:
REMARK  status: ('A' for Active; 'I' for Inactive)
REMARK    1  A    between atoms: N_1  and  C_2
REMARK    2  A    between atoms: N_9  and  C_10
REMARK    3  A    between atoms: C_13  and  C_14
REMARK    4  A    between atoms: C_14  and  O_15
REMARK    5  A    between atoms: O_15  and  S_16
REMARK    6  A    between atoms: S_16  and  N_19
REMARK    7  A    between atoms: C_20  and  C_22
REMARK    8  A    between atoms: C_27  and  O_28
REMARK                            x       y       z     vdW  Elec       q    Type
REMARK                         _______ _______ _______ _____ _____    ______ ____
ROOT
ATOM      1  C   UNL     1       1.836   4.264  17.912  0.00  0.00    +0.000 C 
ATOM      2  C   UNL     1       1.301   5.715  17.860  0.00  0.00    +0.000 C 
ATOM      3  C   UNL     1       2.523   6.634  18.008  0.00  0.00    +0.000 C 
ATOM      4  C   UNL     1       3.761   5.770  17.720  0.00  0.00    +0.000 C 
ATOM      5  C   UNL     1       3.179   4.452  17.185  0.00  0.00    +0.000 C 
ENDROOT
BRANCH   1  13
ATOM      6  C   UNL     1       3.953   2.014  19.152  0.00  0.00    +0.000 A 
ATOM      7  N   UNL     1       4.739   1.331  20.007  0.00  0.00    +0.000 NA
ATOM      8  C   UNL     1       4.483   1.405  21.326  0.00  0.00    +0.000 A 
ATOM      9  N   UNL     1       3.485   2.047  21.926  0.00  0.00    +0.000 NA
ATOM     10  C   UNL     1       2.720   2.736  21.064  0.00  0.00    +0.000 A 
ATOM     11  N   UNL     1       1.610   3.438  21.430  0.00  0.00    +0.000 NA
ATOM     12  C   UNL     1       1.160   3.953  20.315  0.00  0.00    +0.000 A 
ATOM     13  N   UNL     1       1.967   3.673  19.239  0.00  0.00    +0.000 N 
ATOM     14  C   UNL     1       2.935   2.793  19.688  0.00  0.00    +0.000 A 
BRANCH   6  15
ATOM     15  N   UNL     1       4.231   1.822  17.806  0.00  0.00    +0.000 N 
ATOM     16  H   UNL     1       4.394   2.739  17.397  0.00  0.00    +0.000 HD
ATOM     17  H   UNL     1       3.558   1.270  17.300  0.00  0.00    +0.000 HD
ENDBRANCH   6  15
ENDBRANCH   1  13
BRANCH   4  18
ATOM     18  C   UNL     1       4.620   5.653  18.989  0.00  0.00    +0.000 C 
BRANCH  18  19
ATOM     19  O   UNL     1       5.644   4.676  18.887  0.00  0.00    +0.000 OA
BRANCH  19  20
ATOM     20  S   UNL     1       6.978   5.160  18.077  0.00  0.00    +0.000 S 
ATOM     21  O   UNL     1       7.006   6.604  18.035  0.00  0.00    +0.000 OA
ATOM     22  O   UNL     1       8.101   4.421  18.618  0.00  0.00    +0.000 OA
BRANCH  20  23
ATOM     23  N   UNL     1       6.786   4.585  16.547  0.00  0.00    +0.000 N 
ATOM     24  C   UNL     1       6.396   5.361  15.463  0.00  0.00    +0.000 C 
ATOM     25  O   UNL     1       6.000   6.512  15.570  0.00  0.00    +0.000 OA
ATOM     26  H   UNL     1       7.053   3.610  16.424  0.00  0.00    +0.000 HD
BRANCH  24  27
ATOM     27  C   UNL     1       6.497   4.715  14.127  0.00  0.00    +0.000 A 
ATOM     28  C   UNL     1       5.487   3.794  13.802  0.00  0.00    +0.000 A 
ATOM     29  C   UNL     1       5.490   3.137  12.573  0.00  0.00    +0.000 A 
ATOM     30  C   UNL     1       6.504   3.393  11.654  0.00  0.00    +0.000 A 
ATOM     31  C   UNL     1       7.510   4.313  11.957  0.00  0.00    +0.000 A 
ATOM     32  C   UNL     1       7.503   4.979  13.187  0.00  0.00    +0.000 A 
BRANCH  32  33
ATOM     33  O   UNL     1       8.498   5.880  13.459  0.00  0.00    +0.000 OA
ATOM     34  H   UNL     1       9.325   5.574  13.042  0.00  0.00    +0.000 HD
ENDBRANCH  32  33
ENDBRANCH  24  27
ENDBRANCH  20  23
ENDBRANCH  19  20
ENDBRANCH  18  19
ENDBRANCH   4  18
TORSDOF 8
ENDMDL
MODEL 4
REMARK VINA RESULT:      -7.7      2.811      3.184
REMARK  Name = 
REMARK  8 active torsions:
REMARK  status: ('A' for Active; 'I' for Inactive)
REMARK    1  A    between atoms: N_1  and  C_2
REMARK    2  A    between atoms: N_9  and  C_10
REMARK    3  A    between atoms: C_13  and  C_14
REMARK    4  A    between atoms: C_14  and  O_15
REMARK    5  A    between atoms: O_15  and  S_16
REMARK    6  A    between atoms: S_16  and  N_19
REMARK    7  A    between atoms: C_20  and  C_22
REMARK    8  A    between atoms: C_27  and  O_28
REMARK                            x       y       z     vdW  Elec       q    Type
REMARK                         _______ _______ _______ _____ _____    ______ ____
ROOT
ATOM      1  C   UNL     1       5.388   3.527  17.293  0.00  0.00    +0.000 C 
ATOM      2  C   UNL     1       5.755   3.826  15.820  0.00  0.00    +0.000 C 
ATOM      3  C   UNL     1       5.602   5.344  15.635  0.00  0.00    +0.000 C 
ATOM      4  C   UNL     1       5.573   5.959  17.044  0.00  0.00    +0.000 C 
ATOM      5  C   UNL     1       5.952   4.790  17.967  0.00  0.00    +0.000 C 
ENDROOT
BRANCH   1  13
ATOM      6  C   UNL     1       3.791   2.530  20.038  0.00  0.00    +0.000 A 
ATOM      7  N   UNL     1       2.840   2.374  20.979  0.00  0.00    +0.000 NA
ATOM      8  C   UNL     1       1.554   2.596  20.649  0.00  0.00    +0.000 A 
ATOM      9  N   UNL     1       1.065   2.913  19.454  0.00  0.00    +0.000 NA
ATOM     10  C   UNL     1       2.024   3.082  18.530  0.00  0.00    +0.000 A 
ATOM     11  N   UNL     1       1.772   3.366  17.220  0.00  0.00    +0.000 NA
ATOM     12  C   UNL     1       2.954   3.449  16.665  0.00  0.00    +0.000 A 
ATOM     13  N   UNL     1       3.975   3.296  17.571  0.00  0.00    +0.000 N 
ATOM     14  C   UNL     1       3.389   2.952  18.775  0.00  0.00    +0.000 A 
BRANCH   6  15
ATOM     15  N   UNL     1       5.079   2.204  20.434  0.00  0.00    +0.000 N 
ATOM     16  H   UNL     1       5.720   2.744  19.856  0.00  0.00    +0.000 HD
ATOM     17  H   UNL     1       5.289   1.220  20.455  0.00  0.00    +0.000 HD
ENDBRANCH   6  15
ENDBRANCH   1  13
BRANCH   4  18
ATOM     18  C   UNL     1       4.199   6.597  17.304  0.00  0.00    +0.000 C 
BRANCH  18  19
ATOM     19  O   UNL     1       3.916   6.778  18.682  0.00  0.00    +0.000 OA
BRANCH  19  20
ATOM     20  S   UNL     1       2.326   6.822  19.057  0.00  0.00    +0.000 S 
ATOM     21  O   UNL     1       1.556   6.460  17.890  0.00  0.00    +0.000 OA
ATOM     22  O   UNL     1       2.158   6.097  20.301  0.00  0.00    +0.000 OA
BRANCH  20  23
ATOM     23  N   UNL     1       2.016   8.394  19.436  0.00  0.00    +0.000 N 
ATOM     24  C   UNL     1       1.770   9.390  18.499  0.00  0.00    +0.000 C 
ATOM     25  O   UNL     1       1.918   9.231  17.297  0.00  0.00    +0.000 OA
ATOM     26  H   UNL     1       1.938   8.582  20.433  0.00  0.00    +0.000 HD
BRANCH  24  27
ATOM     27  C   UNL     1       1.291  10.690  19.039  0.00  0.00    +0.000 A 
ATOM     28  C   UNL     1       0.405  10.625  20.128  0.00  0.00    +0.000 A 
ATOM     29  C   UNL     1      -0.098  11.788  20.708  0.00  0.00    +0.000 A 
ATOM     30  C   UNL     1       0.278  13.031  20.204  0.00  0.00    +0.000 A 
ATOM     31  C   UNL     1       1.166  13.114  19.130  0.00  0.00    +0.000 A 
ATOM     32  C   UNL     1       1.678  11.947  18.553  0.00  0.00    +0.000 A 
BRANCH  32  33
ATOM     33  O   UNL     1       2.551  12.055  17.503  0.00  0.00    +0.000 OA
ATOM     34  H   UNL     1       2.043  12.075  16.670  0.00  0.00    +0.000 HD
ENDBRANCH  32  33
ENDBRANCH  24  27
ENDBRANCH  20  23
ENDBRANCH  19  20
ENDBRANCH  18  19
ENDBRANCH   4  18
TORSDOF 8
ENDMDL
MODEL 5
REMARK VINA RESULT:      -7.7      2.621      4.443
REMARK  Name = 
REMARK  8 active torsions:
REMARK  status: ('A' for Active; 'I' for Inactive)
REMARK    1  A    between atoms: N_1  and  C_2
REMARK    2  A    between atoms: N_9  and  C_10
REMARK    3  A    between atoms: C_13  and  C_14
REMARK    4  A    between atoms: C_14  and  O_15
REMARK    5  A    between atoms: O_15  and  S_16
REMARK    6  A    between atoms: S_16  and  N_19
REMARK    7  A    between atoms: C_20  and  C_22
REMARK    8  A    between atoms: C_27  and  O_28
REMARK                            x       y       z     vdW  Elec       q    Type
REMARK                         _______ _______ _______ _____ _____    ______ ____
ROOT
ATOM      1  C   UNL     1       3.869   2.538  17.538  0.00  0.00    +0.000 C 
ATOM      2  C   UNL     1       3.192   1.569  18.537  0.00  0.00    +0.000 C 
ATOM      3  C   UNL     1       1.937   2.287  19.056  0.00  0.00    +0.000 C 
ATOM      4  C   UNL     1       1.654   3.440  18.079  0.00  0.00    +0.000 C 
ATOM      5  C   UNL     1       2.621   3.184  16.912  0.00  0.00    +0.000 C 
ENDROOT
BRANCH   1  13
ATOM      6  C   UNL     1       5.880   4.789  16.137  0.00  0.00    +0.000 A 
ATOM      7  N   UNL     1       6.610   5.903  15.936  0.00  0.00    +0.000 NA
ATOM      8  C   UNL     1       7.012   6.620  17.002  0.00  0.00    +0.000 A 
ATOM      9  N   UNL     1       6.823   6.339  18.288  0.00  0.00    +0.000 NA
ATOM     10  C   UNL     1       6.080   5.236  18.474  0.00  0.00    +0.000 A 
ATOM     11  N   UNL     1       5.786   4.719  19.701  0.00  0.00    +0.000 NA
ATOM     12  C   UNL     1       5.057   3.662  19.449  0.00  0.00    +0.000 A 
ATOM     13  N   UNL     1       4.803   3.501  18.108  0.00  0.00    +0.000 N 
ATOM     14  C   UNL     1       5.549   4.459  17.446  0.00  0.00    +0.000 A 
BRANCH   6  15
ATOM     15  N   UNL     1       5.575   4.064  14.995  0.00  0.00    +0.000 N 
ATOM     16  H   UNL     1       5.320   4.733  14.271  0.00  0.00    +0.000 HD
ATOM     17  H   UNL     1       4.900   3.328  15.118  0.00  0.00    +0.000 HD
ENDBRANCH   6  15
ENDBRANCH   1  13
BRANCH   4  18
ATOM     18  C   UNL     1       1.822   4.786  18.802  0.00  0.00    +0.000 C 
BRANCH  18  19
ATOM     19  O   UNL     1       1.959   5.886  17.916  0.00  0.00    +0.000 OA
BRANCH  19  20
ATOM     20  S   UNL     1       2.752   7.173  18.536  0.00  0.00    +0.000 S 
ATOM     21  O   UNL     1       3.244   6.835  19.852  0.00  0.00    +0.000 OA
ATOM     22  O   UNL     1       3.662   7.650  17.515  0.00  0.00    +0.000 OA
BRANCH  20  23
ATOM     23  N   UNL     1       1.615   8.354  18.678  0.00  0.00    +0.000 N 
ATOM     24  C   UNL     1       1.182   8.881  19.889  0.00  0.00    +0.000 C 
ATOM     25  O   UNL     1       1.484   8.408  20.973  0.00  0.00    +0.000 OA
ATOM     26  H   UNL     1       1.293   8.741  17.793  0.00  0.00    +0.000 HD
BRANCH  24  27
ATOM     27  C   UNL     1       0.319  10.090  19.803  0.00  0.00    +0.000 A 
ATOM     28  C   UNL     1      -0.279  10.343  18.557  0.00  0.00    +0.000 A 
ATOM     29  C   UNL     1      -1.107  11.449  18.375  0.00  0.00    +0.000 A 
ATOM     30  C   UNL     1      -1.347  12.316  19.438  0.00  0.00    +0.000 A 
ATOM     31  C   UNL     1      -0.769  12.074  20.685  0.00  0.00    +0.000 A 
ATOM     32  C   UNL     1       0.055  10.959  20.871  0.00  0.00    +0.000 A 
BRANCH  32  33
ATOM     33  O   UNL     1       0.607  10.741  22.106  0.00  0.00    +0.000 OA
ATOM     34  H   UNL     1       1.382  11.322  22.213  0.00  0.00    +0.000 HD
ENDBRANCH  32  33
ENDBRANCH  24  27
ENDBRANCH  20  23
ENDBRANCH  19  20
ENDBRANCH  18  19
ENDBRANCH   4  18
TORSDOF 8
ENDMDL
MODEL 6
REMARK VINA RESULT:      -7.7      2.991      4.819
REMARK  Name = 
REMARK  8 active torsions:
REMARK  status: ('A' for Active; 'I' for Inactive)
REMARK    1  A    between atoms: N_1  and  C_2
REMARK    2  A    between atoms: N_9  and  C_10
REMARK    3  A    between atoms: C_13  and  C_14
REMARK    4  A    between atoms: C_14  and  O_15
REMARK    5  A    between atoms: O_15  and  S_16
REMARK    6  A    between atoms: S_16  and  N_19
REMARK    7  A    between atoms: C_20  and  C_22
REMARK    8  A    between atoms: C_27  and  O_28
REMARK                            x       y       z     vdW  Elec       q    Type
REMARK                         _______ _______ _______ _____ _____    ______ ____
ROOT
ATOM      1  C   UNL     1       3.602   3.003  17.701  0.00  0.00    +0.000 C 
ATOM      2  C   UNL     1       2.886   2.041  18.678  0.00  0.00    +0.000 C 
ATOM      3  C   UNL     1       1.845   2.883  19.432  0.00  0.00    +0.000 C 
ATOM      4  C   UNL     1       1.658   4.178  18.625  0.00  0.00    +0.000 C 
ATOM      5  C   UNL     1       2.422   3.915  17.318  0.00  0.00    +0.000 C 
ENDROOT
BRANCH   1  13
ATOM      6  C   UNL     1       5.813   5.040  16.272  0.00  0.00    +0.000 A 
ATOM      7  N   UNL     1       6.703   6.034  16.085  0.00  0.00    +0.000 NA
ATOM      8  C   UNL     1       7.343   6.544  17.153  0.00  0.00    +0.000 A 
ATOM      9  N   UNL     1       7.251   6.150  18.420  0.00  0.00    +0.000 NA
ATOM     10  C   UNL     1       6.349   5.171  18.594  0.00  0.00    +0.000 A 
ATOM     11  N   UNL     1       6.107   4.569  19.794  0.00  0.00    +0.000 NA
ATOM     12  C   UNL     1       5.177   3.684  19.539  0.00  0.00    +0.000 A 
ATOM     13  N   UNL     1       4.751   3.726  18.234  0.00  0.00    +0.000 N 
ATOM     14  C   UNL     1       5.577   4.618  17.575  0.00  0.00    +0.000 A 
BRANCH   6  15
ATOM     15  N   UNL     1       5.257   4.514  15.115  0.00  0.00    +0.000 N 
ATOM     16  H   UNL     1       4.877   3.600  15.350  0.00  0.00    +0.000 HD
ATOM     17  H   UNL     1       5.864   4.503  14.311  0.00  0.00    +0.000 HD
ENDBRANCH   6  15
ENDBRANCH   1  13
BRANCH   4  18
ATOM     18  C   UNL     1       2.143   5.380  19.452  0.00  0.00    +0.000 C 
BRANCH  18  19
ATOM     19  O   UNL     1       3.056   6.211  18.753  0.00  0.00    +0.000 OA
BRANCH  19  20
ATOM     20  S   UNL     1       2.424   7.612  18.198  0.00  0.00    +0.000 S 
ATOM     21  O   UNL     1       3.490   8.439  17.683  0.00  0.00    +0.000 OA
ATOM     22  O   UNL     1       1.292   7.271  17.360  0.00  0.00    +0.000 OA
BRANCH  20  23
ATOM     23  N   UNL     1       1.770   8.344  19.519  0.00  0.00    +0.000 N 
ATOM     24  C   UNL     1       1.031   9.520  19.476  0.00  0.00    +0.000 C 
ATOM     25  O   UNL     1       0.932  10.213  18.475  0.00  0.00    +0.000 OA
ATOM     26  H   UNL     1       1.878   7.825  20.388  0.00  0.00    +0.000 HD
BRANCH  24  27
ATOM     27  C   UNL     1       0.337   9.901  20.735  0.00  0.00    +0.000 A 
ATOM     28  C   UNL     1       0.444   8.997  21.805  0.00  0.00    +0.000 A 
ATOM     29  C   UNL     1      -0.168   9.264  23.029  0.00  0.00    +0.000 A 
ATOM     30  C   UNL     1      -0.895  10.441  23.196  0.00  0.00    +0.000 A 
ATOM     31  C   UNL     1      -1.002  11.355  22.147  0.00  0.00    +0.000 A 
ATOM     32  C   UNL     1      -0.381  11.091  20.921  0.00  0.00    +0.000 A 
BRANCH  32  33
ATOM     33  O   UNL     1      -0.496  12.007  19.909  0.00  0.00    +0.000 OA
ATOM     34  H   UNL     1       0.390  12.188  19.544  0.00  0.00    +0.000 HD
ENDBRANCH  32  33
ENDBRANCH  24  27
ENDBRANCH  20  23
ENDBRANCH  19  20
ENDBRANCH  18  19
ENDBRANCH   4  18
TORSDOF 8
ENDMDL
MODEL 7
REMARK VINA RESULT:      -7.7      2.613      3.365
REMARK  Name = 
REMARK  8 active torsions:
REMARK  status: ('A' for Active; 'I' for Inactive)
REMARK    1  A    between atoms: N_1  and  C_2
REMARK    2  A    between atoms: N_9  and  C_10
REMARK    3  A    between atoms: C_13  and  C_14
REMARK    4  A    between atoms: C_14  and  O_15
REMARK    5  A    between atoms: O_15  and  S_16
REMARK    6  A    between atoms: S_16  and  N_19
REMARK    7  A    between atoms: C_20  and  C_22
REMARK    8  A    between atoms: C_27  and  O_28
REMARK                            x       y       z     vdW  Elec       q    Type
REMARK                         _______ _______ _______ _____ _____    ______ ____
ROOT
ATOM      1  C   UNL     1       4.913   3.719  17.279  0.00  0.00    +0.000 C 
ATOM      2  C   UNL     1       4.983   4.365  15.875  0.00  0.00    +0.000 C 
ATOM      3  C   UNL     1       5.183   5.871  16.099  0.00  0.00    +0.000 C 
ATOM      4  C   UNL     1       5.647   6.042  17.555  0.00  0.00    +0.000 C 
ATOM      5  C   UNL     1       5.923   4.606  18.027  0.00  0.00    +0.000 C 
ENDROOT
BRANCH   1  13
ATOM      6  C   UNL     1       3.880   2.577  20.230  0.00  0.00    +0.000 A 
ATOM      7  N   UNL     1       3.180   2.430  21.371  0.00  0.00    +0.000 NA
ATOM      8  C   UNL     1       1.922   2.904  21.429  0.00  0.00    +0.000 A 
ATOM      9  N   UNL     1       1.224   3.477  20.453  0.00  0.00    +0.000 NA
ATOM     10  C   UNL     1       1.939   3.633  19.327  0.00  0.00    +0.000 A 
ATOM     11  N   UNL     1       1.432   4.154  18.174  0.00  0.00    +0.000 NA
ATOM     12  C   UNL     1       2.432   4.131  17.331  0.00  0.00    +0.000 A 
ATOM     13  N   UNL     1       3.596   3.677  17.903  0.00  0.00    +0.000 N 
ATOM     14  C   UNL     1       3.270   3.248  19.177  0.00  0.00    +0.000 A 
BRANCH   6  15
ATOM     15  N   UNL     1       5.138   1.991  20.224  0.00  0.00    +0.000 N 
ATOM     16  H   UNL     1       5.528   2.105  21.157  0.00  0.00    +0.000 HD
ATOM     17  H   UNL     1       5.754   2.299  19.490  0.00  0.00    +0.000 HD
ENDBRANCH   6  15
ENDBRANCH   1  13
BRANCH   4  18
ATOM     18  C   UNL     1       4.584   6.814  18.352  0.00  0.00    +0.000 C 
BRANCH  18  19
ATOM     19  O   UNL     1       3.654   7.501  17.530  0.00  0.00    +0.000 OA
BRANCH  19  20
ATOM     20  S   UNL     1       2.243   7.883  18.259  0.00  0.00    +0.000 S 
ATOM     21  O   UNL     1       1.147   7.467  17.414  0.00  0.00    +0.000 OA
ATOM     22  O   UNL     1       2.328   7.421  19.629  0.00  0.00    +0.000 OA
BRANCH  20  23
ATOM     23  N   UNL     1       2.242   9.526  18.364  0.00  0.00    +0.000 N 
ATOM     24  C   UNL     1       1.244  10.269  18.984  0.00  0.00    +0.000 C 
ATOM     25  O   UNL     1       0.190   9.787  19.369  0.00  0.00    +0.000 OA
ATOM     26  H   UNL     1       3.081   9.974  18.003  0.00  0.00    +0.000 HD
BRANCH  24  27
ATOM     27  C   UNL     1       1.531  11.716  19.173  0.00  0.00    +0.000 A 
ATOM     28  C   UNL     1       1.084  12.289  20.376  0.00  0.00    +0.000 A 
ATOM     29  C   UNL     1       1.307  13.637  20.650  0.00  0.00    +0.000 A 
ATOM     30  C   UNL     1       1.979  14.430  19.723  0.00  0.00    +0.000 A 
ATOM     31  C   UNL     1       2.440  13.874  18.527  0.00  0.00    +0.000 A 
ATOM     32  C   UNL     1       2.224  12.519  18.256  0.00  0.00    +0.000 A 
BRANCH  32  33
ATOM     33  O   UNL     1       2.690  11.996  17.078  0.00  0.00    +0.000 OA
ATOM     34  H   UNL     1       2.738  11.026  17.160  0.00  0.00    +0.000 HD
ENDBRANCH  32  33
ENDBRANCH  24  27
ENDBRANCH  20  23
ENDBRANCH  19  20
ENDBRANCH  18  19
ENDBRANCH   4  18
TORSDOF 8
ENDMDL
MODEL 8
REMARK VINA RESULT:      -7.6      2.411      4.416
REMARK  Name = 
REMARK  8 active torsions:
REMARK  status: ('A' for Active; 'I' for Inactive)
REMARK    1  A    between atoms: N_1  and  C_2
REMARK    2  A    between atoms: N_9  and  C_10
REMARK    3  A    between atoms: C_13  and  C_14
REMARK    4  A    between atoms: C_14  and  O_15
REMARK    5  A    between atoms: O_15  and  S_16
REMARK    6  A    between atoms: S_16  and  N_19
REMARK    7  A    between atoms: C_20  and  C_22
REMARK    8  A    between atoms: C_27  and  O_28
REMARK                            x       y       z     vdW  Elec       q    Type
REMARK                         _______ _______ _______ _____ _____    ______ ____
ROOT
ATOM      1  C   UNL     1       3.736   2.596  17.430  0.00  0.00    +0.000 C 
ATOM      2  C   UNL     1       3.105   1.546  18.374  0.00  0.00    +0.000 C 
ATOM      3  C   UNL     1       1.893   2.224  19.030  0.00  0.00    +0.000 C 
ATOM      4  C   UNL     1       1.571   3.465  18.182  0.00  0.00    +0.000 C 
ATOM      5  C   UNL     1       2.463   3.310  16.942  0.00  0.00    +0.000 C 
ENDROOT
BRANCH   1  13
ATOM      6  C   UNL     1       5.710   4.935  16.122  0.00  0.00    +0.000 A 
ATOM      7  N   UNL     1       6.448   6.053  15.978  0.00  0.00    +0.000 NA
ATOM      8  C   UNL     1       6.919   6.668  17.079  0.00  0.00    +0.000 A 
ATOM      9  N   UNL     1       6.793   6.278  18.344  0.00  0.00    +0.000 NA
ATOM     10  C   UNL     1       6.042   5.174  18.474  0.00  0.00    +0.000 A 
ATOM     11  N   UNL     1       5.804   4.555  19.665  0.00  0.00    +0.000 NA
ATOM     12  C   UNL     1       5.044   3.534  19.364  0.00  0.00    +0.000 A 
ATOM     13  N   UNL     1       4.717   3.494  18.030  0.00  0.00    +0.000 N 
ATOM     14  C   UNL     1       5.443   4.496  17.413  0.00  0.00    +0.000 A 
BRANCH   6  15
ATOM     15  N   UNL     1       5.332   4.316  14.939  0.00  0.00    +0.000 N 
ATOM     16  H   UNL     1       4.318   4.379  14.876  0.00  0.00    +0.000 HD
ATOM     17  H   UNL     1       5.686   3.383  14.807  0.00  0.00    +0.000 HD
ENDBRANCH   6  15
ENDBRANCH   1  13
BRANCH   4  18
ATOM     18  C   UNL     1       1.800   4.737  19.015  0.00  0.00    +0.000 C 
BRANCH  18  19
ATOM     19  O   UNL     1       1.823   5.922  18.235  0.00  0.00    +0.000 OA
BRANCH  19  20
ATOM     20  S   UNL     1       2.806   7.098  18.802  0.00  0.00    +0.000 S 
ATOM     21  O   UNL     1       3.518   6.602  19.956  0.00  0.00    +0.000 OA
ATOM     22  O   UNL     1       3.531   7.635  17.668  0.00  0.00    +0.000 OA
BRANCH  20  23
ATOM     23  N   UNL     1       1.799   8.311  19.275  0.00  0.00    +0.000 N 
ATOM     24  C   UNL     1       1.383   9.348  18.449  0.00  0.00    +0.000 C 
ATOM     25  O   UNL     1       1.851   9.552  17.339  0.00  0.00    +0.000 OA
ATOM     26  H   UNL     1       1.427   8.210  20.217  0.00  0.00    +0.000 HD
BRANCH  24  27
ATOM     27  C   UNL     1       0.302  10.217  18.987  0.00  0.00    +0.000 A 
ATOM     28  C   UNL     1       0.529  10.786  20.252  0.00  0.00    +0.000 A 
ATOM     29  C   UNL     1      -0.421  11.617  20.841  0.00  0.00    +0.000 A 
ATOM     30  C   UNL     1      -1.612  11.890  20.173  0.00  0.00    +0.000 A 
ATOM     31  C   UNL     1      -1.850  11.342  18.911  0.00  0.00    +0.000 A 
ATOM     32  C   UNL     1      -0.892  10.514  18.315  0.00  0.00    +0.000 A 
BRANCH  32  33
ATOM     33  O   UNL     1      -1.147   9.992  17.074  0.00  0.00    +0.000 OA
ATOM     34  H   UNL     1      -0.304   9.891  16.594  0.00  0.00    +0.000 HD
ENDBRANCH  32  33
ENDBRANCH  24  27
ENDBRANCH  20  23
ENDBRANCH  19  20
ENDBRANCH  18  19
ENDBRANCH   4  18
TORSDOF 8
ENDMDL
MODEL 9
REMARK VINA RESULT:      -7.6      1.709      3.668
REMARK  Name = 
REMARK  8 active torsions:
REMARK  status: ('A' for Active; 'I' for Inactive)
REMARK    1  A    between atoms: N_1  and  C_2
REMARK    2  A    between atoms: N_9  and  C_10
REMARK    3  A    between atoms: C_13  and  C_14
REMARK    4  A    between atoms: C_14  and  O_15
REMARK    5  A    between atoms: O_15  and  S_16
REMARK    6  A    between atoms: S_16  and  N_19
REMARK    7  A    between atoms: C_20  and  C_22
REMARK    8  A    between atoms: C_27  and  O_28
REMARK                            x       y       z     vdW  Elec       q    Type
REMARK                         _______ _______ _______ _____ _____    ______ ____
ROOT
ATOM      1  C   UNL     1       3.383   3.658  18.247  0.00  0.00    +0.000 C 
ATOM      2  C   UNL     1       2.498   3.375  19.484  0.00  0.00    +0.000 C 
ATOM      3  C   UNL     1       1.675   4.649  19.729  0.00  0.00    +0.000 C 
ATOM      4  C   UNL     1       1.752   5.479  18.437  0.00  0.00    +0.000 C 
ATOM      5  C   UNL     1       2.418   4.532  17.427  0.00  0.00    +0.000 C 
ENDROOT
BRANCH   1  13
ATOM      6  C   UNL     1       5.665   4.985  16.220  0.00  0.00    +0.000 A 
ATOM      7  N   UNL     1       6.650   5.770  15.741  0.00  0.00    +0.000 NA
ATOM      8  C   UNL     1       7.468   6.391  16.611  0.00  0.00    +0.000 A 
ATOM      9  N   UNL     1       7.470   6.293  17.937  0.00  0.00    +0.000 NA
ATOM     10  C   UNL     1       6.473   5.522  18.401  0.00  0.00    +0.000 A 
ATOM     11  N   UNL     1       6.292   5.231  19.721  0.00  0.00    +0.000 NA
ATOM     12  C   UNL     1       5.232   4.464  19.749  0.00  0.00    +0.000 A 
ATOM     13  N   UNL     1       4.670   4.293  18.507  0.00  0.00    +0.000 N 
ATOM     14  C   UNL     1       5.525   4.890  17.599  0.00  0.00    +0.000 A 
BRANCH   6  15
ATOM     15  N   UNL     1       4.918   4.318  15.260  0.00  0.00    +0.000 N 
ATOM     16  H   UNL     1       5.541   4.110  14.482  0.00  0.00    +0.000 HD
ATOM     17  H   UNL     1       4.066   4.775  14.981  0.00  0.00    +0.000 HD
ENDBRANCH   6  15
ENDBRANCH   1  13
BRANCH   4  18
ATOM     18  C   UNL     1       2.497   6.795  18.709  0.00  0.00    +0.000 C 
BRANCH  18  19
ATOM     19  O   UNL     1       2.101   7.853  17.850  0.00  0.00    +0.000 OA
BRANCH  19  20
ATOM     20  S   UNL     1       1.563   9.193  18.614  0.00  0.00    +0.000 S 
ATOM     21  O   UNL     1       1.484   8.929  20.032  0.00  0.00    +0.000 OA
ATOM     22  O   UNL     1       2.340  10.311  18.119  0.00  0.00    +0.000 OA
BRANCH  20  23
ATOM     23  N   UNL     1       0.043   9.441  18.031  0.00  0.00    +0.000 N 
ATOM     24  C   UNL     1      -0.777  10.496  18.410  0.00  0.00    +0.000 C 
ATOM     25  O   UNL     1      -0.515  11.252  19.333  0.00  0.00    +0.000 OA
ATOM     26  H   UNL     1      -0.239   8.796  17.295  0.00  0.00    +0.000 HD
BRANCH  24  27
ATOM     27  C   UNL     1      -2.019  10.677  17.611  0.00  0.00    +0.000 A 
ATOM     28  C   UNL     1      -2.137   9.888  16.455  0.00  0.00    +0.000 A 
ATOM     29  C   UNL     1      -3.265   9.982  15.640  0.00  0.00    +0.000 A 
ATOM     30  C   UNL     1      -4.287  10.867  15.973  0.00  0.00    +0.000 A 
ATOM     31  C   UNL     1      -4.190  11.651  17.124  0.00  0.00    +0.000 A 
ATOM     32  C   UNL     1      -3.063  11.551  17.947  0.00  0.00    +0.000 A 
BRANCH  32  33
ATOM     33  O   UNL     1      -2.993  12.327  19.074  0.00  0.00    +0.000 OA
ATOM     34  H   UNL     1      -2.674  11.780  19.815  0.00  0.00    +0.000 HD
ENDBRANCH  32  33
ENDBRANCH  24  27
ENDBRANCH  20  23
ENDBRANCH  19  20
ENDBRANCH  18  19
ENDBRANCH   4  18
TORSDOF 8
ENDMDL
