MODEL 1
REMARK VINA RESULT:      -8.1      0.000      0.000
REMARK  Name = 
REMARK  3 active torsions:
REMARK  status: ('A' for Active; 'I' for Inactive)
REMARK    1  A    between atoms: C_2  and  C_3
REMARK    2  A    between atoms: N_16  and  C_17
REMARK    3  A    between atoms: C_17  and  C_18
REMARK                            x       y       z     vdW  Elec       q    Type
REMARK                         _______ _______ _______ _____ _____    ______ ____
ROOT
ATOM      1  O   UNL     1       2.616   4.757  20.324  0.00  0.00    +0.000 OA
ATOM      2  C   UNL     1       2.534   5.649  19.488  0.00  0.00    +0.000 C 
ATOM      3  N   UNL     1       2.869   5.450  18.150  0.00  0.00    +0.000 N 
ATOM      4  C   UNL     1       3.080   4.106  17.653  0.00  0.00    +0.000 C 
ATOM      5  C   UNL     1       4.537   3.838  17.279  0.00  0.00    +0.000 C 
ATOM      6  O   UNL     1       4.937   2.679  17.137  0.00  0.00    +0.000 OA
ATOM      7  N   UNL     1       5.292   4.952  16.902  0.00  0.00    +0.000 N 
ATOM      8  C   UNL     1       4.835   6.262  16.864  0.00  0.00    +0.000 C 
ATOM      9  O   UNL     1       5.485   7.191  16.374  0.00  0.00    +0.000 OA
ATOM     10  C   UNL     1       3.398   6.501  17.293  0.00  0.00    +0.000 C 
ENDROOT
BRANCH   2  11
ATOM     11  C   UNL     1       2.023   6.962  19.830  0.00  0.00    +0.000 A 
ATOM     12  C   UNL     1       1.831   8.080  19.035  0.00  0.00    +0.000 A 
ATOM     13  C   UNL     1       1.367   9.139  19.846  0.00  0.00    +0.000 A 
ATOM     14  C   UNL     1       1.077  10.490  19.593  0.00  0.00    +0.000 A 
ATOM     15  C   UNL     1       0.582  11.280  20.630  0.00  0.00    +0.000 A 
ATOM     16  C   UNL     1       0.391  10.740  21.901  0.00  0.00    +0.000 A 
ATOM     17  C   UNL     1       0.696   9.400  22.180  0.00  0.00    +0.000 A 
ATOM     18  C   UNL     1       1.185   8.621  21.126  0.00  0.00    +0.000 A 
ATOM     19  N   UNL     1       1.558   7.295  21.084  0.00  0.00    +0.000 N 
ATOM     20  H   UNL     1       1.530   6.654  21.865  0.00  0.00    +0.000 HD
ENDBRANCH   2  11
BRANCH   7  21
ATOM     21  C   UNL     1       6.653   4.727  16.442  0.00  0.00    +0.000 C 
BRANCH  21  22
ATOM     22  C   UNL     1       6.811   4.709  14.932  0.00  0.00    +0.000 A 
ATOM     23  C   UNL     1       6.018   3.826  14.198  0.00  0.00    +0.000 A 
ATOM     24  C   UNL     1       6.246   3.686  12.834  0.00  0.00    +0.000 A 
ATOM     25  C   UNL     1       7.242   4.444  12.234  0.00  0.00    +0.000 A 
ATOM     26  C   UNL     1       7.954   5.334  13.021  0.00  0.00    +0.000 A 
ATOM     27  N   UNL     1       7.763   5.484  14.352  0.00  0.00    +0.000 NA
ENDBRANCH  21  22
ENDBRANCH   7  21
TORSDOF 3
ENDMDL
MODEL 2
REMARK VINA RESULT:      -7.9      0.716      1.271
REMARK  Name = 
REMARK  3 active torsions:
REMARK  status: ('A' for Active; 'I' for Inactive)
REMARK    1  A    between atoms: C_2  and  C_3
REMARK    2  A    between atoms: N_16  and  C_17
REMARK    3  A    between atoms: C_17  and  C_18
REMARK                            x       y       z     vdW  Elec       q    Type
REMARK                         _______ _______ _______ _____ _____    ______ ____
ROOT
ATOM      1  O   UNL     1       2.345   5.206  20.525  0.00  0.00    +0.000 OA
ATOM      2  C   UNL     1       2.321   6.042  19.630  0.00  0.00    +0.000 C 
ATOM      3  N   UNL     1       2.656   5.733  18.313  0.00  0.00    +0.000 N 
ATOM      4  C   UNL     1       2.795   4.348  17.911  0.00  0.00    +0.000 C 
ATOM      5  C   UNL     1       4.237   3.973  17.574  0.00  0.00    +0.000 C 
ATOM      6  O   UNL     1       4.571   2.787  17.516  0.00  0.00    +0.000 OA
ATOM      7  N   UNL     1       5.058   5.015  17.132  0.00  0.00    +0.000 N 
ATOM      8  C   UNL     1       4.676   6.344  17.000  0.00  0.00    +0.000 C 
ATOM      9  O   UNL     1       5.382   7.198  16.456  0.00  0.00    +0.000 OA
ATOM     10  C   UNL     1       3.252   6.691  17.394  0.00  0.00    +0.000 C 
ENDROOT
BRANCH   2  11
ATOM     11  C   UNL     1       1.883   7.401  19.876  0.00  0.00    +0.000 A 
ATOM     12  C   UNL     1       1.459   8.004  21.050  0.00  0.00    +0.000 A 
ATOM     13  C   UNL     1       1.077   9.333  20.764  0.00  0.00    +0.000 A 
ATOM     14  C   UNL     1       0.518  10.362  21.541  0.00  0.00    +0.000 A 
ATOM     15  C   UNL     1       0.294  11.606  20.952  0.00  0.00    +0.000 A 
ATOM     16  C   UNL     1       0.605  11.820  19.610  0.00  0.00    +0.000 A 
ATOM     17  C   UNL     1       1.142  10.799  18.813  0.00  0.00    +0.000 A 
ATOM     18  C   UNL     1       1.367   9.561  19.421  0.00  0.00    +0.000 A 
ATOM     19  N   UNL     1       1.883   8.388  18.914  0.00  0.00    +0.000 N 
ATOM     20  H   UNL     1       2.192   8.248  17.961  0.00  0.00    +0.000 HD
ENDBRANCH   2  11
BRANCH   7  21
ATOM     21  C   UNL     1       6.408   4.683  16.706  0.00  0.00    +0.000 C 
BRANCH  21  22
ATOM     22  C   UNL     1       6.604   4.661  15.201  0.00  0.00    +0.000 A 
ATOM     23  C   UNL     1       5.772   3.836  14.442  0.00  0.00    +0.000 A 
ATOM     24  C   UNL     1       6.026   3.686  13.083  0.00  0.00    +0.000 A 
ATOM     25  C   UNL     1       7.086   4.378  12.513  0.00  0.00    +0.000 A 
ATOM     26  C   UNL     1       7.835   5.215  13.323  0.00  0.00    +0.000 A 
ATOM     27  N   UNL     1       7.620   5.373  14.650  0.00  0.00    +0.000 NA
ENDBRANCH  21  22
ENDBRANCH   7  21
TORSDOF 3
ENDMDL
MODEL 3
REMARK VINA RESULT:      -7.8      4.810     10.286
REMARK  Name = 
REMARK  3 active torsions:
REMARK  status: ('A' for Active; 'I' for Inactive)
REMARK    1  A    between atoms: C_2  and  C_3
REMARK    2  A    between atoms: N_16  and  C_17
REMARK    3  A    between atoms: C_17  and  C_18
REMARK                            x       y       z     vdW  Elec       q    Type
REMARK                         _______ _______ _______ _____ _____    ______ ____
ROOT
ATOM      1  O   UNL     1      -0.893   8.511  22.419  0.00  0.00    +0.000 OA
ATOM      2  C   UNL     1      -0.219   9.245  21.707  0.00  0.00    +0.000 C 
ATOM      3  N   UNL     1      -0.272  10.634  21.805  0.00  0.00    +0.000 N 
ATOM      4  C   UNL     1      -0.939  11.251  22.933  0.00  0.00    +0.000 C 
ATOM      5  C   UNL     1      -2.222  11.980  22.535  0.00  0.00    +0.000 C 
ATOM      6  O   UNL     1      -3.052  12.286  23.394  0.00  0.00    +0.000 OA
ATOM      7  N   UNL     1      -2.278  12.456  21.222  0.00  0.00    +0.000 N 
ATOM      8  C   UNL     1      -1.285  12.300  20.263  0.00  0.00    +0.000 C 
ATOM      9  O   UNL     1      -1.306  12.873  19.169  0.00  0.00    +0.000 OA
ATOM     10  C   UNL     1      -0.047  11.525  20.676  0.00  0.00    +0.000 C 
ENDROOT
BRANCH   2  11
ATOM     11  C   UNL     1       0.729   8.708  20.750  0.00  0.00    +0.000 A 
ATOM     12  C   UNL     1       1.158   9.219  19.535  0.00  0.00    +0.000 A 
ATOM     13  C   UNL     1       2.044   8.294  18.943  0.00  0.00    +0.000 A 
ATOM     14  C   UNL     1       2.714   8.258  17.708  0.00  0.00    +0.000 A 
ATOM     15  C   UNL     1       3.576   7.195  17.439  0.00  0.00    +0.000 A 
ATOM     16  C   UNL     1       3.758   6.178  18.374  0.00  0.00    +0.000 A 
ATOM     17  C   UNL     1       3.081   6.183  19.601  0.00  0.00    +0.000 A 
ATOM     18  C   UNL     1       2.227   7.261  19.858  0.00  0.00    +0.000 A 
ATOM     19  N   UNL     1       1.445   7.549  20.955  0.00  0.00    +0.000 N 
ATOM     20  H   UNL     1       1.374   6.982  21.790  0.00  0.00    +0.000 HD
ENDBRANCH   2  11
BRANCH   7  21
ATOM     21  C   UNL     1      -3.437  13.242  20.832  0.00  0.00    +0.000 C 
BRANCH  21  22
ATOM     22  C   UNL     1      -4.621  12.421  20.355  0.00  0.00    +0.000 A 
ATOM     23  C   UNL     1      -4.647  12.018  19.019  0.00  0.00    +0.000 A 
ATOM     24  C   UNL     1      -5.785  11.393  18.523  0.00  0.00    +0.000 A 
ATOM     25  C   UNL     1      -6.858  11.166  19.374  0.00  0.00    +0.000 A 
ATOM     26  C   UNL     1      -6.737  11.552  20.698  0.00  0.00    +0.000 A 
ATOM     27  N   UNL     1      -5.648  12.172  21.209  0.00  0.00    +0.000 NA
ENDBRANCH  21  22
ENDBRANCH   7  21
TORSDOF 3
ENDMDL
MODEL 4
REMARK VINA RESULT:      -7.7      4.441      9.994
REMARK  Name = 
REMARK  3 active torsions:
REMARK  status: ('A' for Active; 'I' for Inactive)
REMARK    1  A    between atoms: C_2  and  C_3
REMARK    2  A    between atoms: N_16  and  C_17
REMARK    3  A    between atoms: C_17  and  C_18
REMARK                            x       y       z     vdW  Elec       q    Type
REMARK                         _______ _______ _______ _____ _____    ______ ____
ROOT
ATOM      1  O   UNL     1      -0.875   8.104  22.082  0.00  0.00    +0.000 OA
ATOM      2  C   UNL     1      -0.048   8.844  21.565  0.00  0.00    +0.000 C 
ATOM      3  N   UNL     1       0.044  10.198  21.884  0.00  0.00    +0.000 N 
ATOM      4  C   UNL     1      -0.671  10.717  23.031  0.00  0.00    +0.000 C 
ATOM      5  C   UNL     1      -1.811  11.656  22.642  0.00  0.00    +0.000 C 
ATOM      6  O   UNL     1      -2.693  11.933  23.459  0.00  0.00    +0.000 OA
ATOM      7  N   UNL     1      -1.667  12.328  21.425  0.00  0.00    +0.000 N 
ATOM      8  C   UNL     1      -0.598  12.194  20.549  0.00  0.00    +0.000 C 
ATOM      9  O   UNL     1      -0.434  12.923  19.566  0.00  0.00    +0.000 OA
ATOM     10  C   UNL     1       0.492  11.213  20.942  0.00  0.00    +0.000 C 
ENDROOT
BRANCH   2  11
ATOM     11  C   UNL     1       0.934   8.341  20.624  0.00  0.00    +0.000 A 
ATOM     12  C   UNL     1       1.377   8.875  19.425  0.00  0.00    +0.000 A 
ATOM     13  C   UNL     1       2.300   7.979  18.843  0.00  0.00    +0.000 A 
ATOM     14  C   UNL     1       2.998   7.973  17.624  0.00  0.00    +0.000 A 
ATOM     15  C   UNL     1       3.891   6.935  17.363  0.00  0.00    +0.000 A 
ATOM     16  C   UNL     1       4.077   5.912  18.291  0.00  0.00    +0.000 A 
ATOM     17  C   UNL     1       3.373   5.888  19.503  0.00  0.00    +0.000 A 
ATOM     18  C   UNL     1       2.487   6.941  19.752  0.00  0.00    +0.000 A 
ATOM     19  N   UNL     1       1.674   7.198  20.834  0.00  0.00    +0.000 N 
ATOM     20  H   UNL     1       1.599   6.620  21.660  0.00  0.00    +0.000 HD
ENDBRANCH   2  11
BRANCH   7  21
ATOM     21  C   UNL     1      -2.681  13.306  21.064  0.00  0.00    +0.000 C 
BRANCH  21  22
ATOM     22  C   UNL     1      -3.901  12.722  20.376  0.00  0.00    +0.000 A 
ATOM     23  C   UNL     1      -5.105  12.694  21.082  0.00  0.00    +0.000 A 
ATOM     24  C   UNL     1      -6.197  12.035  20.531  0.00  0.00    +0.000 A 
ATOM     25  C   UNL     1      -6.069  11.439  19.283  0.00  0.00    +0.000 A 
ATOM     26  C   UNL     1      -4.857  11.552  18.624  0.00  0.00    +0.000 A 
ATOM     27  N   UNL     1      -3.772  12.177  19.139  0.00  0.00    +0.000 NA
ENDBRANCH  21  22
ENDBRANCH   7  21
TORSDOF 3
ENDMDL
MODEL 5
REMARK VINA RESULT:      -7.5      2.520      8.415
REMARK  Name = 
REMARK  3 active torsions:
REMARK  status: ('A' for Active; 'I' for Inactive)
REMARK    1  A    between atoms: C_2  and  C_3
REMARK    2  A    between atoms: N_16  and  C_17
REMARK    3  A    between atoms: C_17  and  C_18
REMARK                            x       y       z     vdW  Elec       q    Type
REMARK                         _______ _______ _______ _____ _____    ______ ____
ROOT
ATOM      1  O   UNL     1       1.476   5.275  20.446  0.00  0.00    +0.000 OA
ATOM      2  C   UNL     1       2.224   6.071  19.890  0.00  0.00    +0.000 C 
ATOM      3  N   UNL     1       2.196   7.437  20.166  0.00  0.00    +0.000 N 
ATOM      4  C   UNL     1       1.455   7.925  21.310  0.00  0.00    +0.000 C 
ATOM      5  C   UNL     1       0.227   8.744  20.914  0.00  0.00    +0.000 C 
ATOM      6  O   UNL     1      -0.662   8.965  21.739  0.00  0.00    +0.000 OA
ATOM      7  N   UNL     1       0.289   9.386  19.674  0.00  0.00    +0.000 N 
ATOM      8  C   UNL     1       1.352   9.322  18.782  0.00  0.00    +0.000 C 
ATOM      9  O   UNL     1       1.433  10.031  17.775  0.00  0.00    +0.000 OA
ATOM     10  C   UNL     1       2.533   8.457  19.184  0.00  0.00    +0.000 C 
ENDROOT
BRANCH   2  11
ATOM     11  C   UNL     1       3.232   5.630  18.947  0.00  0.00    +0.000 A 
ATOM     12  C   UNL     1       3.094   5.112  17.670  0.00  0.00    +0.000 A 
ATOM     13  C   UNL     1       4.373   4.773  17.177  0.00  0.00    +0.000 A 
ATOM     14  C   UNL     1       4.817   4.161  15.993  0.00  0.00    +0.000 A 
ATOM     15  C   UNL     1       6.188   4.004  15.787  0.00  0.00    +0.000 A 
ATOM     16  C   UNL     1       7.100   4.435  16.749  0.00  0.00    +0.000 A 
ATOM     17  C   UNL     1       6.676   5.027  17.947  0.00  0.00    +0.000 A 
ATOM     18  C   UNL     1       5.299   5.183  18.133  0.00  0.00    +0.000 A 
ATOM     19  N   UNL     1       4.587   5.726  19.180  0.00  0.00    +0.000 N 
ATOM     20  H   UNL     1       4.989   6.116  20.022  0.00  0.00    +0.000 HD
ENDBRANCH   2  11
BRANCH   7  21
ATOM     21  C   UNL     1      -0.816  10.256  19.303  0.00  0.00    +0.000 C 
BRANCH  21  22
ATOM     22  C   UNL     1      -0.547  11.736  19.507  0.00  0.00    +0.000 A 
ATOM     23  C   UNL     1      -0.785  12.600  18.438  0.00  0.00    +0.000 A 
ATOM     24  C   UNL     1      -0.410  13.934  18.550  0.00  0.00    +0.000 A 
ATOM     25  C   UNL     1       0.172  14.376  19.731  0.00  0.00    +0.000 A 
ATOM     26  C   UNL     1       0.330  13.468  20.764  0.00  0.00    +0.000 A 
ATOM     27  N   UNL     1      -0.014  12.162  20.681  0.00  0.00    +0.000 NA
ENDBRANCH  21  22
ENDBRANCH   7  21
TORSDOF 3
ENDMDL
MODEL 6
REMARK VINA RESULT:      -7.4      5.125      9.577
REMARK  Name = 
REMARK  3 active torsions:
REMARK  status: ('A' for Active; 'I' for Inactive)
REMARK    1  A    between atoms: C_2  and  C_3
REMARK    2  A    between atoms: N_16  and  C_17
REMARK    3  A    between atoms: C_17  and  C_18
REMARK                            x       y       z     vdW  Elec       q    Type
REMARK                         _______ _______ _______ _____ _____    ______ ____
ROOT
ATOM      1  O   UNL     1      -0.791  11.087  17.949  0.00  0.00    +0.000 OA
ATOM      2  C   UNL     1       0.002  10.854  18.853  0.00  0.00    +0.000 C 
ATOM      3  N   UNL     1       0.037  11.604  20.026  0.00  0.00    +0.000 N 
ATOM      4  C   UNL     1      -1.039  12.527  20.323  0.00  0.00    +0.000 C 
ATOM      5  C   UNL     1      -0.597  13.989  20.263  0.00  0.00    +0.000 C 
ATOM      6  O   UNL     1      -1.439  14.888  20.185  0.00  0.00    +0.000 OA
ATOM      7  N   UNL     1       0.755  14.235  20.520  0.00  0.00    +0.000 N 
ATOM      8  C   UNL     1       1.713  13.270  20.799  0.00  0.00    +0.000 C 
ATOM      9  O   UNL     1       2.856  13.542  21.177  0.00  0.00    +0.000 OA
ATOM     10  C   UNL     1       1.251  11.824  20.799  0.00  0.00    +0.000 C 
ENDROOT
BRANCH   2  11
ATOM     11  C   UNL     1       0.921   9.734  18.783  0.00  0.00    +0.000 A 
ATOM     12  C   UNL     1       1.896   9.437  17.844  0.00  0.00    +0.000 A 
ATOM     13  C   UNL     1       2.487   8.200  18.181  0.00  0.00    +0.000 A 
ATOM     14  C   UNL     1       3.459   7.397  17.561  0.00  0.00    +0.000 A 
ATOM     15  C   UNL     1       3.866   6.222  18.191  0.00  0.00    +0.000 A 
ATOM     16  C   UNL     1       3.306   5.843  19.411  0.00  0.00    +0.000 A 
ATOM     17  C   UNL     1       2.319   6.619  20.034  0.00  0.00    +0.000 A 
ATOM     18  C   UNL     1       1.928   7.798  19.391  0.00  0.00    +0.000 A 
ATOM     19  N   UNL     1       1.007   8.757  19.751  0.00  0.00    +0.000 N 
ATOM     20  H   UNL     1       0.443   8.742  20.590  0.00  0.00    +0.000 HD
ENDBRANCH   2  11
BRANCH   7  21
ATOM     21  C   UNL     1       1.195  15.620  20.571  0.00  0.00    +0.000 C 
BRANCH  21  22
ATOM     22  C   UNL     1       1.510  16.230  19.217  0.00  0.00    +0.000 A 
ATOM     23  C   UNL     1       2.690  15.844  18.580  0.00  0.00    +0.000 A 
ATOM     24  C   UNL     1       3.072  16.494  17.413  0.00  0.00    +0.000 A 
ATOM     25  C   UNL     1       2.259  17.496  16.899  0.00  0.00    +0.000 A 
ATOM     26  C   UNL     1       1.080  17.788  17.563  0.00  0.00    +0.000 A 
ATOM     27  N   UNL     1       0.686  17.181  18.707  0.00  0.00    +0.000 NA
ENDBRANCH  21  22
ENDBRANCH   7  21
TORSDOF 3
ENDMDL
MODEL 7
REMARK VINA RESULT:      -7.4      5.002     10.451
REMARK  Name = 
REMARK  3 active torsions:
REMARK  status: ('A' for Active; 'I' for Inactive)
REMARK    1  A    between atoms: C_2  and  C_3
REMARK    2  A    between atoms: N_16  and  C_17
REMARK    3  A    between atoms: C_17  and  C_18
REMARK                            x       y       z     vdW  Elec       q    Type
REMARK                         _______ _______ _______ _____ _____    ______ ____
ROOT
ATOM      1  O   UNL     1      -0.820   9.081  22.780  0.00  0.00    +0.000 OA
ATOM      2  C   UNL     1      -0.244   9.647  21.858  0.00  0.00    +0.000 C 
ATOM      3  N   UNL     1      -0.331  11.023  21.659  0.00  0.00    +0.000 N 
ATOM      4  C   UNL     1      -0.900  11.866  22.690  0.00  0.00    +0.000 C 
ATOM      5  C   UNL     1      -2.238  12.479  22.281  0.00  0.00    +0.000 C 
ATOM      6  O   UNL     1      -2.987  12.959  23.137  0.00  0.00    +0.000 OA
ATOM      7  N   UNL     1      -2.442  12.656  20.910  0.00  0.00    +0.000 N 
ATOM      8  C   UNL     1      -1.548  12.303  19.908  0.00  0.00    +0.000 C 
ATOM      9  O   UNL     1      -1.698  12.622  18.725  0.00  0.00    +0.000 OA
ATOM     10  C   UNL     1      -0.250  11.648  20.346  0.00  0.00    +0.000 C 
ENDROOT
BRANCH   2  11
ATOM     11  C   UNL     1       0.618   8.922  20.946  0.00  0.00    +0.000 A 
ATOM     12  C   UNL     1       1.207   7.675  21.076  0.00  0.00    +0.000 A 
ATOM     13  C   UNL     1       2.011   7.433  19.941  0.00  0.00    +0.000 A 
ATOM     14  C   UNL     1       2.872   6.384  19.576  0.00  0.00    +0.000 A 
ATOM     15  C   UNL     1       3.502   6.429  18.333  0.00  0.00    +0.000 A 
ATOM     16  C   UNL     1       3.291   7.505  17.472  0.00  0.00    +0.000 A 
ATOM     17  C   UNL     1       2.454   8.572  17.826  0.00  0.00    +0.000 A 
ATOM     18  C   UNL     1       1.825   8.507  19.073  0.00  0.00    +0.000 A 
ATOM     19  N   UNL     1       0.954   9.379  19.690  0.00  0.00    +0.000 N 
ATOM     20  H   UNL     1       0.624  10.251  19.299  0.00  0.00    +0.000 HD
ENDBRANCH   2  11
BRANCH   7  21
ATOM     21  C   UNL     1      -3.659  13.327  20.485  0.00  0.00    +0.000 C 
BRANCH  21  22
ATOM     22  C   UNL     1      -4.835  12.399  20.236  0.00  0.00    +0.000 A 
ATOM     23  C   UNL     1      -4.997  11.872  18.955  0.00  0.00    +0.000 A 
ATOM     24  C   UNL     1      -6.142  11.140  18.664  0.00  0.00    +0.000 A 
ATOM     25  C   UNL     1      -7.085  10.934  19.663  0.00  0.00    +0.000 A 
ATOM     26  C   UNL     1      -6.829  11.449  20.922  0.00  0.00    +0.000 A 
ATOM     27  N   UNL     1      -5.730  12.175  21.233  0.00  0.00    +0.000 NA
ENDBRANCH  21  22
ENDBRANCH   7  21
TORSDOF 3
ENDMDL
MODEL 8
REMARK VINA RESULT:      -7.4      5.640     10.916
REMARK  Name = 
REMARK  3 active torsions:
REMARK  status: ('A' for Active; 'I' for Inactive)
REMARK    1  A    between atoms: C_2  and  C_3
REMARK    2  A    between atoms: N_16  and  C_17
REMARK    3  A    between atoms: C_17  and  C_18
REMARK                            x       y       z     vdW  Elec       q    Type
REMARK                         _______ _______ _______ _____ _____    ______ ____
ROOT
ATOM      1  O   UNL     1      -0.990  10.384  22.755  0.00  0.00    +0.000 OA
ATOM      2  C   UNL     1      -0.689  10.596  21.587  0.00  0.00    +0.000 C 
ATOM      3  N   UNL     1      -1.104  11.739  20.905  0.00  0.00    +0.000 N 
ATOM      4  C   UNL     1      -1.693  12.840  21.639  0.00  0.00    +0.000 C 
ATOM      5  C   UNL     1      -3.177  13.029  21.331  0.00  0.00    +0.000 C 
ATOM      6  O   UNL     1      -3.885  13.705  22.082  0.00  0.00    +0.000 OA
ATOM      7  N   UNL     1      -3.606  12.592  20.074  0.00  0.00    +0.000 N 
ATOM      8  C   UNL     1      -2.806  11.991  19.111  0.00  0.00    +0.000 C 
ATOM      9  O   UNL     1      -3.188  11.767  17.959  0.00  0.00    +0.000 OA
ATOM     10  C   UNL     1      -1.348  11.770  19.471  0.00  0.00    +0.000 C 
ENDROOT
BRANCH   2  11
ATOM     11  C   UNL     1       0.174   9.692  20.852  0.00  0.00    +0.000 A 
ATOM     12  C   UNL     1       0.634   8.429  21.186  0.00  0.00    +0.000 A 
ATOM     13  C   UNL     1       1.501   7.978  20.167  0.00  0.00    +0.000 A 
ATOM     14  C   UNL     1       2.290   6.826  20.014  0.00  0.00    +0.000 A 
ATOM     15  C   UNL     1       3.019   6.658  18.837  0.00  0.00    +0.000 A 
ATOM     16  C   UNL     1       2.977   7.627  17.835  0.00  0.00    +0.000 A 
ATOM     17  C   UNL     1       2.215   8.795  17.979  0.00  0.00    +0.000 A 
ATOM     18  C   UNL     1       1.484   8.942  19.162  0.00  0.00    +0.000 A 
ATOM     19  N   UNL     1       0.650   9.954  19.586  0.00  0.00    +0.000 N 
ATOM     20  H   UNL     1       0.433  10.792  19.063  0.00  0.00    +0.000 HD
ENDBRANCH   2  11
BRANCH   7  21
ATOM     21  C   UNL     1      -4.989  12.845  19.702  0.00  0.00    +0.000 C 
BRANCH  21  22
ATOM     22  C   UNL     1      -5.965  11.771  20.147  0.00  0.00    +0.000 A 
ATOM     23  C   UNL     1      -6.203  10.700  19.284  0.00  0.00    +0.000 A 
ATOM     24  C   UNL     1      -7.199   9.784  19.602  0.00  0.00    +0.000 A 
ATOM     25  C   UNL     1      -7.915   9.944  20.781  0.00  0.00    +0.000 A 
ATOM     26  C   UNL     1      -7.586  11.005  21.608  0.00  0.00    +0.000 A 
ATOM     27  N   UNL     1      -6.631  11.920  21.321  0.00  0.00    +0.000 NA
ENDBRANCH  21  22
ENDBRANCH   7  21
TORSDOF 3
ENDMDL
MODEL 9
REMARK VINA RESULT:      -7.3      4.305      9.725
REMARK  Name = 
REMARK  3 active torsions:
REMARK  status: ('A' for Active; 'I' for Inactive)
REMARK    1  A    between atoms: C_2  and  C_3
REMARK    2  A    between atoms: N_16  and  C_17
REMARK    3  A    between atoms: C_17  and  C_18
REMARK                            x       y       z     vdW  Elec       q    Type
REMARK                         _______ _______ _______ _____ _____    ______ ____
ROOT
ATOM      1  O   UNL     1      -0.791   8.013  21.966  0.00  0.00    +0.000 OA
ATOM      2  C   UNL     1       0.094   8.661  21.422  0.00  0.00    +0.000 C 
ATOM      3  N   UNL     1       0.253  10.030  21.632  0.00  0.00    +0.000 N 
ATOM      4  C   UNL     1      -0.469  10.682  22.705  0.00  0.00    +0.000 C 
ATOM      5  C   UNL     1      -1.539  11.646  22.196  0.00  0.00    +0.000 C 
ATOM      6  O   UNL     1      -2.431  12.038  22.954  0.00  0.00    +0.000 OA
ATOM      7  N   UNL     1      -1.316  12.205  20.935  0.00  0.00    +0.000 N 
ATOM      8  C   UNL     1      -0.227  11.939  20.114  0.00  0.00    +0.000 C 
ATOM      9  O   UNL     1       0.012  12.573  19.083  0.00  0.00    +0.000 OA
ATOM     10  C   UNL     1       0.791  10.936  20.628  0.00  0.00    +0.000 C 
ENDROOT
BRANCH   2  11
ATOM     11  C   UNL     1       1.077   8.028  20.565  0.00  0.00    +0.000 A 
ATOM     12  C   UNL     1       1.762   6.834  20.722  0.00  0.00    +0.000 A 
ATOM     13  C   UNL     1       2.660   6.681  19.644  0.00  0.00    +0.000 A 
ATOM     14  C   UNL     1       3.631   5.716  19.330  0.00  0.00    +0.000 A 
ATOM     15  C   UNL     1       4.339   5.835  18.133  0.00  0.00    +0.000 A 
ATOM     16  C   UNL     1       4.095   6.902  17.271  0.00  0.00    +0.000 A 
ATOM     17  C   UNL     1       3.146   7.888  17.577  0.00  0.00    +0.000 A 
ATOM     18  C   UNL     1       2.441   7.749  18.777  0.00  0.00    +0.000 A 
ATOM     19  N   UNL     1       1.457   8.532  19.340  0.00  0.00    +0.000 N 
ATOM     20  H   UNL     1       1.081   9.379  18.936  0.00  0.00    +0.000 HD
ENDBRANCH   2  11
BRANCH   7  21
ATOM     21  C   UNL     1      -2.258  13.203  20.456  0.00  0.00    +0.000 C 
BRANCH  21  22
ATOM     22  C   UNL     1      -3.501  12.630  19.798  0.00  0.00    +0.000 A 
ATOM     23  C   UNL     1      -4.730  12.835  20.425  0.00  0.00    +0.000 A 
ATOM     24  C   UNL     1      -5.860  12.199  19.923  0.00  0.00    +0.000 A 
ATOM     25  C   UNL     1      -5.739  11.393  18.798  0.00  0.00    +0.000 A 
ATOM     26  C   UNL     1      -4.493  11.279  18.205  0.00  0.00    +0.000 A 
ATOM     27  N   UNL     1      -3.374  11.876  18.676  0.00  0.00    +0.000 NA
ENDBRANCH  21  22
ENDBRANCH   7  21
TORSDOF 3
ENDMDL
