MODEL 1
REMARK VINA RESULT:      -6.9      0.000      0.000
REMARK  Name = 
REMARK  11 active torsions:
REMARK  status: ('A' for Active; 'I' for Inactive)
REMARK    1  A    between atoms: C_1  and  C_2
REMARK    2  A    between atoms: C_2  and  C_3
REMARK    3  A    between atoms: C_2  and  C_4
REMARK    4  A    between atoms: C_4  and  C_5
REMARK    5  A    between atoms: C_5  and  N_6
REMARK    6  A    between atoms: C_7  and  C_9
REMARK    7  A    between atoms: C_9  and  C_10
REMARK    8  A    between atoms: C_10  and  C_11
REMARK    9  A    between atoms: C_11  and  O_12
REMARK   10  A    between atoms: O_12  and  C_13
REMARK   11  A    between atoms: N_17  and  C_18
REMARK                            x       y       z     vdW  Elec       q    Type
REMARK                         _______ _______ _______ _____ _____    ______ ____
ROOT
ATOM      1  O   UNL     1       1.480   7.016  20.955  0.00  0.00    +0.000 OA
ENDROOT
BRANCH   1   2
ATOM      2  C   UNL     1       1.332   8.252  20.356  0.00  0.00    +0.000 A 
ATOM      3  C   UNL     1       1.776   8.591  19.139  0.00  0.00    +0.000 A 
ATOM      4  C   UNL     1       1.569   9.936  18.562  0.00  0.00    +0.000 A 
ATOM      5  O   UNL     1       2.030  10.155  17.443  0.00  0.00    +0.000 OA
ATOM      6  N   UNL     1       0.862  10.854  19.319  0.00  0.00    +0.000 N 
ATOM      7  C   UNL     1       0.641  12.177  18.758  0.00  0.00    +0.000 C 
ATOM      8  C   UNL     1       0.375  10.539  20.623  0.00  0.00    +0.000 A 
ATOM      9  C   UNL     1      -0.334  11.481  21.391  0.00  0.00    +0.000 A 
ATOM     10  C   UNL     1      -0.790  11.167  22.673  0.00  0.00    +0.000 A 
ATOM     11  C   UNL     1      -0.545   9.909  23.208  0.00  0.00    +0.000 A 
ATOM     12  C   UNL     1       0.149   8.961  22.455  0.00  0.00    +0.000 A 
ATOM     13  C   UNL     1       0.611   9.258  21.160  0.00  0.00    +0.000 A 
ENDBRANCH   1   2
BRANCH   1  14
ATOM     14  C   UNL     1       2.086   5.972  20.189  0.00  0.00    +0.000 C 
BRANCH  14  15
ATOM     15  C   UNL     1       1.686   4.645  20.821  0.00  0.00    +0.000 C 
BRANCH  15  16
ATOM     16  C   UNL     1       0.994   3.727  19.821  0.00  0.00    +0.000 C 
BRANCH  16  18
ATOM     17  N   UNL     1       2.959   3.281  18.458  0.00  0.00    +0.000 N 
ATOM     18  C   UNL     1       1.674   3.765  18.468  0.00  0.00    +0.000 C 
ATOM     19  O   UNL     1       1.098   4.185  17.468  0.00  0.00    +0.000 OA
ATOM     20  H   UNL     1       3.378   2.936  19.310  0.00  0.00    +0.000 HD
BRANCH  17  21
ATOM     21  C   UNL     1       3.757   3.274  17.246  0.00  0.00    +0.000 C 
BRANCH  21  22
ATOM     22  C   UNL     1       5.109   3.978  17.413  0.00  0.00    +0.000 C 
BRANCH  22  24
ATOM     23  C   UNL     1       6.378   5.440  19.062  0.00  0.00    +0.000 C 
ATOM     24  C   UNL     1       5.064   5.234  18.308  0.00  0.00    +0.000 C 
ATOM     25  C   UNL     1       4.753   6.486  17.482  0.00  0.00    +0.000 C 
ENDBRANCH  22  24
ENDBRANCH  21  22
ENDBRANCH  17  21
ENDBRANCH  16  18
ENDBRANCH  15  16
ENDBRANCH  14  15
ENDBRANCH   1  14
TORSDOF 8
ENDMDL
MODEL 2
REMARK VINA RESULT:      -6.9      2.378      7.844
REMARK  Name = 
REMARK  11 active torsions:
REMARK  status: ('A' for Active; 'I' for Inactive)
REMARK    1  A    between atoms: C_1  and  C_2
REMARK    2  A    between atoms: C_2  and  C_3
REMARK    3  A    between atoms: C_2  and  C_4
REMARK    4  A    between atoms: C_4  and  C_5
REMARK    5  A    between atoms: C_5  and  N_6
REMARK    6  A    between atoms: C_7  and  C_9
REMARK    7  A    between atoms: C_9  and  C_10
REMARK    8  A    between atoms: C_10  and  C_11
REMARK    9  A    between atoms: C_11  and  O_12
REMARK   10  A    between atoms: O_12  and  C_13
REMARK   11  A    between atoms: N_17  and  C_18
REMARK                            x       y       z     vdW  Elec       q    Type
REMARK                         _______ _______ _______ _____ _____    ______ ____
ROOT
ATOM      1  O   UNL     1       2.092   6.997  19.593  0.00  0.00    +0.000 OA
ENDROOT
BRANCH   1   2
ATOM      2  C   UNL     1       2.388   5.688  19.264  0.00  0.00    +0.000 A 
ATOM      3  C   UNL     1       1.861   4.599  19.839  0.00  0.00    +0.000 A 
ATOM      4  C   UNL     1       2.221   3.227  19.423  0.00  0.00    +0.000 A 
ATOM      5  O   UNL     1       1.697   2.291  20.023  0.00  0.00    +0.000 OA
ATOM      6  N   UNL     1       3.121   3.091  18.379  0.00  0.00    +0.000 N 
ATOM      7  C   UNL     1       3.475   1.747  17.952  0.00  0.00    +0.000 C 
ATOM      8  C   UNL     1       3.710   4.223  17.741  0.00  0.00    +0.000 A 
ATOM      9  C   UNL     1       4.631   4.077  16.687  0.00  0.00    +0.000 A 
ATOM     10  C   UNL     1       5.216   5.192  16.083  0.00  0.00    +0.000 A 
ATOM     11  C   UNL     1       4.891   6.469  16.521  0.00  0.00    +0.000 A 
ATOM     12  C   UNL     1       3.972   6.631  17.560  0.00  0.00    +0.000 A 
ATOM     13  C   UNL     1       3.370   5.519  18.176  0.00  0.00    +0.000 A 
ENDBRANCH   1   2
BRANCH   1  14
ATOM     14  C   UNL     1       1.508   7.248  20.873  0.00  0.00    +0.000 C 
BRANCH  14  15
ATOM     15  C   UNL     1       1.110   8.718  20.918  0.00  0.00    +0.000 C 
BRANCH  15  16
ATOM     16  C   UNL     1       1.146   9.357  19.535  0.00  0.00    +0.000 C 
BRANCH  16  18
ATOM     17  N   UNL     1      -0.174  10.887  18.180  0.00  0.00    +0.000 N 
ATOM     18  C   UNL     1       0.222  10.554  19.452  0.00  0.00    +0.000 C 
ATOM     19  O   UNL     1      -0.146  11.156  20.458  0.00  0.00    +0.000 OA
ATOM     20  H   UNL     1       0.151  10.346  17.390  0.00  0.00    +0.000 HD
BRANCH  17  21
ATOM     21  C   UNL     1      -1.038  12.025  17.927  0.00  0.00    +0.000 C 
BRANCH  21  22
ATOM     22  C   UNL     1      -2.360  11.638  17.254  0.00  0.00    +0.000 C 
BRANCH  22  24
ATOM     23  C   UNL     1      -3.506   9.419  17.734  0.00  0.00    +0.000 C 
ATOM     24  C   UNL     1      -2.468  10.145  16.878  0.00  0.00    +0.000 C 
ATOM     25  C   UNL     1      -2.823   9.976  15.397  0.00  0.00    +0.000 C 
ENDBRANCH  22  24
ENDBRANCH  21  22
ENDBRANCH  17  21
ENDBRANCH  16  18
ENDBRANCH  15  16
ENDBRANCH  14  15
ENDBRANCH   1  14
TORSDOF 8
ENDMDL
MODEL 3
REMARK VINA RESULT:      -6.9      3.653      6.882
REMARK  Name = 
REMARK  11 active torsions:
REMARK  status: ('A' for Active; 'I' for Inactive)
REMARK    1  A    between atoms: C_1  and  C_2
REMARK    2  A    between atoms: C_2  and  C_3
REMARK    3  A    between atoms: C_2  and  C_4
REMARK    4  A    between atoms: C_4  and  C_5
REMARK    5  A    between atoms: C_5  and  N_6
REMARK    6  A    between atoms: C_7  and  C_9
REMARK    7  A    between atoms: C_9  and  C_10
REMARK    8  A    between atoms: C_10  and  C_11
REMARK    9  A    between atoms: C_11  and  O_12
REMARK   10  A    between atoms: O_12  and  C_13
REMARK   11  A    between atoms: N_17  and  C_18
REMARK                            x       y       z     vdW  Elec       q    Type
REMARK                         _______ _______ _______ _____ _____    ______ ____
ROOT
ATOM      1  O   UNL     1       5.046   5.881  16.895  0.00  0.00    +0.000 OA
ENDROOT
BRANCH   1   2
ATOM      2  C   UNL     1       4.059   5.788  17.857  0.00  0.00    +0.000 A 
ATOM      3  C   UNL     1       3.491   6.818  18.498  0.00  0.00    +0.000 A 
ATOM      4  C   UNL     1       2.430   6.638  19.510  0.00  0.00    +0.000 A 
ATOM      5  O   UNL     1       1.982   7.645  20.056  0.00  0.00    +0.000 OA
ATOM      6  N   UNL     1       2.006   5.345  19.770  0.00  0.00    +0.000 N 
ATOM      7  C   UNL     1       0.954   5.155  20.755  0.00  0.00    +0.000 C 
ATOM      8  C   UNL     1       2.587   4.217  19.115  0.00  0.00    +0.000 A 
ATOM      9  C   UNL     1       2.158   2.906  19.391  0.00  0.00    +0.000 A 
ATOM     10  C   UNL     1       2.746   1.809  18.758  0.00  0.00    +0.000 A 
ATOM     11  C   UNL     1       3.771   2.004  17.841  0.00  0.00    +0.000 A 
ATOM     12  C   UNL     1       4.201   3.300  17.550  0.00  0.00    +0.000 A 
ATOM     13  C   UNL     1       3.616   4.416  18.174  0.00  0.00    +0.000 A 
ENDBRANCH   1   2
BRANCH   1  14
ATOM     14  C   UNL     1       6.049   6.886  17.063  0.00  0.00    +0.000 C 
BRANCH  14  15
ATOM     15  C   UNL     1       7.388   6.178  17.226  0.00  0.00    +0.000 C 
BRANCH  15  16
ATOM     16  C   UNL     1       7.382   4.798  16.580  0.00  0.00    +0.000 C 
BRANCH  16  18
ATOM     17  N   UNL     1       5.941   4.265  14.694  0.00  0.00    +0.000 N 
ATOM     18  C   UNL     1       7.103   4.880  15.094  0.00  0.00    +0.000 C 
ATOM     19  O   UNL     1       7.859   5.469  14.327  0.00  0.00    +0.000 OA
ATOM     20  H   UNL     1       5.351   3.806  15.372  0.00  0.00    +0.000 HD
BRANCH  17  21
ATOM     21  C   UNL     1       5.544   4.231  13.298  0.00  0.00    +0.000 C 
BRANCH  21  22
ATOM     22  C   UNL     1       6.328   3.201  12.476  0.00  0.00    +0.000 C 
BRANCH  22  24
ATOM     23  C   UNL     1       4.298   2.839  10.988  0.00  0.00    +0.000 C 
ATOM     24  C   UNL     1       5.445   2.168  11.744  0.00  0.00    +0.000 C 
ATOM     25  C   UNL     1       6.275   1.331  10.766  0.00  0.00    +0.000 C 
ENDBRANCH  22  24
ENDBRANCH  21  22
ENDBRANCH  17  21
ENDBRANCH  16  18
ENDBRANCH  15  16
ENDBRANCH  14  15
ENDBRANCH   1  14
TORSDOF 8
ENDMDL
MODEL 4
REMARK VINA RESULT:      -6.8      3.495      6.197
REMARK  Name = 
REMARK  11 active torsions:
REMARK  status: ('A' for Active; 'I' for Inactive)
REMARK    1  A    between atoms: C_1  and  C_2
REMARK    2  A    between atoms: C_2  and  C_3
REMARK    3  A    between atoms: C_2  and  C_4
REMARK    4  A    between atoms: C_4  and  C_5
REMARK    5  A    between atoms: C_5  and  N_6
REMARK    6  A    between atoms: C_7  and  C_9
REMARK    7  A    between atoms: C_9  and  C_10
REMARK    8  A    between atoms: C_10  and  C_11
REMARK    9  A    between atoms: C_11  and  O_12
REMARK   10  A    between atoms: O_12  and  C_13
REMARK   11  A    between atoms: N_17  and  C_18
REMARK                            x       y       z     vdW  Elec       q    Type
REMARK                         _______ _______ _______ _____ _____    ______ ____
ROOT
ATOM      1  O   UNL     1       4.847   3.923  17.008  0.00  0.00    +0.000 OA
ENDROOT
BRANCH   1   2
ATOM      2  C   UNL     1       4.146   4.880  17.716  0.00  0.00    +0.000 A 
ATOM      3  C   UNL     1       4.004   6.165  17.365  0.00  0.00    +0.000 A 
ATOM      4  C   UNL     1       3.227   7.129  18.172  0.00  0.00    +0.000 A 
ATOM      5  O   UNL     1       3.168   8.291  17.776  0.00  0.00    +0.000 OA
ATOM      6  N   UNL     1       2.612   6.653  19.318  0.00  0.00    +0.000 N 
ATOM      7  C   UNL     1       1.834   7.589  20.115  0.00  0.00    +0.000 C 
ATOM      8  C   UNL     1       2.741   5.294  19.733  0.00  0.00    +0.000 A 
ATOM      9  C   UNL     1       2.121   4.820  20.904  0.00  0.00    +0.000 A 
ATOM     10  C   UNL     1       2.269   3.492  21.310  0.00  0.00    +0.000 A 
ATOM     11  C   UNL     1       3.039   2.618  20.554  0.00  0.00    +0.000 A 
ATOM     12  C   UNL     1       3.654   3.071  19.386  0.00  0.00    +0.000 A 
ATOM     13  C   UNL     1       3.510   4.403  18.959  0.00  0.00    +0.000 A 
ENDBRANCH   1   2
BRANCH   1  14
ATOM     14  C   UNL     1       5.426   4.308  15.759  0.00  0.00    +0.000 C 
BRANCH  14  15
ATOM     15  C   UNL     1       6.694   5.096  16.062  0.00  0.00    +0.000 C 
BRANCH  15  16
ATOM     16  C   UNL     1       7.396   4.581  17.313  0.00  0.00    +0.000 C 
BRANCH  16  18
ATOM     17  N   UNL     1       8.052   6.883  17.751  0.00  0.00    +0.000 N 
ATOM     18  C   UNL     1       7.644   5.695  18.308  0.00  0.00    +0.000 C 
ATOM     19  O   UNL     1       7.473   5.533  19.513  0.00  0.00    +0.000 OA
ATOM     20  H   UNL     1       8.164   6.961  16.750  0.00  0.00    +0.000 HD
BRANCH  17  21
ATOM     21  C   UNL     1       8.358   8.040  18.572  0.00  0.00    +0.000 C 
BRANCH  21  22
ATOM     22  C   UNL     1       8.185   9.368  17.825  0.00  0.00    +0.000 C 
BRANCH  22  24
ATOM     23  C   UNL     1       9.268  10.239  19.954  0.00  0.00    +0.000 C 
ATOM     24  C   UNL     1       8.820  10.583  18.534  0.00  0.00    +0.000 C 
ATOM     25  C   UNL     1      10.016  11.119  17.740  0.00  0.00    +0.000 C 
ENDBRANCH  22  24
ENDBRANCH  21  22
ENDBRANCH  17  21
ENDBRANCH  16  18
ENDBRANCH  15  16
ENDBRANCH  14  15
ENDBRANCH   1  14
TORSDOF 8
ENDMDL
MODEL 5
REMARK VINA RESULT:      -6.8      3.639      6.631
REMARK  Name = 
REMARK  11 active torsions:
REMARK  status: ('A' for Active; 'I' for Inactive)
REMARK    1  A    between atoms: C_1  and  C_2
REMARK    2  A    between atoms: C_2  and  C_3
REMARK    3  A    between atoms: C_2  and  C_4
REMARK    4  A    between atoms: C_4  and  C_5
REMARK    5  A    between atoms: C_5  and  N_6
REMARK    6  A    between atoms: C_7  and  C_9
REMARK    7  A    between atoms: C_9  and  C_10
REMARK    8  A    between atoms: C_10  and  C_11
REMARK    9  A    between atoms: C_11  and  O_12
REMARK   10  A    between atoms: O_12  and  C_13
REMARK   11  A    between atoms: N_17  and  C_18
REMARK                            x       y       z     vdW  Elec       q    Type
REMARK                         _______ _______ _______ _____ _____    ______ ____
ROOT
ATOM      1  O   UNL     1       4.795   5.507  16.974  0.00  0.00    +0.000 OA
ENDROOT
BRANCH   1   2
ATOM      2  C   UNL     1       4.079   4.696  17.833  0.00  0.00    +0.000 A 
ATOM      3  C   UNL     1       4.138   3.359  17.878  0.00  0.00    +0.000 A 
ATOM      4  C   UNL     1       3.346   2.559  18.836  0.00  0.00    +0.000 A 
ATOM      5  O   UNL     1       3.455   1.335  18.787  0.00  0.00    +0.000 OA
ATOM      6  N   UNL     1       2.540   3.245  19.728  0.00  0.00    +0.000 N 
ATOM      7  C   UNL     1       1.764   2.471  20.684  0.00  0.00    +0.000 C 
ATOM      8  C   UNL     1       2.443   4.669  19.714  0.00  0.00    +0.000 A 
ATOM      9  C   UNL     1       1.614   5.359  20.617  0.00  0.00    +0.000 A 
ATOM     10  C   UNL     1       1.512   6.751  20.581  0.00  0.00    +0.000 A 
ATOM     11  C   UNL     1       2.236   7.475  19.643  0.00  0.00    +0.000 A 
ATOM     12  C   UNL     1       3.069   6.806  18.745  0.00  0.00    +0.000 A 
ATOM     13  C   UNL     1       3.188   5.405  18.771  0.00  0.00    +0.000 A 
ENDBRANCH   1   2
BRANCH   1  14
ATOM     14  C   UNL     1       5.692   6.461  17.549  0.00  0.00    +0.000 C 
BRANCH  14  15
ATOM     15  C   UNL     1       7.073   5.822  17.600  0.00  0.00    +0.000 C 
BRANCH  15  16
ATOM     16  C   UNL     1       7.142   4.552  16.759  0.00  0.00    +0.000 C 
BRANCH  16  18
ATOM     17  N   UNL     1       5.960   4.285  14.650  0.00  0.00    +0.000 N 
ATOM     18  C   UNL     1       7.038   4.859  15.280  0.00  0.00    +0.000 C 
ATOM     19  O   UNL     1       7.854   5.578  14.711  0.00  0.00    +0.000 OA
ATOM     20  H   UNL     1       5.313   3.712  15.173  0.00  0.00    +0.000 HD
BRANCH  17  21
ATOM     21  C   UNL     1       5.733   4.459  13.227  0.00  0.00    +0.000 C 
BRANCH  21  22
ATOM     22  C   UNL     1       6.403   3.375  12.375  0.00  0.00    +0.000 C 
BRANCH  22  24
ATOM     23  C   UNL     1       4.264   2.942  11.070  0.00  0.00    +0.000 C 
ATOM     24  C   UNL     1       5.433   2.309  11.825  0.00  0.00    +0.000 C 
ATOM     25  C   UNL     1       6.161   1.327  10.901  0.00  0.00    +0.000 C 
ENDBRANCH  22  24
ENDBRANCH  21  22
ENDBRANCH  17  21
ENDBRANCH  16  18
ENDBRANCH  15  16
ENDBRANCH  14  15
ENDBRANCH   1  14
TORSDOF 8
ENDMDL
MODEL 6
REMARK VINA RESULT:      -6.8      4.303      7.226
REMARK  Name = 
REMARK  11 active torsions:
REMARK  status: ('A' for Active; 'I' for Inactive)
REMARK    1  A    between atoms: C_1  and  C_2
REMARK    2  A    between atoms: C_2  and  C_3
REMARK    3  A    between atoms: C_2  and  C_4
REMARK    4  A    between atoms: C_4  and  C_5
REMARK    5  A    between atoms: C_5  and  N_6
REMARK    6  A    between atoms: C_7  and  C_9
REMARK    7  A    between atoms: C_9  and  C_10
REMARK    8  A    between atoms: C_10  and  C_11
REMARK    9  A    between atoms: C_11  and  O_12
REMARK   10  A    between atoms: O_12  and  C_13
REMARK   11  A    between atoms: N_17  and  C_18
REMARK                            x       y       z     vdW  Elec       q    Type
REMARK                         _______ _______ _______ _____ _____    ______ ____
ROOT
ATOM      1  O   UNL     1       4.470   5.484  16.416  0.00  0.00    +0.000 OA
ENDROOT
BRANCH   1   2
ATOM      2  C   UNL     1       3.897   4.749  17.436  0.00  0.00    +0.000 A 
ATOM      3  C   UNL     1       3.989   3.422  17.591  0.00  0.00    +0.000 A 
ATOM      4  C   UNL     1       3.355   2.706  18.718  0.00  0.00    +0.000 A 
ATOM      5  O   UNL     1       3.482   1.484  18.764  0.00  0.00    +0.000 OA
ATOM      6  N   UNL     1       2.667   3.465  19.650  0.00  0.00    +0.000 N 
ATOM      7  C   UNL     1       2.049   2.775  20.771  0.00  0.00    +0.000 C 
ATOM      8  C   UNL     1       2.540   4.880  19.523  0.00  0.00    +0.000 A 
ATOM      9  C   UNL     1       1.831   5.643  20.469  0.00  0.00    +0.000 A 
ATOM     10  C   UNL     1       1.696   7.026  20.323  0.00  0.00    +0.000 A 
ATOM     11  C   UNL     1       2.267   7.667  19.232  0.00  0.00    +0.000 A 
ATOM     12  C   UNL     1       2.981   6.925  18.289  0.00  0.00    +0.000 A 
ATOM     13  C   UNL     1       3.131   5.533  18.423  0.00  0.00    +0.000 A 
ENDBRANCH   1   2
BRANCH   1  14
ATOM     14  C   UNL     1       5.894   5.464  16.297  0.00  0.00    +0.000 C 
BRANCH  14  15
ATOM     15  C   UNL     1       6.465   6.242  17.476  0.00  0.00    +0.000 C 
BRANCH  15  16
ATOM     16  C   UNL     1       7.156   7.524  17.028  0.00  0.00    +0.000 C 
BRANCH  16  18
ATOM     17  N   UNL     1       8.316   9.406  18.044  0.00  0.00    +0.000 N 
ATOM     18  C   UNL     1       8.095   8.051  18.092  0.00  0.00    +0.000 C 
ATOM     19  O   UNL     1       8.597   7.310  18.934  0.00  0.00    +0.000 OA
ATOM     20  H   UNL     1       7.865   9.968  17.336  0.00  0.00    +0.000 HD
BRANCH  17  21
ATOM     21  C   UNL     1       9.213  10.062  18.978  0.00  0.00    +0.000 C 
BRANCH  21  22
ATOM     22  C   UNL     1      10.048  11.173  18.329  0.00  0.00    +0.000 C 
BRANCH  22  24
ATOM     23  C   UNL     1       8.476  13.088  17.758  0.00  0.00    +0.000 C 
ATOM     24  C   UNL     1       9.590  12.602  18.686  0.00  0.00    +0.000 C 
ATOM     25  C   UNL     1       9.110  12.679  20.139  0.00  0.00    +0.000 C 
ENDBRANCH  22  24
ENDBRANCH  21  22
ENDBRANCH  17  21
ENDBRANCH  16  18
ENDBRANCH  15  16
ENDBRANCH  14  15
ENDBRANCH   1  14
TORSDOF 8
ENDMDL
MODEL 7
REMARK VINA RESULT:      -6.8      2.931      8.053
REMARK  Name = 
REMARK  11 active torsions:
REMARK  status: ('A' for Active; 'I' for Inactive)
REMARK    1  A    between atoms: C_1  and  C_2
REMARK    2  A    between atoms: C_2  and  C_3
REMARK    3  A    between atoms: C_2  and  C_4
REMARK    4  A    between atoms: C_4  and  C_5
REMARK    5  A    between atoms: C_5  and  N_6
REMARK    6  A    between atoms: C_7  and  C_9
REMARK    7  A    between atoms: C_9  and  C_10
REMARK    8  A    between atoms: C_10  and  C_11
REMARK    9  A    between atoms: C_11  and  O_12
REMARK   10  A    between atoms: O_12  and  C_13
REMARK   11  A    between atoms: N_17  and  C_18
REMARK                            x       y       z     vdW  Elec       q    Type
REMARK                         _______ _______ _______ _____ _____    ______ ____
ROOT
ATOM      1  O   UNL     1       1.948   7.264  18.061  0.00  0.00    +0.000 OA
ENDROOT
BRANCH   1   2
ATOM      2  C   UNL     1       3.111   6.608  17.706  0.00  0.00    +0.000 A 
ATOM      3  C   UNL     1       4.261   7.193  17.345  0.00  0.00    +0.000 A 
ATOM      4  C   UNL     1       5.469   6.420  16.988  0.00  0.00    +0.000 A 
ATOM      5  O   UNL     1       6.472   7.048  16.653  0.00  0.00    +0.000 OA
ATOM      6  N   UNL     1       5.390   5.040  17.063  0.00  0.00    +0.000 N 
ATOM      7  C   UNL     1       6.576   4.268  16.726  0.00  0.00    +0.000 C 
ATOM      8  C   UNL     1       4.185   4.374  17.438  0.00  0.00    +0.000 A 
ATOM      9  C   UNL     1       4.110   2.970  17.502  0.00  0.00    +0.000 A 
ATOM     10  C   UNL     1       2.919   2.329  17.852  0.00  0.00    +0.000 A 
ATOM     11  C   UNL     1       1.787   3.079  18.143  0.00  0.00    +0.000 A 
ATOM     12  C   UNL     1       1.848   4.472  18.092  0.00  0.00    +0.000 A 
ATOM     13  C   UNL     1       3.040   5.135  17.747  0.00  0.00    +0.000 A 
ENDBRANCH   1   2
BRANCH   1  14
ATOM     14  C   UNL     1       2.066   8.455  18.843  0.00  0.00    +0.000 C 
BRANCH  14  15
ATOM     15  C   UNL     1       1.814   9.639  17.920  0.00  0.00    +0.000 C 
BRANCH  15  16
ATOM     16  C   UNL     1       1.532  10.917  18.701  0.00  0.00    +0.000 C 
BRANCH  16  18
ATOM     17  N   UNL     1      -0.778  11.270  18.022  0.00  0.00    +0.000 N 
ATOM     18  C   UNL     1       0.069  11.028  19.077  0.00  0.00    +0.000 C 
ATOM     19  O   UNL     1      -0.311  10.893  20.236  0.00  0.00    +0.000 OA
ATOM     20  H   UNL     1      -0.409  11.359  17.086  0.00  0.00    +0.000 HD
BRANCH  17  21
ATOM     21  C   UNL     1      -2.207  11.429  18.218  0.00  0.00    +0.000 C 
BRANCH  21  22
ATOM     22  C   UNL     1      -3.019  10.230  17.716  0.00  0.00    +0.000 C 
BRANCH  22  24
ATOM     23  C   UNL     1      -4.862  11.765  16.870  0.00  0.00    +0.000 C 
ATOM     24  C   UNL     1      -3.981  10.556  16.554  0.00  0.00    +0.000 C 
ATOM     25  C   UNL     1      -3.207  10.819  15.258  0.00  0.00    +0.000 C 
ENDBRANCH  22  24
ENDBRANCH  21  22
ENDBRANCH  17  21
ENDBRANCH  16  18
ENDBRANCH  15  16
ENDBRANCH  14  15
ENDBRANCH   1  14
TORSDOF 8
ENDMDL
MODEL 8
REMARK VINA RESULT:      -6.8      2.556      7.720
REMARK  Name = 
REMARK  11 active torsions:
REMARK  status: ('A' for Active; 'I' for Inactive)
REMARK    1  A    between atoms: C_1  and  C_2
REMARK    2  A    between atoms: C_2  and  C_3
REMARK    3  A    between atoms: C_2  and  C_4
REMARK    4  A    between atoms: C_4  and  C_5
REMARK    5  A    between atoms: C_5  and  N_6
REMARK    6  A    between atoms: C_7  and  C_9
REMARK    7  A    between atoms: C_9  and  C_10
REMARK    8  A    between atoms: C_10  and  C_11
REMARK    9  A    between atoms: C_11  and  O_12
REMARK   10  A    between atoms: O_12  and  C_13
REMARK   11  A    between atoms: N_17  and  C_18
REMARK                            x       y       z     vdW  Elec       q    Type
REMARK                         _______ _______ _______ _____ _____    ______ ____
ROOT
ATOM      1  O   UNL     1       1.666   7.377  19.989  0.00  0.00    +0.000 OA
ENDROOT
BRANCH   1   2
ATOM      2  C   UNL     1       2.218   6.111  20.029  0.00  0.00    +0.000 A 
ATOM      3  C   UNL     1       1.945   5.166  20.939  0.00  0.00    +0.000 A 
ATOM      4  C   UNL     1       2.570   3.828  20.909  0.00  0.00    +0.000 A 
ATOM      5  O   UNL     1       2.268   3.034  21.798  0.00  0.00    +0.000 OA
ATOM      6  N   UNL     1       3.450   3.556  19.874  0.00  0.00    +0.000 N 
ATOM      7  C   UNL     1       4.063   2.239  19.826  0.00  0.00    +0.000 C 
ATOM      8  C   UNL     1       3.774   4.534  18.886  0.00  0.00    +0.000 A 
ATOM      9  C   UNL     1       4.677   4.254  17.843  0.00  0.00    +0.000 A 
ATOM     10  C   UNL     1       5.001   5.225  16.893  0.00  0.00    +0.000 A 
ATOM     11  C   UNL     1       4.430   6.488  16.969  0.00  0.00    +0.000 A 
ATOM     12  C   UNL     1       3.527   6.778  17.993  0.00  0.00    +0.000 A 
ATOM     13  C   UNL     1       3.184   5.811  18.955  0.00  0.00    +0.000 A 
ENDBRANCH   1   2
BRANCH   1  14
ATOM     14  C   UNL     1       0.841   7.780  21.084  0.00  0.00    +0.000 C 
BRANCH  14  15
ATOM     15  C   UNL     1       1.244   9.197  21.468  0.00  0.00    +0.000 C 
BRANCH  15  16
ATOM     16  C   UNL     1       0.103  10.187  21.265  0.00  0.00    +0.000 C 
BRANCH  16  18
ATOM     17  N   UNL     1      -1.279  10.793  19.356  0.00  0.00    +0.000 N 
ATOM     18  C   UNL     1       0.004  10.632  19.821  0.00  0.00    +0.000 C 
ATOM     19  O   UNL     1       1.004  10.842  19.140  0.00  0.00    +0.000 OA
ATOM     20  H   UNL     1      -2.065  10.617  19.967  0.00  0.00    +0.000 HD
BRANCH  17  21
ATOM     21  C   UNL     1      -1.545  11.189  17.986  0.00  0.00    +0.000 C 
BRANCH  21  22
ATOM     22  C   UNL     1      -1.843  10.000  17.065  0.00  0.00    +0.000 C 
BRANCH  22  24
ATOM     23  C   UNL     1      -4.005  11.308  16.782  0.00  0.00    +0.000 C 
ATOM     24  C   UNL     1      -3.214  10.070  16.360  0.00  0.00    +0.000 C 
ATOM     25  C   UNL     1      -3.050  10.067  14.837  0.00  0.00    +0.000 C 
ENDBRANCH  22  24
ENDBRANCH  21  22
ENDBRANCH  17  21
ENDBRANCH  16  18
ENDBRANCH  15  16
ENDBRANCH  14  15
ENDBRANCH   1  14
TORSDOF 8
ENDMDL
MODEL 9
REMARK VINA RESULT:      -6.7      2.824      8.078
REMARK  Name = 
REMARK  11 active torsions:
REMARK  status: ('A' for Active; 'I' for Inactive)
REMARK    1  A    between atoms: C_1  and  C_2
REMARK    2  A    between atoms: C_2  and  C_3
REMARK    3  A    between atoms: C_2  and  C_4
REMARK    4  A    between atoms: C_4  and  C_5
REMARK    5  A    between atoms: C_5  and  N_6
REMARK    6  A    between atoms: C_7  and  C_9
REMARK    7  A    between atoms: C_9  and  C_10
REMARK    8  A    between atoms: C_10  and  C_11
REMARK    9  A    between atoms: C_11  and  O_12
REMARK   10  A    between atoms: O_12  and  C_13
REMARK   11  A    between atoms: N_17  and  C_18
REMARK                            x       y       z     vdW  Elec       q    Type
REMARK                         _______ _______ _______ _____ _____    ______ ____
ROOT
ATOM      1  O   UNL     1       2.485   7.489  18.359  0.00  0.00    +0.000 OA
ENDROOT
BRANCH   1   2
ATOM      2  C   UNL     1       3.342   6.609  17.727  0.00  0.00    +0.000 A 
ATOM      3  C   UNL     1       4.456   6.942  17.062  0.00  0.00    +0.000 A 
ATOM      4  C   UNL     1       5.330   5.939  16.419  0.00  0.00    +0.000 A 
ATOM      5  O   UNL     1       6.322   6.345  15.817  0.00  0.00    +0.000 OA
ATOM      6  N   UNL     1       4.974   4.606  16.546  0.00  0.00    +0.000 N 
ATOM      7  C   UNL     1       5.831   3.607  15.928  0.00  0.00    +0.000 C 
ATOM      8  C   UNL     1       3.794   4.206  17.241  0.00  0.00    +0.000 A 
ATOM      9  C   UNL     1       3.433   2.850  17.357  0.00  0.00    +0.000 A 
ATOM     10  C   UNL     1       2.266   2.471  18.023  0.00  0.00    +0.000 A 
ATOM     11  C   UNL     1       1.441   3.438  18.583  0.00  0.00    +0.000 A 
ATOM     12  C   UNL     1       1.789   4.786  18.483  0.00  0.00    +0.000 A 
ATOM     13  C   UNL     1       2.964   5.185  17.821  0.00  0.00    +0.000 A 
ENDBRANCH   1   2
BRANCH   1  14
ATOM     14  C   UNL     1       2.441   8.836  17.883  0.00  0.00    +0.000 C 
BRANCH  14  15
ATOM     15  C   UNL     1       1.013   9.337  18.049  0.00  0.00    +0.000 C 
BRANCH  15  16
ATOM     16  C   UNL     1       0.967  10.714  18.702  0.00  0.00    +0.000 C 
BRANCH  16  18
ATOM     17  N   UNL     1      -1.141  11.898  18.973  0.00  0.00    +0.000 N 
ATOM     18  C   UNL     1      -0.318  10.920  19.476  0.00  0.00    +0.000 C 
ATOM     19  O   UNL     1      -0.591  10.244  20.464  0.00  0.00    +0.000 OA
ATOM     20  H   UNL     1      -0.869  12.414  18.148  0.00  0.00    +0.000 HD
BRANCH  17  21
ATOM     21  C   UNL     1      -2.397  12.237  19.616  0.00  0.00    +0.000 C 
BRANCH  21  22
ATOM     22  C   UNL     1      -3.623  11.787  18.812  0.00  0.00    +0.000 C 
BRANCH  22  24
ATOM     23  C   UNL     1      -3.254   9.557  17.646  0.00  0.00    +0.000 C 
ATOM     24  C   UNL     1      -3.286  11.077  17.484  0.00  0.00    +0.000 C 
ATOM     25  C   UNL     1      -4.293  11.449  16.391  0.00  0.00    +0.000 C 
ENDBRANCH  22  24
ENDBRANCH  21  22
ENDBRANCH  17  21
ENDBRANCH  16  18
ENDBRANCH  15  16
ENDBRANCH  14  15
ENDBRANCH   1  14
TORSDOF 8
ENDMDL
