MODEL 1
REMARK VINA RESULT:      -8.3      0.000      0.000
REMARK  Name = 
REMARK  4 active torsions:
REMARK  status: ('A' for Active; 'I' for Inactive)
REMARK    1  A    between atoms: C_1  and  C_2
REMARK    2  A    between atoms: C_2  and  C_3
REMARK    3  A    between atoms: C_5  and  N_6
REMARK    4  A    between atoms: C_12  and  C_13
REMARK                            x       y       z     vdW  Elec       q    Type
REMARK                         _______ _______ _______ _____ _____    ______ ____
ROOT
ATOM      1  N   UNL     1       5.695   4.557  14.389  0.00  0.00    +0.000 N 
ATOM      2  C   UNL     1       6.870   5.403  14.646  0.00  0.00    +0.000 C 
ATOM      3  C   UNL     1       7.700   4.882  15.831  0.00  0.00    +0.000 C 
ATOM      4  C   UNL     1       6.765   4.553  16.921  0.00  0.00    +0.000 A 
ATOM      5  O   UNL     1       7.201   4.453  18.183  0.00  0.00    +0.000 OA
ATOM      6  N   UNL     1       6.136   4.094  18.974  0.00  0.00    +0.000 NA
ATOM      7  C   UNL     1       5.050   4.010  18.186  0.00  0.00    +0.000 A 
ATOM      8  C   UNL     1       5.419   4.295  16.835  0.00  0.00    +0.000 A 
ATOM      9  C   UNL     1       4.733   4.380  15.506  0.00  0.00    +0.000 C 
ENDROOT
BRANCH   7  10
ATOM     10  C   UNL     1       3.744   3.647  18.759  0.00  0.00    +0.000 A 
ATOM     11  C   UNL     1       3.322   2.314  18.683  0.00  0.00    +0.000 A 
ATOM     12  C   UNL     1       2.097   1.912  19.205  0.00  0.00    +0.000 A 
ATOM     13  C   UNL     1       1.279   2.844  19.837  0.00  0.00    +0.000 A 
ATOM     14  C   UNL     1       1.665   4.186  19.936  0.00  0.00    +0.000 A 
ATOM     15  C   UNL     1       0.815   5.114  20.562  0.00  0.00    +0.000 A 
ATOM     16  C   UNL     1       1.152   6.466  20.643  0.00  0.00    +0.000 A 
ATOM     17  C   UNL     1       2.333   6.912  20.073  0.00  0.00    +0.000 A 
ATOM     18  C   UNL     1       3.179   6.000  19.436  0.00  0.00    +0.000 A 
ATOM     19  C   UNL     1       2.897   4.620  19.378  0.00  0.00    +0.000 A 
ENDBRANCH   7  10
BRANCH   1  22
ATOM     20  C   UNL     1       4.361   3.066  11.359  0.00  0.00    +0.000 A 
ATOM     21  C   UNL     1       4.465   3.880  12.459  0.00  0.00    +0.000 A 
ATOM     22  C   UNL     1       5.617   3.831  13.223  0.00  0.00    +0.000 A 
ATOM     23  N   UNL     1       6.651   3.054  12.840  0.00  0.00    +0.000 NA
ATOM     24  C   UNL     1       6.452   2.274  11.771  0.00  0.00    +0.000 A 
ATOM     25  N   UNL     1       5.352   2.224  11.003  0.00  0.00    +0.000 NA
BRANCH  20  27
ATOM     26  C   UNL     1       3.007   4.217   9.587  0.00  0.00    +0.000 C 
ATOM     27  C   UNL     1       3.087   3.043  10.553  0.00  0.00    +0.000 C 
ENDBRANCH  20  27
ENDBRANCH   1  22
TORSDOF 3
ENDMDL
MODEL 2
REMARK VINA RESULT:      -8.2      2.598      4.582
REMARK  Name = 
REMARK  4 active torsions:
REMARK  status: ('A' for Active; 'I' for Inactive)
REMARK    1  A    between atoms: C_1  and  C_2
REMARK    2  A    between atoms: C_2  and  C_3
REMARK    3  A    between atoms: C_5  and  N_6
REMARK    4  A    between atoms: C_12  and  C_13
REMARK                            x       y       z     vdW  Elec       q    Type
REMARK                         _______ _______ _______ _____ _____    ______ ____
ROOT
ATOM      1  N   UNL     1       5.736   5.427  17.415  0.00  0.00    +0.000 N 
ATOM      2  C   UNL     1       6.006   4.407  18.439  0.00  0.00    +0.000 C 
ATOM      3  C   UNL     1       4.709   3.760  18.954  0.00  0.00    +0.000 C 
ATOM      4  C   UNL     1       3.743   4.841  19.214  0.00  0.00    +0.000 A 
ATOM      5  O   UNL     1       2.692   4.634  20.018  0.00  0.00    +0.000 OA
ATOM      6  N   UNL     1       1.942   5.786  20.043  0.00  0.00    +0.000 NA
ATOM      7  C   UNL     1       2.564   6.696  19.274  0.00  0.00    +0.000 A 
ATOM      8  C   UNL     1       3.742   6.117  18.708  0.00  0.00    +0.000 A 
ATOM      9  C   UNL     1       4.851   6.554  17.802  0.00  0.00    +0.000 C 
ENDROOT
BRANCH   7  10
ATOM     10  C   UNL     1       1.994   8.043  19.112  0.00  0.00    +0.000 A 
ATOM     11  C   UNL     1       2.128   8.687  17.876  0.00  0.00    +0.000 A 
ATOM     12  C   UNL     1       1.612   9.962  17.664  0.00  0.00    +0.000 A 
ATOM     13  C   UNL     1       0.926  10.606  18.689  0.00  0.00    +0.000 A 
ATOM     14  C   UNL     1       0.768   9.995  19.939  0.00  0.00    +0.000 A 
ATOM     15  C   UNL     1       0.088  10.672  20.967  0.00  0.00    +0.000 A 
ATOM     16  C   UNL     1      -0.053  10.109  22.236  0.00  0.00    +0.000 A 
ATOM     17  C   UNL     1       0.509   8.871  22.502  0.00  0.00    +0.000 A 
ATOM     18  C   UNL     1       1.199   8.195  21.491  0.00  0.00    +0.000 A 
ATOM     19  C   UNL     1       1.319   8.709  20.183  0.00  0.00    +0.000 A 
ENDBRANCH   7  10
BRANCH   1  22
ATOM     20  C   UNL     1       5.788   4.269  13.974  0.00  0.00    +0.000 A 
ATOM     21  C   UNL     1       5.318   4.564  15.230  0.00  0.00    +0.000 A 
ATOM     22  C   UNL     1       6.149   5.221  16.119  0.00  0.00    +0.000 A 
ATOM     23  N   UNL     1       7.369   5.638  15.724  0.00  0.00    +0.000 NA
ATOM     24  C   UNL     1       7.755   5.284  14.492  0.00  0.00    +0.000 A 
ATOM     25  N   UNL     1       7.034   4.607  13.585  0.00  0.00    +0.000 NA
BRANCH  20  27
ATOM     26  C   UNL     1       5.765   2.840  11.910  0.00  0.00    +0.000 C 
ATOM     27  C   UNL     1       4.933   3.485  13.011  0.00  0.00    +0.000 C 
ENDBRANCH  20  27
ENDBRANCH   1  22
TORSDOF 3
ENDMDL
MODEL 3
REMARK VINA RESULT:      -7.8      5.542      9.143
REMARK  Name = 
REMARK  4 active torsions:
REMARK  status: ('A' for Active; 'I' for Inactive)
REMARK    1  A    between atoms: C_1  and  C_2
REMARK    2  A    between atoms: C_2  and  C_3
REMARK    3  A    between atoms: C_5  and  N_6
REMARK    4  A    between atoms: C_12  and  C_13
REMARK                            x       y       z     vdW  Elec       q    Type
REMARK                         _______ _______ _______ _____ _____    ______ ____
ROOT
ATOM      1  N   UNL     1       0.826  10.968  19.039  0.00  0.00    +0.000 N 
ATOM      2  C   UNL     1      -0.293  10.747  19.968  0.00  0.00    +0.000 C 
ATOM      3  C   UNL     1       0.124   9.878  21.166  0.00  0.00    +0.000 C 
ATOM      4  C   UNL     1       0.897   8.737  20.643  0.00  0.00    +0.000 A 
ATOM      5  O   UNL     1       1.054   7.630  21.379  0.00  0.00    +0.000 OA
ATOM      6  N   UNL     1       1.847   6.758  20.671  0.00  0.00    +0.000 NA
ATOM      7  C   UNL     1       2.139   7.335  19.493  0.00  0.00    +0.000 A 
ATOM      8  C   UNL     1       1.543   8.633  19.437  0.00  0.00    +0.000 A 
ATOM      9  C   UNL     1       1.468   9.763  18.457  0.00  0.00    +0.000 C 
ENDROOT
BRANCH   7  10
ATOM     10  C   UNL     1       2.977   6.630  18.510  0.00  0.00    +0.000 A 
ATOM     11  C   UNL     1       3.979   7.344  17.843  0.00  0.00    +0.000 A 
ATOM     12  C   UNL     1       4.801   6.732  16.901  0.00  0.00    +0.000 A 
ATOM     13  C   UNL     1       4.644   5.376  16.629  0.00  0.00    +0.000 A 
ATOM     14  C   UNL     1       3.654   4.626  17.276  0.00  0.00    +0.000 A 
ATOM     15  C   UNL     1       3.500   3.261  16.971  0.00  0.00    +0.000 A 
ATOM     16  C   UNL     1       2.499   2.494  17.569  0.00  0.00    +0.000 A 
ATOM     17  C   UNL     1       1.621   3.088  18.459  0.00  0.00    +0.000 A 
ATOM     18  C   UNL     1       1.756   4.448  18.759  0.00  0.00    +0.000 A 
ATOM     19  C   UNL     1       2.785   5.243  18.214  0.00  0.00    +0.000 A 
ENDBRANCH   7  10
BRANCH   1  22
ATOM     20  C   UNL     1       1.130  14.586  19.106  0.00  0.00    +0.000 A 
ATOM     21  C   UNL     1       0.653  13.326  19.367  0.00  0.00    +0.000 A 
ATOM     22  C   UNL     1       1.346  12.232  18.883  0.00  0.00    +0.000 A 
ATOM     23  N   UNL     1       2.519  12.405  18.238  0.00  0.00    +0.000 NA
ATOM     24  C   UNL     1       2.895  13.668  18.005  0.00  0.00    +0.000 A 
ATOM     25  N   UNL     1       2.259  14.783  18.395  0.00  0.00    +0.000 NA
BRANCH  20  27
ATOM     26  C   UNL     1      -0.304  16.514  18.382  0.00  0.00    +0.000 C 
ATOM     27  C   UNL     1       0.353  15.798  19.554  0.00  0.00    +0.000 C 
ENDBRANCH  20  27
ENDBRANCH   1  22
TORSDOF 3
ENDMDL
MODEL 4
REMARK VINA RESULT:      -7.8      2.604      5.384
REMARK  Name = 
REMARK  4 active torsions:
REMARK  status: ('A' for Active; 'I' for Inactive)
REMARK    1  A    between atoms: C_1  and  C_2
REMARK    2  A    between atoms: C_2  and  C_3
REMARK    3  A    between atoms: C_5  and  N_6
REMARK    4  A    between atoms: C_12  and  C_13
REMARK                            x       y       z     vdW  Elec       q    Type
REMARK                         _______ _______ _______ _____ _____    ______ ____
ROOT
ATOM      1  N   UNL     1       4.865   4.378  19.148  0.00  0.00    +0.000 N 
ATOM      2  C   UNL     1       4.563   3.045  19.689  0.00  0.00    +0.000 C 
ATOM      3  C   UNL     1       3.080   2.680  19.509  0.00  0.00    +0.000 C 
ATOM      4  C   UNL     1       2.279   3.849  19.913  0.00  0.00    +0.000 A 
ATOM      5  O   UNL     1       0.987   3.709  20.234  0.00  0.00    +0.000 OA
ATOM      6  N   UNL     1       0.483   4.955  20.522  0.00  0.00    +0.000 NA
ATOM      7  C   UNL     1       1.486   5.840  20.405  0.00  0.00    +0.000 A 
ATOM      8  C   UNL     1       2.677   5.160  20.001  0.00  0.00    +0.000 A 
ATOM      9  C   UNL     1       4.100   5.523  19.704  0.00  0.00    +0.000 C 
ENDROOT
BRANCH   7  10
ATOM     10  C   UNL     1       1.249   7.270  20.662  0.00  0.00    +0.000 A 
ATOM     11  C   UNL     1       0.743   7.655  21.910  0.00  0.00    +0.000 A 
ATOM     12  C   UNL     1       0.496   8.991  22.210  0.00  0.00    +0.000 A 
ATOM     13  C   UNL     1       0.777   9.972  21.264  0.00  0.00    +0.000 A 
ATOM     14  C   UNL     1       1.286   9.628  20.005  0.00  0.00    +0.000 A 
ATOM     15  C   UNL     1       1.544  10.634  19.057  0.00  0.00    +0.000 A 
ATOM     16  C   UNL     1       2.014  10.323  17.780  0.00  0.00    +0.000 A 
ATOM     17  C   UNL     1       2.205   8.998  17.425  0.00  0.00    +0.000 A 
ATOM     18  C   UNL     1       1.938   7.989  18.356  0.00  0.00    +0.000 A 
ATOM     19  C   UNL     1       1.511   8.267  19.670  0.00  0.00    +0.000 A 
ENDBRANCH   7  10
BRANCH   1  22
ATOM     20  C   UNL     1       5.983   4.553  15.697  0.00  0.00    +0.000 A 
ATOM     21  C   UNL     1       5.143   4.541  16.783  0.00  0.00    +0.000 A 
ATOM     22  C   UNL     1       5.689   4.502  18.053  0.00  0.00    +0.000 A 
ATOM     23  N   UNL     1       7.027   4.559  18.217  0.00  0.00    +0.000 NA
ATOM     24  C   UNL     1       7.769   4.541  17.103  0.00  0.00    +0.000 A 
ATOM     25  N   UNL     1       7.323   4.531  15.838  0.00  0.00    +0.000 NA
BRANCH  20  27
ATOM     26  C   UNL     1       6.287   3.702  13.356  0.00  0.00    +0.000 C 
ATOM     27  C   UNL     1       5.415   4.518  14.301  0.00  0.00    +0.000 C 
ENDBRANCH  20  27
ENDBRANCH   1  22
TORSDOF 3
ENDMDL
MODEL 5
REMARK VINA RESULT:      -7.7      5.561      9.092
REMARK  Name = 
REMARK  4 active torsions:
REMARK  status: ('A' for Active; 'I' for Inactive)
REMARK    1  A    between atoms: C_1  and  C_2
REMARK    2  A    between atoms: C_2  and  C_3
REMARK    3  A    between atoms: C_5  and  N_6
REMARK    4  A    between atoms: C_12  and  C_13
REMARK                            x       y       z     vdW  Elec       q    Type
REMARK                         _______ _______ _______ _____ _____    ______ ____
ROOT
ATOM      1  N   UNL     1       0.527  11.047  18.934  0.00  0.00    +0.000 N 
ATOM      2  C   UNL     1      -0.558  10.797  19.894  0.00  0.00    +0.000 C 
ATOM      3  C   UNL     1      -0.066  10.002  21.115  0.00  0.00    +0.000 C 
ATOM      4  C   UNL     1       0.764   8.890  20.619  0.00  0.00    +0.000 A 
ATOM      5  O   UNL     1       1.002   7.824  21.393  0.00  0.00    +0.000 OA
ATOM      6  N   UNL     1       1.833   6.974  20.702  0.00  0.00    +0.000 NA
ATOM      7  C   UNL     1       2.067   7.520  19.497  0.00  0.00    +0.000 A 
ATOM      8  C   UNL     1       1.392   8.777  19.404  0.00  0.00    +0.000 A 
ATOM      9  C   UNL     1       1.229   9.861  18.383  0.00  0.00    +0.000 C 
ENDROOT
BRANCH   7  10
ATOM     10  C   UNL     1       2.926   6.828  18.523  0.00  0.00    +0.000 A 
ATOM     11  C   UNL     1       3.927   7.557  17.869  0.00  0.00    +0.000 A 
ATOM     12  C   UNL     1       4.768   6.958  16.937  0.00  0.00    +0.000 A 
ATOM     13  C   UNL     1       4.633   5.601  16.661  0.00  0.00    +0.000 A 
ATOM     14  C   UNL     1       3.646   4.835  17.295  0.00  0.00    +0.000 A 
ATOM     15  C   UNL     1       3.516   3.470  16.987  0.00  0.00    +0.000 A 
ATOM     16  C   UNL     1       2.518   2.687  17.571  0.00  0.00    +0.000 A 
ATOM     17  C   UNL     1       1.620   3.268  18.451  0.00  0.00    +0.000 A 
ATOM     18  C   UNL     1       1.733   4.629  18.754  0.00  0.00    +0.000 A 
ATOM     19  C   UNL     1       2.757   5.439  18.223  0.00  0.00    +0.000 A 
ENDBRANCH   7  10
BRANCH   1  22
ATOM     20  C   UNL     1       2.747  13.865  18.367  0.00  0.00    +0.000 A 
ATOM     21  C   UNL     1       2.307  12.569  18.470  0.00  0.00    +0.000 A 
ATOM     22  C   UNL     1       0.967  12.333  18.718  0.00  0.00    +0.000 A 
ATOM     23  N   UNL     1       0.097  13.363  18.772  0.00  0.00    +0.000 NA
ATOM     24  C   UNL     1       0.617  14.593  18.688  0.00  0.00    +0.000 A 
ATOM     25  N   UNL     1       1.906  14.911  18.497  0.00  0.00    +0.000 NA
BRANCH  20  27
ATOM     26  C   UNL     1       4.761  15.060  19.269  0.00  0.00    +0.000 C 
ATOM     27  C   UNL     1       4.214  14.153  18.175  0.00  0.00    +0.000 C 
ENDBRANCH  20  27
ENDBRANCH   1  22
TORSDOF 3
ENDMDL
MODEL 6
REMARK VINA RESULT:      -7.3      9.208     11.914
REMARK  Name = 
REMARK  4 active torsions:
REMARK  status: ('A' for Active; 'I' for Inactive)
REMARK    1  A    between atoms: C_1  and  C_2
REMARK    2  A    between atoms: C_2  and  C_3
REMARK    3  A    between atoms: C_5  and  N_6
REMARK    4  A    between atoms: C_12  and  C_13
REMARK                            x       y       z     vdW  Elec       q    Type
REMARK                         _______ _______ _______ _____ _____    ______ ____
ROOT
ATOM      1  N   UNL     1      -1.581  11.590  18.774  0.00  0.00    +0.000 N 
ATOM      2  C   UNL     1      -0.352  10.782  18.783  0.00  0.00    +0.000 C 
ATOM      3  C   UNL     1      -0.245   9.923  20.054  0.00  0.00    +0.000 C 
ATOM      4  C   UNL     1      -0.584  10.780  21.204  0.00  0.00    +0.000 A 
ATOM      5  O   UNL     1      -0.208  10.434  22.442  0.00  0.00    +0.000 OA
ATOM      6  N   UNL     1      -0.693  11.381  23.313  0.00  0.00    +0.000 NA
ATOM      7  C   UNL     1      -1.334  12.314  22.588  0.00  0.00    +0.000 A 
ATOM      8  C   UNL     1      -1.292  11.955  21.205  0.00  0.00    +0.000 A 
ATOM      9  C   UNL     1      -1.783  12.525  19.910  0.00  0.00    +0.000 C 
ENDROOT
BRANCH   7  10
ATOM     10  C   UNL     1      -1.958  13.469  23.253  0.00  0.00    +0.000 A 
ATOM     11  C   UNL     1      -1.138  14.392  23.912  0.00  0.00    +0.000 A 
ATOM     12  C   UNL     1      -1.671  15.502  24.560  0.00  0.00    +0.000 A 
ATOM     13  C   UNL     1      -3.046  15.718  24.535  0.00  0.00    +0.000 A 
ATOM     14  C   UNL     1      -3.901  14.820  23.885  0.00  0.00    +0.000 A 
ATOM     15  C   UNL     1      -5.288  15.048  23.889  0.00  0.00    +0.000 A 
ATOM     16  C   UNL     1      -6.172  14.152  23.284  0.00  0.00    +0.000 A 
ATOM     17  C   UNL     1      -5.680  13.002  22.690  0.00  0.00    +0.000 A 
ATOM     18  C   UNL     1      -4.302  12.759  22.692  0.00  0.00    +0.000 A 
ATOM     19  C   UNL     1      -3.376  13.664  23.249  0.00  0.00    +0.000 A 
ENDBRANCH   7  10
BRANCH   1  22
ATOM     20  C   UNL     1      -3.199  10.561  15.691  0.00  0.00    +0.000 A 
ATOM     21  C   UNL     1      -2.233  10.709  16.654  0.00  0.00    +0.000 A 
ATOM     22  C   UNL     1      -2.560  11.335  17.843  0.00  0.00    +0.000 A 
ATOM     23  N   UNL     1      -3.833  11.717  18.079  0.00  0.00    +0.000 NA
ATOM     24  C   UNL     1      -4.702  11.559  17.074  0.00  0.00    +0.000 A 
ATOM     25  N   UNL     1      -4.458  11.007  15.876  0.00  0.00    +0.000 NA
BRANCH  20  27
ATOM     26  C   UNL     1      -4.047   9.931  13.414  0.00  0.00    +0.000 C 
ATOM     27  C   UNL     1      -2.851   9.952  14.356  0.00  0.00    +0.000 C 
ENDBRANCH  20  27
ENDBRANCH   1  22
TORSDOF 3
ENDMDL
MODEL 7
REMARK VINA RESULT:      -7.3      9.379     11.842
REMARK  Name = 
REMARK  4 active torsions:
REMARK  status: ('A' for Active; 'I' for Inactive)
REMARK    1  A    between atoms: C_1  and  C_2
REMARK    2  A    between atoms: C_2  and  C_3
REMARK    3  A    between atoms: C_5  and  N_6
REMARK    4  A    between atoms: C_12  and  C_13
REMARK                            x       y       z     vdW  Elec       q    Type
REMARK                         _______ _______ _______ _____ _____    ______ ____
ROOT
ATOM      1  N   UNL     1      -0.910  11.101  18.789  0.00  0.00    +0.000 N 
ATOM      2  C   UNL     1      -0.789  10.300  20.016  0.00  0.00    +0.000 C 
ATOM      3  C   UNL     1      -0.835  11.179  21.277  0.00  0.00    +0.000 C 
ATOM      4  C   UNL     1       0.050  12.334  21.050  0.00  0.00    +0.000 A 
ATOM      5  O   UNL     1       0.513  13.049  22.083  0.00  0.00    +0.000 OA
ATOM      6  N   UNL     1       1.268  14.082  21.581  0.00  0.00    +0.000 NA
ATOM      7  C   UNL     1       1.283  13.967  20.242  0.00  0.00    +0.000 A 
ATOM      8  C   UNL     1       0.493  12.840  19.853  0.00  0.00    +0.000 A 
ATOM      9  C   UNL     1       0.103  12.165  18.574  0.00  0.00    +0.000 C 
ENDROOT
BRANCH   7  10
ATOM     10  C   UNL     1       2.025  14.937  19.422  0.00  0.00    +0.000 A 
ATOM     11  C   UNL     1       3.420  14.836  19.354  0.00  0.00    +0.000 A 
ATOM     12  C   UNL     1       4.174  15.726  18.597  0.00  0.00    +0.000 A 
ATOM     13  C   UNL     1       3.535  16.726  17.871  0.00  0.00    +0.000 A 
ATOM     14  C   UNL     1       2.141  16.860  17.910  0.00  0.00    +0.000 A 
ATOM     15  C   UNL     1       1.517  17.889  17.183  0.00  0.00    +0.000 A 
ATOM     16  C   UNL     1       0.135  18.075  17.231  0.00  0.00    +0.000 A 
ATOM     17  C   UNL     1      -0.639  17.249  18.029  0.00  0.00    +0.000 A 
ATOM     18  C   UNL     1      -0.027  16.231  18.767  0.00  0.00    +0.000 A 
ATOM     19  C   UNL     1       1.359  15.981  18.705  0.00  0.00    +0.000 A 
ENDBRANCH   7  10
BRANCH   1  22
ATOM     20  C   UNL     1      -3.007  10.367  15.917  0.00  0.00    +0.000 A 
ATOM     21  C   UNL     1      -1.910  10.391  16.742  0.00  0.00    +0.000 A 
ATOM     22  C   UNL     1      -2.024  10.969  17.993  0.00  0.00    +0.000 A 
ATOM     23  N   UNL     1      -3.219  11.424  18.422  0.00  0.00    +0.000 NA
ATOM     24  C   UNL     1      -4.227  11.385  17.543  0.00  0.00    +0.000 A 
ATOM     25  N   UNL     1      -4.191  10.888  16.297  0.00  0.00    +0.000 NA
BRANCH  20  27
ATOM     26  C   UNL     1      -4.144  10.084  13.697  0.00  0.00    +0.000 C 
ATOM     27  C   UNL     1      -2.891   9.813  14.519  0.00  0.00    +0.000 C 
ENDBRANCH  20  27
ENDBRANCH   1  22
TORSDOF 3
ENDMDL
MODEL 8
REMARK VINA RESULT:      -7.2      5.464      9.201
REMARK  Name = 
REMARK  4 active torsions:
REMARK  status: ('A' for Active; 'I' for Inactive)
REMARK    1  A    between atoms: C_1  and  C_2
REMARK    2  A    between atoms: C_2  and  C_3
REMARK    3  A    between atoms: C_5  and  N_6
REMARK    4  A    between atoms: C_12  and  C_13
REMARK                            x       y       z     vdW  Elec       q    Type
REMARK                         _______ _______ _______ _____ _____    ______ ____
ROOT
ATOM      1  N   UNL     1       0.925  11.064  19.755  0.00  0.00    +0.000 N 
ATOM      2  C   UNL     1      -0.268  10.795  20.571  0.00  0.00    +0.000 C 
ATOM      3  C   UNL     1       0.005   9.725  21.643  0.00  0.00    +0.000 C 
ATOM      4  C   UNL     1       0.733   8.620  20.996  0.00  0.00    +0.000 A 
ATOM      5  O   UNL     1       0.763   7.406  21.560  0.00  0.00    +0.000 OA
ATOM      6  N   UNL     1       1.543   6.591  20.773  0.00  0.00    +0.000 NA
ATOM      7  C   UNL     1       1.955   7.313  19.718  0.00  0.00    +0.000 A 
ATOM      8  C   UNL     1       1.454   8.648  19.829  0.00  0.00    +0.000 A 
ATOM      9  C   UNL     1       1.523   9.914  19.032  0.00  0.00    +0.000 C 
ENDROOT
BRANCH   7  10
ATOM     10  C   UNL     1       2.810   6.701  18.688  0.00  0.00    +0.000 A 
ATOM     11  C   UNL     1       3.758   7.500  18.037  0.00  0.00    +0.000 A 
ATOM     12  C   UNL     1       4.592   6.977  17.054  0.00  0.00    +0.000 A 
ATOM     13  C   UNL     1       4.504   5.628  16.722  0.00  0.00    +0.000 A 
ATOM     14  C   UNL     1       3.570   4.795  17.351  0.00  0.00    +0.000 A 
ATOM     15  C   UNL     1       3.485   3.440  16.987  0.00  0.00    +0.000 A 
ATOM     16  C   UNL     1       2.541   2.592  17.566  0.00  0.00    +0.000 A 
ATOM     17  C   UNL     1       1.649   3.096  18.498  0.00  0.00    +0.000 A 
ATOM     18  C   UNL     1       1.716   4.446  18.858  0.00  0.00    +0.000 A 
ATOM     19  C   UNL     1       2.688   5.321  18.332  0.00  0.00    +0.000 A 
ENDBRANCH   7  10
BRANCH   1  22
ATOM     20  C   UNL     1       2.854  13.996  18.822  0.00  0.00    +0.000 A 
ATOM     21  C   UNL     1       2.151  12.823  18.706  0.00  0.00    +0.000 A 
ATOM     22  C   UNL     1       1.540  12.293  19.827  0.00  0.00    +0.000 A 
ATOM     23  N   UNL     1       1.566  12.968  20.995  0.00  0.00    +0.000 NA
ATOM     24  C   UNL     1       2.296  14.089  21.024  0.00  0.00    +0.000 A 
ATOM     25  N   UNL     1       2.959  14.646  19.999  0.00  0.00    +0.000 NA
BRANCH  20  27
ATOM     26  C   UNL     1       3.360  16.051  17.474  0.00  0.00    +0.000 C 
ATOM     27  C   UNL     1       3.595  14.556  17.635  0.00  0.00    +0.000 C 
ENDBRANCH  20  27
ENDBRANCH   1  22
TORSDOF 3
ENDMDL
MODEL 9
REMARK VINA RESULT:      -7.2      2.719      5.003
REMARK  Name = 
REMARK  4 active torsions:
REMARK  status: ('A' for Active; 'I' for Inactive)
REMARK    1  A    between atoms: C_1  and  C_2
REMARK    2  A    between atoms: C_2  and  C_3
REMARK    3  A    between atoms: C_5  and  N_6
REMARK    4  A    between atoms: C_12  and  C_13
REMARK                            x       y       z     vdW  Elec       q    Type
REMARK                         _______ _______ _______ _____ _____    ______ ____
ROOT
ATOM      1  N   UNL     1       5.328   5.062  17.790  0.00  0.00    +0.000 N 
ATOM      2  C   UNL     1       5.600   4.147  18.908  0.00  0.00    +0.000 C 
ATOM      3  C   UNL     1       4.301   3.645  19.562  0.00  0.00    +0.000 C 
ATOM      4  C   UNL     1       3.415   4.807  19.746  0.00  0.00    +0.000 A 
ATOM      5  O   UNL     1       2.404   4.758  20.623  0.00  0.00    +0.000 OA
ATOM      6  N   UNL     1       1.723   5.950  20.555  0.00  0.00    +0.000 NA
ATOM      7  C   UNL     1       2.349   6.729  19.656  0.00  0.00    +0.000 A 
ATOM      8  C   UNL     1       3.456   6.016  19.098  0.00  0.00    +0.000 A 
ATOM      9  C   UNL     1       4.533   6.279  18.091  0.00  0.00    +0.000 C 
ENDROOT
BRANCH   7  10
ATOM     10  C   UNL     1       1.848   8.082  19.370  0.00  0.00    +0.000 A 
ATOM     11  C   UNL     1       2.040   8.616  18.090  0.00  0.00    +0.000 A 
ATOM     12  C   UNL     1       1.591   9.891  17.762  0.00  0.00    +0.000 A 
ATOM     13  C   UNL     1       0.914  10.648  18.714  0.00  0.00    +0.000 A 
ATOM     14  C   UNL     1       0.700  10.150  20.005  0.00  0.00    +0.000 A 
ATOM     15  C   UNL     1       0.031  10.940  20.957  0.00  0.00    +0.000 A 
ATOM     16  C   UNL     1      -0.165  10.490  22.263  0.00  0.00    +0.000 A 
ATOM     17  C   UNL     1       0.330   9.253  22.642  0.00  0.00    +0.000 A 
ATOM     18  C   UNL     1       1.009   8.466  21.707  0.00  0.00    +0.000 A 
ATOM     19  C   UNL     1       1.182   8.864  20.366  0.00  0.00    +0.000 A 
ENDBRANCH   7  10
BRANCH   1  22
ATOM     20  C   UNL     1       6.974   4.965  14.554  0.00  0.00    +0.000 A 
ATOM     21  C   UNL     1       6.733   5.268  15.871  0.00  0.00    +0.000 A 
ATOM     22  C   UNL     1       5.650   4.687  16.505  0.00  0.00    +0.000 A 
ATOM     23  N   UNL     1       4.896   3.774  15.859  0.00  0.00    +0.000 NA
ATOM     24  C   UNL     1       5.187   3.560  14.571  0.00  0.00    +0.000 A 
ATOM     25  N   UNL     1       6.185   4.115  13.867  0.00  0.00    +0.000 NA
BRANCH  20  27
ATOM     26  C   UNL     1       7.940   5.523  12.306  0.00  0.00    +0.000 C 
ATOM     27  C   UNL     1       8.100   5.642  13.816  0.00  0.00    +0.000 C 
ENDBRANCH  20  27
ENDBRANCH   1  22
TORSDOF 3
ENDMDL
