MODEL 1
REMARK VINA RESULT:      -6.8      0.000      0.000
REMARK  Name = 
REMARK  6 active torsions:
REMARK  status: ('A' for Active; 'I' for Inactive)
REMARK    1  A    between atoms: C_1  and  O_2
REMARK    2  A    between atoms: O_2  and  C_3
REMARK    3  A    between atoms: C_6  and  C_7
REMARK    4  A    between atoms: C_8  and  C_10
REMARK    5  A    between atoms: C_13  and  O_14
REMARK    6  A    between atoms: O_14  and  C_15
REMARK                            x       y       z     vdW  Elec       q    Type
REMARK                         _______ _______ _______ _____ _____    ______ ____
ROOT
ATOM      1  C   UNL     1       2.324   7.234  19.194  0.00  0.00    +0.000 C 
ATOM      2  C   UNL     1       1.741   8.444  19.065  0.00  0.00    +0.000 C 
ATOM      3 CL   UNL     1       1.868   9.483  17.695  0.00  0.00    +0.000 Cl
ENDROOT
BRANCH   1   7
ATOM      4  C   UNL     1       4.790   4.952  16.492  0.00  0.00    +0.000 A 
ATOM      5  C   UNL     1       3.804   4.337  17.262  0.00  0.00    +0.000 A 
ATOM      6  C   UNL     1       3.002   5.098  18.127  0.00  0.00    +0.000 A 
ATOM      7  C   UNL     1       3.184   6.483  18.254  0.00  0.00    +0.000 A 
ATOM      8  C   UNL     1       4.153   7.084  17.440  0.00  0.00    +0.000 A 
ATOM      9  C   UNL     1       4.963   6.325  16.592  0.00  0.00    +0.000 A 
BRANCH   4  11
ATOM     10  C   UNL     1       6.878   4.523  15.472  0.00  0.00    +0.000 C 
ATOM     11  O   UNL     1       5.533   4.117  15.700  0.00  0.00    +0.000 OA
ENDBRANCH   4  11
ENDBRANCH   1   7
BRANCH   2  12
ATOM     12  C   UNL     1       1.023   9.028  20.212  0.00  0.00    +0.000 A 
ATOM     13  C   UNL     1       0.125  10.080  19.995  0.00  0.00    +0.000 A 
ATOM     14  C   UNL     1      -0.478  10.725  21.076  0.00  0.00    +0.000 A 
ATOM     15  C   UNL     1      -0.220  10.312  22.385  0.00  0.00    +0.000 A 
ATOM     16  C   UNL     1       0.639   9.235  22.606  0.00  0.00    +0.000 A 
ATOM     17  C   UNL     1       1.260   8.596  21.524  0.00  0.00    +0.000 A 
BRANCH  15  18
ATOM     18  O   UNL     1      -0.812  11.077  23.350  0.00  0.00    +0.000 OA
ATOM     19  C   UNL     1      -1.383  12.304  22.915  0.00  0.00    +0.000 C 
ENDBRANCH  15  18
ENDBRANCH   2  12
TORSDOF 4
ENDMDL
MODEL 2
REMARK VINA RESULT:      -6.8      1.549      8.332
REMARK  Name = 
REMARK  6 active torsions:
REMARK  status: ('A' for Active; 'I' for Inactive)
REMARK    1  A    between atoms: C_1  and  O_2
REMARK    2  A    between atoms: O_2  and  C_3
REMARK    3  A    between atoms: C_6  and  C_7
REMARK    4  A    between atoms: C_8  and  C_10
REMARK    5  A    between atoms: C_13  and  O_14
REMARK    6  A    between atoms: O_14  and  C_15
REMARK                            x       y       z     vdW  Elec       q    Type
REMARK                         _______ _______ _______ _____ _____    ______ ____
ROOT
ATOM      1  C   UNL     1       2.771   7.493  18.364  0.00  0.00    +0.000 C 
ATOM      2  C   UNL     1       2.867   6.161  18.173  0.00  0.00    +0.000 C 
ATOM      3 CL   UNL     1       1.902   4.961  18.948  0.00  0.00    +0.000 Cl
ENDROOT
BRANCH   1   7
ATOM      4  C   UNL     1       0.106   9.833  20.817  0.00  0.00    +0.000 A 
ATOM      5  C   UNL     1       0.294  10.131  19.468  0.00  0.00    +0.000 A 
ATOM      6  C   UNL     1       1.156   9.351  18.682  0.00  0.00    +0.000 A 
ATOM      7  C   UNL     1       1.862   8.272  19.232  0.00  0.00    +0.000 A 
ATOM      8  C   UNL     1       1.626   7.966  20.580  0.00  0.00    +0.000 A 
ATOM      9  C   UNL     1       0.783   8.753  21.367  0.00  0.00    +0.000 A 
BRANCH   4  11
ATOM     10  C   UNL     1      -0.724  10.530  22.917  0.00  0.00    +0.000 C 
ATOM     11  O   UNL     1      -0.735  10.670  21.499  0.00  0.00    +0.000 OA
ENDBRANCH   4  11
ENDBRANCH   1   7
BRANCH   2  12
ATOM     12  C   UNL     1       3.954   5.627  17.334  0.00  0.00    +0.000 A 
ATOM     13  C   UNL     1       4.719   6.508  16.560  0.00  0.00    +0.000 A 
ATOM     14  C   UNL     1       5.675   6.017  15.670  0.00  0.00    +0.000 A 
ATOM     15  C   UNL     1       5.904   4.643  15.561  0.00  0.00    +0.000 A 
ATOM     16  C   UNL     1       5.177   3.761  16.360  0.00  0.00    +0.000 A 
ATOM     17  C   UNL     1       4.204   4.251  17.243  0.00  0.00    +0.000 A 
BRANCH  15  18
ATOM     18  O   UNL     1       6.809   4.293  14.598  0.00  0.00    +0.000 OA
ATOM     19  C   UNL     1       6.268   3.801  13.379  0.00  0.00    +0.000 C 
ENDBRANCH  15  18
ENDBRANCH   2  12
TORSDOF 4
ENDMDL
MODEL 3
REMARK VINA RESULT:      -6.7      0.326      1.146
REMARK  Name = 
REMARK  6 active torsions:
REMARK  status: ('A' for Active; 'I' for Inactive)
REMARK    1  A    between atoms: C_1  and  O_2
REMARK    2  A    between atoms: O_2  and  C_3
REMARK    3  A    between atoms: C_6  and  C_7
REMARK    4  A    between atoms: C_8  and  C_10
REMARK    5  A    between atoms: C_13  and  O_14
REMARK    6  A    between atoms: O_14  and  C_15
REMARK                            x       y       z     vdW  Elec       q    Type
REMARK                         _______ _______ _______ _____ _____    ______ ____
ROOT
ATOM      1  C   UNL     1       2.471   6.983  19.125  0.00  0.00    +0.000 C 
ATOM      2  C   UNL     1       1.889   8.187  18.952  0.00  0.00    +0.000 C 
ATOM      3 CL   UNL     1       1.972   9.151  17.526  0.00  0.00    +0.000 Cl
ENDROOT
BRANCH   1   7
ATOM      4  C   UNL     1       4.919   4.724  16.387  0.00  0.00    +0.000 A 
ATOM      5  C   UNL     1       5.117   6.091  16.572  0.00  0.00    +0.000 A 
ATOM      6  C   UNL     1       4.319   6.808  17.477  0.00  0.00    +0.000 A 
ATOM      7  C   UNL     1       3.295   6.177  18.198  0.00  0.00    +0.000 A 
ATOM      8  C   UNL     1       3.141   4.795  18.026  0.00  0.00    +0.000 A 
ATOM      9  C   UNL     1       3.924   4.084  17.112  0.00  0.00    +0.000 A 
BRANCH   4  11
ATOM     10  C   UNL     1       6.958   4.802  15.196  0.00  0.00    +0.000 C 
ATOM     11  O   UNL     1       5.734   4.125  15.464  0.00  0.00    +0.000 OA
ENDBRANCH   4  11
ENDBRANCH   1   7
BRANCH   2  12
ATOM     12  C   UNL     1       1.214   8.835  20.092  0.00  0.00    +0.000 A 
ATOM     13  C   UNL     1       0.389   9.942  19.860  0.00  0.00    +0.000 A 
ATOM     14  C   UNL     1      -0.167  10.643  20.931  0.00  0.00    +0.000 A 
ATOM     15  C   UNL     1       0.065  10.233  22.246  0.00  0.00    +0.000 A 
ATOM     16  C   UNL     1       0.849   9.104  22.483  0.00  0.00    +0.000 A 
ATOM     17  C   UNL     1       1.423   8.408  21.410  0.00  0.00    +0.000 A 
BRANCH  15  18
ATOM     18  O   UNL     1      -0.472  11.051  23.200  0.00  0.00    +0.000 OA
ATOM     19  C   UNL     1      -1.122  12.223  22.727  0.00  0.00    +0.000 C 
ENDBRANCH  15  18
ENDBRANCH   2  12
TORSDOF 4
ENDMDL
MODEL 4
REMARK VINA RESULT:      -6.7      0.498      1.184
REMARK  Name = 
REMARK  6 active torsions:
REMARK  status: ('A' for Active; 'I' for Inactive)
REMARK    1  A    between atoms: C_1  and  O_2
REMARK    2  A    between atoms: O_2  and  C_3
REMARK    3  A    between atoms: C_6  and  C_7
REMARK    4  A    between atoms: C_8  and  C_10
REMARK    5  A    between atoms: C_13  and  O_14
REMARK    6  A    between atoms: O_14  and  C_15
REMARK                            x       y       z     vdW  Elec       q    Type
REMARK                         _______ _______ _______ _____ _____    ______ ____
ROOT
ATOM      1  C   UNL     1       2.488   7.229  19.226  0.00  0.00    +0.000 C 
ATOM      2  C   UNL     1       1.770   8.350  19.007  0.00  0.00    +0.000 C 
ATOM      3 CL   UNL     1       1.576   9.142  17.488  0.00  0.00    +0.000 Cl
ENDROOT
BRANCH   1   7
ATOM      4  C   UNL     1       4.712   4.712  16.522  0.00  0.00    +0.000 A 
ATOM      5  C   UNL     1       3.676   4.197  17.300  0.00  0.00    +0.000 A 
ATOM      6  C   UNL     1       2.955   5.034  18.166  0.00  0.00    +0.000 A 
ATOM      7  C   UNL     1       3.268   6.395  18.286  0.00  0.00    +0.000 A 
ATOM      8  C   UNL     1       4.286   6.899  17.464  0.00  0.00    +0.000 A 
ATOM      9  C   UNL     1       5.016   6.063  16.616  0.00  0.00    +0.000 A 
BRANCH   4  11
ATOM     10  C   UNL     1       5.757   4.282  14.447  0.00  0.00    +0.000 C 
ATOM     11  O   UNL     1       5.368   3.806  15.731  0.00  0.00    +0.000 OA
ENDBRANCH   4  11
ENDBRANCH   1   7
BRANCH   2  12
ATOM     12  C   UNL     1       1.179   9.066  20.152  0.00  0.00    +0.000 A 
ATOM     13  C   UNL     1       1.104   8.426  21.395  0.00  0.00    +0.000 A 
ATOM     14  C   UNL     1       0.446   9.037  22.463  0.00  0.00    +0.000 A 
ATOM     15  C   UNL     1      -0.119  10.306  22.318  0.00  0.00    +0.000 A 
ATOM     16  C   UNL     1      -0.010  10.968  21.095  0.00  0.00    +0.000 A 
ATOM     17  C   UNL     1       0.636  10.350  20.015  0.00  0.00    +0.000 A 
BRANCH  15  18
ATOM     18  O   UNL     1      -0.801  10.754  23.414  0.00  0.00    +0.000 OA
ATOM     19  C   UNL     1      -1.880  11.644  23.162  0.00  0.00    +0.000 C 
ENDBRANCH  15  18
ENDBRANCH   2  12
TORSDOF 4
ENDMDL
MODEL 5
REMARK VINA RESULT:      -6.7      0.432      1.611
REMARK  Name = 
REMARK  6 active torsions:
REMARK  status: ('A' for Active; 'I' for Inactive)
REMARK    1  A    between atoms: C_1  and  O_2
REMARK    2  A    between atoms: O_2  and  C_3
REMARK    3  A    between atoms: C_6  and  C_7
REMARK    4  A    between atoms: C_8  and  C_10
REMARK    5  A    between atoms: C_13  and  O_14
REMARK    6  A    between atoms: O_14  and  C_15
REMARK                            x       y       z     vdW  Elec       q    Type
REMARK                         _______ _______ _______ _____ _____    ______ ____
ROOT
ATOM      1  C   UNL     1       2.296   7.160  19.267  0.00  0.00    +0.000 C 
ATOM      2  C   UNL     1       1.802   8.397  19.054  0.00  0.00    +0.000 C 
ATOM      3 CL   UNL     1       1.960   9.310  17.600  0.00  0.00    +0.000 Cl
ENDROOT
BRANCH   1   7
ATOM      4  C   UNL     1       4.590   4.654  16.612  0.00  0.00    +0.000 A 
ATOM      5  C   UNL     1       4.852   6.019  16.721  0.00  0.00    +0.000 A 
ATOM      6  C   UNL     1       4.103   6.817  17.600  0.00  0.00    +0.000 A 
ATOM      7  C   UNL     1       3.066   6.271  18.370  0.00  0.00    +0.000 A 
ATOM      8  C   UNL     1       2.849   4.890  18.274  0.00  0.00    +0.000 A 
ATOM      9  C   UNL     1       3.582   4.099  17.386  0.00  0.00    +0.000 A 
BRANCH   4  11
ATOM     10  C   UNL     1       5.937   4.763  14.673  0.00  0.00    +0.000 C 
ATOM     11  O   UNL     1       5.361   3.972  15.708  0.00  0.00    +0.000 OA
ENDBRANCH   4  11
ENDBRANCH   1   7
BRANCH   2  12
ATOM     12  C   UNL     1       1.168   9.124  20.168  0.00  0.00    +0.000 A 
ATOM     13  C   UNL     1       1.214   8.579  21.457  0.00  0.00    +0.000 A 
ATOM     14  C   UNL     1       0.523   9.188  22.505  0.00  0.00    +0.000 A 
ATOM     15  C   UNL     1      -0.197  10.366  22.292  0.00  0.00    +0.000 A 
ATOM     16  C   UNL     1      -0.211  10.940  21.021  0.00  0.00    +0.000 A 
ATOM     17  C   UNL     1       0.468  10.321  19.962  0.00  0.00    +0.000 A 
BRANCH  15  18
ATOM     18  O   UNL     1      -0.890  10.813  23.382  0.00  0.00    +0.000 OA
ATOM     19  C   UNL     1      -1.970  11.699  23.118  0.00  0.00    +0.000 C 
ENDBRANCH  15  18
ENDBRANCH   2  12
TORSDOF 4
ENDMDL
MODEL 6
REMARK VINA RESULT:      -6.7      1.443      2.188
REMARK  Name = 
REMARK  6 active torsions:
REMARK  status: ('A' for Active; 'I' for Inactive)
REMARK    1  A    between atoms: C_1  and  O_2
REMARK    2  A    between atoms: O_2  and  C_3
REMARK    3  A    between atoms: C_6  and  C_7
REMARK    4  A    between atoms: C_8  and  C_10
REMARK    5  A    between atoms: C_13  and  O_14
REMARK    6  A    between atoms: O_14  and  C_15
REMARK                            x       y       z     vdW  Elec       q    Type
REMARK                         _______ _______ _______ _____ _____    ______ ____
ROOT
ATOM      1  C   UNL     1       3.069   7.164  18.387  0.00  0.00    +0.000 C 
ATOM      2  C   UNL     1       2.333   7.015  19.509  0.00  0.00    +0.000 C 
ATOM      3 CL   UNL     1       2.051   5.531  20.339  0.00  0.00    +0.000 Cl
ENDROOT
BRANCH   1   7
ATOM      4  C   UNL     1       5.284   4.324  16.017  0.00  0.00    +0.000 A 
ATOM      5  C   UNL     1       5.566   5.688  15.958  0.00  0.00    +0.000 A 
ATOM      6  C   UNL     1       4.842   6.597  16.746  0.00  0.00    +0.000 A 
ATOM      7  C   UNL     1       3.811   6.163  17.592  0.00  0.00    +0.000 A 
ATOM      8  C   UNL     1       3.574   4.783  17.665  0.00  0.00    +0.000 A 
ATOM      9  C   UNL     1       4.282   3.881  16.868  0.00  0.00    +0.000 A 
BRANCH   4  11
ATOM     10  C   UNL     1       6.557   4.168  14.032  0.00  0.00    +0.000 C 
ATOM     11  O   UNL     1       6.030   3.527  15.190  0.00  0.00    +0.000 OA
ENDBRANCH   4  11
ENDBRANCH   1   7
BRANCH   2  12
ATOM     12  C   UNL     1       1.586   8.168  20.042  0.00  0.00    +0.000 A 
ATOM     13  C   UNL     1       1.143   8.143  21.370  0.00  0.00    +0.000 A 
ATOM     14  C   UNL     1       0.336   9.168  21.863  0.00  0.00    +0.000 A 
ATOM     15  C   UNL     1      -0.017  10.249  21.051  0.00  0.00    +0.000 A 
ATOM     16  C   UNL     1       0.458  10.304  19.740  0.00  0.00    +0.000 A 
ATOM     17  C   UNL     1       1.255   9.266  19.237  0.00  0.00    +0.000 A 
BRANCH  15  18
ATOM     18  O   UNL     1      -0.874  11.141  21.631  0.00  0.00    +0.000 OA
ATOM     19  C   UNL     1      -1.140  10.947  23.014  0.00  0.00    +0.000 C 
ENDBRANCH  15  18
ENDBRANCH   2  12
TORSDOF 4
ENDMDL
MODEL 7
REMARK VINA RESULT:      -6.7      1.554      8.252
REMARK  Name = 
REMARK  6 active torsions:
REMARK  status: ('A' for Active; 'I' for Inactive)
REMARK    1  A    between atoms: C_1  and  O_2
REMARK    2  A    between atoms: O_2  and  C_3
REMARK    3  A    between atoms: C_6  and  C_7
REMARK    4  A    between atoms: C_8  and  C_10
REMARK    5  A    between atoms: C_13  and  O_14
REMARK    6  A    between atoms: O_14  and  C_15
REMARK                            x       y       z     vdW  Elec       q    Type
REMARK                         _______ _______ _______ _____ _____    ______ ____
ROOT
ATOM      1  C   UNL     1       2.618   7.663  18.054  0.00  0.00    +0.000 C 
ATOM      2  C   UNL     1       2.799   6.330  18.161  0.00  0.00    +0.000 C 
ATOM      3 CL   UNL     1       1.977   5.286  19.259  0.00  0.00    +0.000 Cl
ENDROOT
BRANCH   1   7
ATOM      4  C   UNL     1      -0.007  10.240  20.302  0.00  0.00    +0.000 A 
ATOM      5  C   UNL     1       0.740   9.246  20.932  0.00  0.00    +0.000 A 
ATOM      6  C   UNL     1       1.599   8.424  20.185  0.00  0.00    +0.000 A 
ATOM      7  C   UNL     1       1.712   8.567  18.795  0.00  0.00    +0.000 A 
ATOM      8  C   UNL     1       0.982   9.599  18.190  0.00  0.00    +0.000 A 
ATOM      9  C   UNL     1       0.113  10.405  18.930  0.00  0.00    +0.000 A 
BRANCH   4  11
ATOM     10  C   UNL     1      -0.600  10.822  22.515  0.00  0.00    +0.000 C 
ATOM     11  O   UNL     1      -0.832  10.969  21.118  0.00  0.00    +0.000 OA
ENDBRANCH   4  11
ENDBRANCH   1   7
BRANCH   2  12
ATOM     12  C   UNL     1       3.866   5.680  17.379  0.00  0.00    +0.000 A 
ATOM     13  C   UNL     1       4.702   6.465  16.576  0.00  0.00    +0.000 A 
ATOM     14  C   UNL     1       5.642   5.863  15.738  0.00  0.00    +0.000 A 
ATOM     15  C   UNL     1       5.785   4.474  15.712  0.00  0.00    +0.000 A 
ATOM     16  C   UNL     1       4.986   3.688  16.543  0.00  0.00    +0.000 A 
ATOM     17  C   UNL     1       4.029   4.288  17.373  0.00  0.00    +0.000 A 
BRANCH  15  18
ATOM     18  O   UNL     1       6.684   4.012  14.793  0.00  0.00    +0.000 OA
ATOM     19  C   UNL     1       6.200   3.854  13.466  0.00  0.00    +0.000 C 
ENDBRANCH  15  18
ENDBRANCH   2  12
TORSDOF 4
ENDMDL
MODEL 8
REMARK VINA RESULT:      -6.6      1.473      1.996
REMARK  Name = 
REMARK  6 active torsions:
REMARK  status: ('A' for Active; 'I' for Inactive)
REMARK    1  A    between atoms: C_1  and  O_2
REMARK    2  A    between atoms: O_2  and  C_3
REMARK    3  A    between atoms: C_6  and  C_7
REMARK    4  A    between atoms: C_8  and  C_10
REMARK    5  A    between atoms: C_13  and  O_14
REMARK    6  A    between atoms: O_14  and  C_15
REMARK                            x       y       z     vdW  Elec       q    Type
REMARK                         _______ _______ _______ _____ _____    ______ ____
ROOT
ATOM      1  C   UNL     1       3.052   7.161  18.304  0.00  0.00    +0.000 C 
ATOM      2  C   UNL     1       2.379   7.022  19.466  0.00  0.00    +0.000 C 
ATOM      3 CL   UNL     1       2.220   5.564  20.370  0.00  0.00    +0.000 Cl
ENDROOT
BRANCH   1   7
ATOM      4  C   UNL     1       5.320   4.343  15.957  0.00  0.00    +0.000 A 
ATOM      5  C   UNL     1       5.611   5.707  15.927  0.00  0.00    +0.000 A 
ATOM      6  C   UNL     1       4.870   6.608  16.708  0.00  0.00    +0.000 A 
ATOM      7  C   UNL     1       3.812   6.167  17.516  0.00  0.00    +0.000 A 
ATOM      8  C   UNL     1       3.565   4.788  17.561  0.00  0.00    +0.000 A 
ATOM      9  C   UNL     1       4.290   3.893  16.771  0.00  0.00    +0.000 A 
BRANCH   4  11
ATOM     10  C   UNL     1       6.165   3.974  13.782  0.00  0.00    +0.000 C 
ATOM     11  O   UNL     1       6.085   3.555  15.140  0.00  0.00    +0.000 OA
ENDBRANCH   4  11
ENDBRANCH   1   7
BRANCH   2  12
ATOM     12  C   UNL     1       1.594   8.155  19.987  0.00  0.00    +0.000 A 
ATOM     13  C   UNL     1       1.346   9.256  19.157  0.00  0.00    +0.000 A 
ATOM     14  C   UNL     1       0.706  10.389  19.662  0.00  0.00    +0.000 A 
ATOM     15  C   UNL     1       0.277  10.430  20.990  0.00  0.00    +0.000 A 
ATOM     16  C   UNL     1       0.480   9.320  21.811  0.00  0.00    +0.000 A 
ATOM     17  C   UNL     1       1.138   8.187  21.311  0.00  0.00    +0.000 A 
BRANCH  15  18
ATOM     18  O   UNL     1      -0.263  11.624  21.377  0.00  0.00    +0.000 OA
ATOM     19  C   UNL     1      -0.945  11.630  22.624  0.00  0.00    +0.000 C 
ENDBRANCH  15  18
ENDBRANCH   2  12
TORSDOF 4
ENDMDL
MODEL 9
REMARK VINA RESULT:      -6.6      1.197      8.227
REMARK  Name = 
REMARK  6 active torsions:
REMARK  status: ('A' for Active; 'I' for Inactive)
REMARK    1  A    between atoms: C_1  and  O_2
REMARK    2  A    between atoms: O_2  and  C_3
REMARK    3  A    between atoms: C_6  and  C_7
REMARK    4  A    between atoms: C_8  and  C_10
REMARK    5  A    between atoms: C_13  and  O_14
REMARK    6  A    between atoms: O_14  and  C_15
REMARK                            x       y       z     vdW  Elec       q    Type
REMARK                         _______ _______ _______ _____ _____    ______ ____
ROOT
ATOM      1  C   UNL     1       1.932   8.110  19.467  0.00  0.00    +0.000 C 
ATOM      2  C   UNL     1       2.203   6.788  19.444  0.00  0.00    +0.000 C 
ATOM      3 CL   UNL     1       1.658   5.628  20.596  0.00  0.00    +0.000 Cl
ENDROOT
BRANCH   1   7
ATOM      4  C   UNL     1      -0.362  10.370  22.334  0.00  0.00    +0.000 A 
ATOM      5  C   UNL     1       0.577   9.425  22.745  0.00  0.00    +0.000 A 
ATOM      6  C   UNL     1       1.324   8.708  21.798  0.00  0.00    +0.000 A 
ATOM      7  C   UNL     1       1.132   8.905  20.423  0.00  0.00    +0.000 A 
ATOM      8  C   UNL     1       0.212   9.888  20.034  0.00  0.00    +0.000 A 
ATOM      9  C   UNL     1      -0.545  10.590  20.976  0.00  0.00    +0.000 A 
BRANCH   4  11
ATOM     10  C   UNL     1      -1.371  12.364  23.103  0.00  0.00    +0.000 C 
ATOM     11  O   UNL     1      -1.054  10.995  23.337  0.00  0.00    +0.000 OA
ENDBRANCH   4  11
ENDBRANCH   1   7
BRANCH   2  12
ATOM     12  C   UNL     1       3.140   6.259  18.437  0.00  0.00    +0.000 A 
ATOM     13  C   UNL     1       3.354   4.878  18.359  0.00  0.00    +0.000 A 
ATOM     14  C   UNL     1       4.320   4.362  17.495  0.00  0.00    +0.000 A 
ATOM     15  C   UNL     1       5.065   5.211  16.674  0.00  0.00    +0.000 A 
ATOM     16  C   UNL     1       4.826   6.585  16.713  0.00  0.00    +0.000 A 
ATOM     17  C   UNL     1       3.868   7.108  17.592  0.00  0.00    +0.000 A 
BRANCH  15  18
ATOM     18  O   UNL     1       6.030   4.586  15.935  0.00  0.00    +0.000 OA
ATOM     19  C   UNL     1       7.314   4.487  16.536  0.00  0.00    +0.000 C 
ENDBRANCH  15  18
ENDBRANCH   2  12
TORSDOF 4
ENDMDL
