MODEL 1
REMARK VINA RESULT:      -6.4      0.000      0.000
REMARK  Name = 
REMARK  6 active torsions:
REMARK  status: ('A' for Active; 'I' for Inactive)
REMARK    1  A    between atoms: C_1  and  O_2
REMARK    2  A    between atoms: O_2  and  C_3
REMARK    3  A    between atoms: C_8  and  C_9
REMARK    4  A    between atoms: C_14  and  C_15
REMARK    5  A    between atoms: C_25  and  O_26
REMARK    6  A    between atoms: O_26  and  C_27
REMARK                            x       y       z     vdW  Elec       q    Type
REMARK                         _______ _______ _______ _____ _____    ______ ____
ROOT
ATOM      1  C   UNL     1      -4.419  12.849  20.462  0.00  0.00    +0.000 A 
ATOM      2  C   UNL     1      -5.751  13.085  20.155  0.00  0.00    +0.000 A 
ATOM      3  S   UNL     1      -6.250  12.481  18.667  0.00  0.00    +0.000 S 
ATOM      4  C   UNL     1      -4.674  11.983  18.287  0.00  0.00    +0.000 A 
ATOM      5  N   UNL     1      -4.533  11.427  17.074  0.00  0.00    +0.000 NA
ATOM      6  C   UNL     1      -3.297  11.090  16.801  0.00  0.00    +0.000 A 
ATOM      7  N   UNL     1      -2.243  11.248  17.605  0.00  0.00    +0.000 NA
ATOM      8  C   UNL     1      -2.359  11.810  18.839  0.00  0.00    +0.000 A 
ATOM      9  N   UNL     1      -1.122  11.939  19.447  0.00  0.00    +0.000 N 
ATOM     10  C   UNL     1      -0.979  12.447  20.764  0.00  0.00    +0.000 C 
ATOM     11  C   UNL     1      -0.498  10.994  21.266  0.00  0.00    +0.000 C 
ATOM     12  C   UNL     1       0.523  10.479  20.277  0.00  0.00    +0.000 C 
ATOM     13  C   UNL     1       0.134  11.254  19.024  0.00  0.00    +0.000 C 
ATOM     14  C   UNL     1       1.241  12.294  18.730  0.00  0.00    +0.000 C 
ATOM     15  C   UNL     1       1.259  13.435  19.761  0.00  0.00    +0.000 C 
ATOM     16  C   UNL     1      -0.165  13.746  20.185  0.00  0.00    +0.000 C 
ATOM     17  C   UNL     1      -3.702  12.224  19.266  0.00  0.00    +0.000 A 
ENDROOT
BRANCH   1  23
ATOM     18  C   UNL     1      -3.435  14.649  22.052  0.00  0.00    +0.000 A 
ATOM     19  C   UNL     1      -3.044  15.023  23.354  0.00  0.00    +0.000 A 
ATOM     20  C   UNL     1      -3.222  14.159  24.427  0.00  0.00    +0.000 A 
ATOM     21  C   UNL     1      -3.711  12.888  24.194  0.00  0.00    +0.000 A 
ATOM     22  C   UNL     1      -4.024  12.487  22.888  0.00  0.00    +0.000 A 
ATOM     23  C   UNL     1      -4.020  13.366  21.809  0.00  0.00    +0.000 A 
BRANCH  18  25
ATOM     24  C   UNL     1      -4.232  16.577  20.903  0.00  0.00    +0.000 C 
ATOM     25  O   UNL     1      -3.258  15.530  21.004  0.00  0.00    +0.000 OA
ENDBRANCH  18  25
ENDBRANCH   1  23
BRANCH   6  26
ATOM     26  C   UNL     1      -3.048  10.532  15.505  0.00  0.00    +0.000 C 
ATOM     27  N   UNL     1      -2.852  10.059  14.453  0.00  0.00    +0.000 NA
ENDBRANCH   6  26
BRANCH  15  28
ATOM     28  O   UNL     1       1.943  13.143  20.981  0.00  0.00    +0.000 OA
ATOM     29  C   UNL     1       3.155  13.847  21.173  0.00  0.00    +0.000 C 
ENDBRANCH  15  28
TORSDOF 4
ENDMDL
MODEL 2
REMARK VINA RESULT:      -6.2      2.245      4.155
REMARK  Name = 
REMARK  6 active torsions:
REMARK  status: ('A' for Active; 'I' for Inactive)
REMARK    1  A    between atoms: C_1  and  O_2
REMARK    2  A    between atoms: O_2  and  C_3
REMARK    3  A    between atoms: C_8  and  C_9
REMARK    4  A    between atoms: C_14  and  C_15
REMARK    5  A    between atoms: C_25  and  O_26
REMARK    6  A    between atoms: O_26  and  C_27
REMARK                            x       y       z     vdW  Elec       q    Type
REMARK                         _______ _______ _______ _____ _____    ______ ____
ROOT
ATOM      1  C   UNL     1      -4.826  12.174  18.726  0.00  0.00    +0.000 A 
ATOM      2  C   UNL     1      -5.253  11.779  17.467  0.00  0.00    +0.000 A 
ATOM      3  S   UNL     1      -4.140  10.864  16.598  0.00  0.00    +0.000 S 
ATOM      4  C   UNL     1      -2.967  11.056  17.808  0.00  0.00    +0.000 A 
ATOM      5  N   UNL     1      -1.781  10.490  17.540  0.00  0.00    +0.000 NA
ATOM      6  C   UNL     1      -0.889  10.690  18.479  0.00  0.00    +0.000 A 
ATOM      7  N   UNL     1      -1.079  11.372  19.611  0.00  0.00    +0.000 NA
ATOM      8  C   UNL     1      -2.273  11.957  19.906  0.00  0.00    +0.000 A 
ATOM      9  N   UNL     1      -2.201  12.670  21.090  0.00  0.00    +0.000 N 
ATOM     10  C   UNL     1      -3.329  13.327  21.644  0.00  0.00    +0.000 C 
ATOM     11  C   UNL     1      -3.325  12.285  22.873  0.00  0.00    +0.000 C 
ATOM     12  C   UNL     1      -1.901  12.157  23.365  0.00  0.00    +0.000 C 
ATOM     13  C   UNL     1      -1.123  12.551  22.115  0.00  0.00    +0.000 C 
ATOM     14  C   UNL     1      -0.464  13.929  22.364  0.00  0.00    +0.000 C 
ATOM     15  C   UNL     1      -1.495  15.069  22.413  0.00  0.00    +0.000 C 
ATOM     16  C   UNL     1      -2.605  14.780  21.420  0.00  0.00    +0.000 C 
ATOM     17  C   UNL     1      -3.360  11.795  18.931  0.00  0.00    +0.000 A 
ENDROOT
BRANCH   1  23
ATOM     18  C   UNL     1      -6.705  12.410  20.501  0.00  0.00    +0.000 A 
ATOM     19  C   UNL     1      -7.681  13.216  21.121  0.00  0.00    +0.000 A 
ATOM     20  C   UNL     1      -7.837  14.550  20.765  0.00  0.00    +0.000 A 
ATOM     21  C   UNL     1      -7.078  15.063  19.730  0.00  0.00    +0.000 A 
ATOM     22  C   UNL     1      -6.163  14.240  19.057  0.00  0.00    +0.000 A 
ATOM     23  C   UNL     1      -5.855  12.952  19.485  0.00  0.00    +0.000 A 
BRANCH  18  25
ATOM     24  C   UNL     1      -7.714  10.261  20.680  0.00  0.00    +0.000 C 
ATOM     25  O   UNL     1      -6.563  11.091  20.881  0.00  0.00    +0.000 OA
ENDBRANCH  18  25
ENDBRANCH   1  23
BRANCH   6  26
ATOM     26  C   UNL     1       0.422  10.160  18.252  0.00  0.00    +0.000 C 
ATOM     27  N   UNL     1       1.489   9.711  18.078  0.00  0.00    +0.000 NA
ENDBRANCH   6  26
BRANCH  15  28
ATOM     28  O   UNL     1      -2.164  15.232  23.665  0.00  0.00    +0.000 OA
ATOM     29  C   UNL     1      -1.324  15.551  24.758  0.00  0.00    +0.000 C 
ENDBRANCH  15  28
TORSDOF 4
ENDMDL
MODEL 3
REMARK VINA RESULT:      -6.1      1.576      2.047
REMARK  Name = 
REMARK  6 active torsions:
REMARK  status: ('A' for Active; 'I' for Inactive)
REMARK    1  A    between atoms: C_1  and  O_2
REMARK    2  A    between atoms: O_2  and  C_3
REMARK    3  A    between atoms: C_8  and  C_9
REMARK    4  A    between atoms: C_14  and  C_15
REMARK    5  A    between atoms: C_25  and  O_26
REMARK    6  A    between atoms: O_26  and  C_27
REMARK                            x       y       z     vdW  Elec       q    Type
REMARK                         _______ _______ _______ _____ _____    ______ ____
ROOT
ATOM      1  C   UNL     1      -5.280  12.914  19.883  0.00  0.00    +0.000 A 
ATOM      2  C   UNL     1      -6.572  13.022  19.391  0.00  0.00    +0.000 A 
ATOM      3  S   UNL     1      -6.816  12.308  17.888  0.00  0.00    +0.000 S 
ATOM      4  C   UNL     1      -5.169  11.928  17.748  0.00  0.00    +0.000 A 
ATOM      5  N   UNL     1      -4.822  11.328  16.598  0.00  0.00    +0.000 NA
ATOM      6  C   UNL     1      -3.539  11.084  16.510  0.00  0.00    +0.000 A 
ATOM      7  N   UNL     1      -2.619  11.370  17.435  0.00  0.00    +0.000 NA
ATOM      8  C   UNL     1      -2.944  11.978  18.609  0.00  0.00    +0.000 A 
ATOM      9  N   UNL     1      -1.815  12.239  19.365  0.00  0.00    +0.000 N 
ATOM     10  C   UNL     1      -1.891  12.820  20.657  0.00  0.00    +0.000 C 
ATOM     11  C   UNL     1      -1.372  11.437  21.302  0.00  0.00    +0.000 C 
ATOM     12  C   UNL     1      -0.190  10.964  20.487  0.00  0.00    +0.000 C 
ATOM     13  C   UNL     1      -0.464  11.643  19.152  0.00  0.00    +0.000 C 
ATOM     14  C   UNL     1       0.589  12.759  18.945  0.00  0.00    +0.000 C 
ATOM     15  C   UNL     1       0.378  13.944  19.901  0.00  0.00    +0.000 C 
ATOM     16  C   UNL     1      -1.109  14.154  20.115  0.00  0.00    +0.000 C 
ATOM     17  C   UNL     1      -4.361  12.296  18.830  0.00  0.00    +0.000 A 
ENDROOT
BRANCH   1  23
ATOM     18  C   UNL     1      -5.706  13.032  22.441  0.00  0.00    +0.000 A 
ATOM     19  C   UNL     1      -5.526  13.713  23.663  0.00  0.00    +0.000 A 
ATOM     20  C   UNL     1      -4.763  14.872  23.727  0.00  0.00    +0.000 A 
ATOM     21  C   UNL     1      -4.247  15.404  22.560  0.00  0.00    +0.000 A 
ATOM     22  C   UNL     1      -4.494  14.772  21.333  0.00  0.00    +0.000 A 
ATOM     23  C   UNL     1      -5.108  13.527  21.239  0.00  0.00    +0.000 A 
BRANCH  18  25
ATOM     24  C   UNL     1      -7.804  11.997  22.890  0.00  0.00    +0.000 C 
ATOM     25  O   UNL     1      -6.460  11.876  22.405  0.00  0.00    +0.000 OA
ENDBRANCH  18  25
ENDBRANCH   1  23
BRANCH   6  26
ATOM     26  C   UNL     1      -3.073  10.489  15.293  0.00  0.00    +0.000 C 
ATOM     27  N   UNL     1      -2.712   9.996  14.295  0.00  0.00    +0.000 NA
ENDBRANCH   6  26
BRANCH  15  28
ATOM     28  O   UNL     1       0.912  13.769  21.216  0.00  0.00    +0.000 OA
ATOM     29  C   UNL     1       0.989  14.948  21.994  0.00  0.00    +0.000 C 
ENDBRANCH  15  28
TORSDOF 4
ENDMDL
MODEL 4
REMARK VINA RESULT:      -6.1      1.129      1.721
REMARK  Name = 
REMARK  6 active torsions:
REMARK  status: ('A' for Active; 'I' for Inactive)
REMARK    1  A    between atoms: C_1  and  O_2
REMARK    2  A    between atoms: O_2  and  C_3
REMARK    3  A    between atoms: C_8  and  C_9
REMARK    4  A    between atoms: C_14  and  C_15
REMARK    5  A    between atoms: C_25  and  O_26
REMARK    6  A    between atoms: O_26  and  C_27
REMARK                            x       y       z     vdW  Elec       q    Type
REMARK                         _______ _______ _______ _____ _____    ______ ____
ROOT
ATOM      1  C   UNL     1      -4.024  13.257  20.915  0.00  0.00    +0.000 A 
ATOM      2  C   UNL     1      -5.354  13.541  20.640  0.00  0.00    +0.000 A 
ATOM      3  S   UNL     1      -5.959  12.810  19.251  0.00  0.00    +0.000 S 
ATOM      4  C   UNL     1      -4.434  12.175  18.864  0.00  0.00    +0.000 A 
ATOM      5  N   UNL     1      -4.386  11.482  17.716  0.00  0.00    +0.000 NA
ATOM      6  C   UNL     1      -3.186  11.040  17.430  0.00  0.00    +0.000 A 
ATOM      7  N   UNL     1      -2.087  11.219  18.166  0.00  0.00    +0.000 NA
ATOM      8  C   UNL     1      -2.109  11.919  19.333  0.00  0.00    +0.000 A 
ATOM      9  N   UNL     1      -0.839  12.035  19.871  0.00  0.00    +0.000 N 
ATOM     10  C   UNL     1      -0.602  12.674  21.114  0.00  0.00    +0.000 C 
ATOM     11  C   UNL     1      -0.183  11.257  21.756  0.00  0.00    +0.000 C 
ATOM     12  C   UNL     1       0.757  10.573  20.789  0.00  0.00    +0.000 C 
ATOM     13  C   UNL     1       0.353  11.229  19.475  0.00  0.00    +0.000 C 
ATOM     14  C   UNL     1       1.503  12.160  19.019  0.00  0.00    +0.000 C 
ATOM     15  C   UNL     1       1.637  13.403  19.914  0.00  0.00    +0.000 C 
ATOM     16  C   UNL     1       0.256  13.848  20.360  0.00  0.00    +0.000 C 
ATOM     17  C   UNL     1      -3.404  12.460  19.767  0.00  0.00    +0.000 A 
ENDROOT
BRANCH   1  23
ATOM     18  C   UNL     1      -3.854  13.446  23.498  0.00  0.00    +0.000 A 
ATOM     19  C   UNL     1      -3.379  14.146  24.626  0.00  0.00    +0.000 A 
ATOM     20  C   UNL     1      -2.587  15.278  24.482  0.00  0.00    +0.000 A 
ATOM     21  C   UNL     1      -2.335  15.766  23.213  0.00  0.00    +0.000 A 
ATOM     22  C   UNL     1      -2.873  15.116  22.093  0.00  0.00    +0.000 A 
ATOM     23  C   UNL     1      -3.530  13.892  22.177  0.00  0.00    +0.000 A 
BRANCH  18  25
ATOM     24  C   UNL     1      -5.934  12.540  24.220  0.00  0.00    +0.000 C 
ATOM     25  O   UNL     1      -4.630  12.317  23.668  0.00  0.00    +0.000 OA
ENDBRANCH  18  25
ENDBRANCH   1  23
BRANCH   6  26
ATOM     26  C   UNL     1      -3.033  10.329  16.196  0.00  0.00    +0.000 C 
ATOM     27  N   UNL     1      -2.927   9.755  15.182  0.00  0.00    +0.000 NA
ENDBRANCH   6  26
BRANCH  15  28
ATOM     28  O   UNL     1       2.362  13.204  21.129  0.00  0.00    +0.000 OA
ATOM     29  C   UNL     1       3.159  14.298  21.539  0.00  0.00    +0.000 C 
ENDBRANCH  15  28
TORSDOF 4
ENDMDL
MODEL 5
REMARK VINA RESULT:      -5.8      3.659      7.503
REMARK  Name = 
REMARK  6 active torsions:
REMARK  status: ('A' for Active; 'I' for Inactive)
REMARK    1  A    between atoms: C_1  and  O_2
REMARK    2  A    between atoms: O_2  and  C_3
REMARK    3  A    between atoms: C_8  and  C_9
REMARK    4  A    between atoms: C_14  and  C_15
REMARK    5  A    between atoms: C_25  and  O_26
REMARK    6  A    between atoms: O_26  and  C_27
REMARK                            x       y       z     vdW  Elec       q    Type
REMARK                         _______ _______ _______ _____ _____    ______ ____
ROOT
ATOM      1  C   UNL     1       0.190  13.607  21.420  0.00  0.00    +0.000 A 
ATOM      2  C   UNL     1       1.414  14.139  21.041  0.00  0.00    +0.000 A 
ATOM      3  S   UNL     1       1.880  15.513  21.891  0.00  0.00    +0.000 S 
ATOM      4  C   UNL     1       0.404  15.554  22.727  0.00  0.00    +0.000 A 
ATOM      5  N   UNL     1       0.262  16.585  23.574  0.00  0.00    +0.000 NA
ATOM      6  C   UNL     1      -0.903  16.605  24.172  0.00  0.00    +0.000 A 
ATOM      7  N   UNL     1      -1.887  15.718  24.007  0.00  0.00    +0.000 NA
ATOM      8  C   UNL     1      -1.768  14.664  23.153  0.00  0.00    +0.000 A 
ATOM      9  N   UNL     1      -2.943  13.935  23.095  0.00  0.00    +0.000 N 
ATOM     10  C   UNL     1      -3.059  12.754  22.317  0.00  0.00    +0.000 C 
ATOM     11  C   UNL     1      -3.193  11.885  23.667  0.00  0.00    +0.000 C 
ATOM     12  C   UNL     1      -4.181  12.588  24.571  0.00  0.00    +0.000 C 
ATOM     13  C   UNL     1      -4.073  14.020  24.065  0.00  0.00    +0.000 C 
ATOM     14  C   UNL     1      -5.386  14.380  23.330  0.00  0.00    +0.000 C 
ATOM     15  C   UNL     1      -5.532  13.630  21.995  0.00  0.00    +0.000 C 
ATOM     16  C   UNL     1      -4.164  13.485  21.354  0.00  0.00    +0.000 C 
ATOM     17  C   UNL     1      -0.499  14.527  22.427  0.00  0.00    +0.000 A 
ENDROOT
BRANCH   1  23
ATOM     18  C   UNL     1      -0.073  11.035  21.192  0.00  0.00    +0.000 A 
ATOM     19  C   UNL     1      -0.392   9.923  20.385  0.00  0.00    +0.000 A 
ATOM     20  C   UNL     1      -0.814  10.092  19.072  0.00  0.00    +0.000 A 
ATOM     21  C   UNL     1      -0.839  11.364  18.532  0.00  0.00    +0.000 A 
ATOM     22  C   UNL     1      -0.445  12.463  19.308  0.00  0.00    +0.000 A 
ATOM     23  C   UNL     1      -0.174  12.364  20.670  0.00  0.00    +0.000 A 
BRANCH  18  25
ATOM     24  C   UNL     1      -0.123   9.630  23.114  0.00  0.00    +0.000 C 
ATOM     25  O   UNL     1       0.334  10.841  22.496  0.00  0.00    +0.000 OA
ENDBRANCH  18  25
ENDBRANCH   1  23
BRANCH   6  26
ATOM     26  C   UNL     1      -1.158  17.701  25.059  0.00  0.00    +0.000 C 
ATOM     27  N   UNL     1      -1.386  18.590  25.785  0.00  0.00    +0.000 NA
ENDBRANCH   6  26
BRANCH  15  28
ATOM     28  O   UNL     1      -6.027  12.293  22.098  0.00  0.00    +0.000 OA
ATOM     29  C   UNL     1      -7.436  12.171  22.066  0.00  0.00    +0.000 C 
ENDBRANCH  15  28
TORSDOF 4
ENDMDL
MODEL 6
REMARK VINA RESULT:      -5.7      1.394      2.016
REMARK  Name = 
REMARK  6 active torsions:
REMARK  status: ('A' for Active; 'I' for Inactive)
REMARK    1  A    between atoms: C_1  and  O_2
REMARK    2  A    between atoms: O_2  and  C_3
REMARK    3  A    between atoms: C_8  and  C_9
REMARK    4  A    between atoms: C_14  and  C_15
REMARK    5  A    between atoms: C_25  and  O_26
REMARK    6  A    between atoms: O_26  and  C_27
REMARK                            x       y       z     vdW  Elec       q    Type
REMARK                         _______ _______ _______ _____ _____    ______ ____
ROOT
ATOM      1  C   UNL     1      -4.054  13.068  20.906  0.00  0.00    +0.000 A 
ATOM      2  C   UNL     1      -5.428  12.895  20.827  0.00  0.00    +0.000 A 
ATOM      3  S   UNL     1      -5.951  11.998  19.504  0.00  0.00    +0.000 S 
ATOM      4  C   UNL     1      -4.374  11.902  18.886  0.00  0.00    +0.000 A 
ATOM      5  N   UNL     1      -4.265  11.258  17.713  0.00  0.00    +0.000 NA
ATOM      6  C   UNL     1      -3.040  11.237  17.249  0.00  0.00    +0.000 A 
ATOM      7  N   UNL     1      -1.967  11.773  17.834  0.00  0.00    +0.000 NA
ATOM      8  C   UNL     1      -2.052  12.432  19.023  0.00  0.00    +0.000 A 
ATOM      9  N   UNL     1      -0.828  12.965  19.387  0.00  0.00    +0.000 N 
ATOM     10  C   UNL     1      -0.639  13.652  20.613  0.00  0.00    +0.000 C 
ATOM     11  C   UNL     1       0.310  12.457  21.130  0.00  0.00    +0.000 C 
ATOM     12  C   UNL     1       1.274  12.119  20.016  0.00  0.00    +0.000 C 
ATOM     13  C   UNL     1       0.493  12.598  18.798  0.00  0.00    +0.000 C 
ATOM     14  C   UNL     1       1.197  13.854  18.231  0.00  0.00    +0.000 C 
ATOM     15  C   UNL     1       1.041  15.076  19.151  0.00  0.00    +0.000 C 
ATOM     16  C   UNL     1      -0.330  15.040  19.799  0.00  0.00    +0.000 C 
ATOM     17  C   UNL     1      -3.377  12.516  19.652  0.00  0.00    +0.000 A 
ENDROOT
BRANCH   1  23
ATOM     18  C   UNL     1      -3.244  13.250  23.365  0.00  0.00    +0.000 A 
ATOM     19  C   UNL     1      -2.902  14.065  24.464  0.00  0.00    +0.000 A 
ATOM     20  C   UNL     1      -2.919  15.450  24.357  0.00  0.00    +0.000 A 
ATOM     21  C   UNL     1      -3.359  16.029  23.181  0.00  0.00    +0.000 A 
ATOM     22  C   UNL     1      -3.776  15.220  22.116  0.00  0.00    +0.000 A 
ATOM     23  C   UNL     1      -3.621  13.837  22.116  0.00  0.00    +0.000 A 
BRANCH  18  25
ATOM     24  C   UNL     1      -1.919  11.272  23.331  0.00  0.00    +0.000 C 
ATOM     25  O   UNL     1      -3.208  11.876  23.494  0.00  0.00    +0.000 OA
ENDBRANCH  18  25
ENDBRANCH   1  23
BRANCH   6  26
ATOM     26  C   UNL     1      -2.840  10.611  15.975  0.00  0.00    +0.000 C 
ATOM     27  N   UNL     1      -2.696  10.094  14.936  0.00  0.00    +0.000 NA
ENDBRANCH   6  26
BRANCH  15  28
ATOM     28  O   UNL     1       1.957  15.134  20.247  0.00  0.00    +0.000 OA
ATOM     29  C   UNL     1       3.322  15.217  19.884  0.00  0.00    +0.000 C 
ENDBRANCH  15  28
TORSDOF 4
ENDMDL
MODEL 7
REMARK VINA RESULT:      -5.6      2.185      5.015
REMARK  Name = 
REMARK  6 active torsions:
REMARK  status: ('A' for Active; 'I' for Inactive)
REMARK    1  A    between atoms: C_1  and  O_2
REMARK    2  A    between atoms: O_2  and  C_3
REMARK    3  A    between atoms: C_8  and  C_9
REMARK    4  A    between atoms: C_14  and  C_15
REMARK    5  A    between atoms: C_25  and  O_26
REMARK    6  A    between atoms: O_26  and  C_27
REMARK                            x       y       z     vdW  Elec       q    Type
REMARK                         _______ _______ _______ _____ _____    ______ ____
ROOT
ATOM      1  C   UNL     1      -1.663  12.203  20.261  0.00  0.00    +0.000 A 
ATOM      2  C   UNL     1      -0.399  11.640  20.158  0.00  0.00    +0.000 A 
ATOM      3  S   UNL     1      -0.075  10.900  18.682  0.00  0.00    +0.000 S 
ATOM      4  C   UNL     1      -1.660  11.175  18.143  0.00  0.00    +0.000 A 
ATOM      5  N   UNL     1      -1.934  10.690  16.922  0.00  0.00    +0.000 NA
ATOM      6  C   UNL     1      -3.175  10.887  16.555  0.00  0.00    +0.000 A 
ATOM      7  N   UNL     1      -4.118  11.507  17.270  0.00  0.00    +0.000 NA
ATOM      8  C   UNL     1      -3.866  12.008  18.510  0.00  0.00    +0.000 A 
ATOM      9  N   UNL     1      -5.013  12.530  19.081  0.00  0.00    +0.000 N 
ATOM     10  C   UNL     1      -5.003  13.162  20.351  0.00  0.00    +0.000 C 
ATOM     11  C   UNL     1      -5.333  14.572  19.645  0.00  0.00    +0.000 C 
ATOM     12  C   UNL     1      -6.450  14.341  18.652  0.00  0.00    +0.000 C 
ATOM     13  C   UNL     1      -6.276  12.857  18.357  0.00  0.00    +0.000 C 
ATOM     14  C   UNL     1      -7.467  12.092  18.983  0.00  0.00    +0.000 C 
ATOM     15  C   UNL     1      -7.406  12.073  20.519  0.00  0.00    +0.000 C 
ATOM     16  C   UNL     1      -5.957  11.977  20.959  0.00  0.00    +0.000 C 
ATOM     17  C   UNL     1      -2.501  11.855  19.032  0.00  0.00    +0.000 A 
ENDROOT
BRANCH   1  23
ATOM     18  C   UNL     1      -1.479  14.216  21.891  0.00  0.00    +0.000 A 
ATOM     19  C   UNL     1      -1.707  14.751  23.175  0.00  0.00    +0.000 A 
ATOM     20  C   UNL     1      -2.349  14.004  24.155  0.00  0.00    +0.000 A 
ATOM     21  C   UNL     1      -2.691  12.692  23.886  0.00  0.00    +0.000 A 
ATOM     22  C   UNL     1      -2.391  12.133  22.635  0.00  0.00    +0.000 A 
ATOM     23  C   UNL     1      -1.902  12.886  21.572  0.00  0.00    +0.000 A 
BRANCH  18  25
ATOM     24  C   UNL     1      -1.527  16.189  20.558  0.00  0.00    +0.000 C 
ATOM     25  O   UNL     1      -0.848  14.982  20.931  0.00  0.00    +0.000 OA
ENDBRANCH  18  25
ENDBRANCH   1  23
BRANCH   6  26
ATOM     26  C   UNL     1      -3.568  10.357  15.284  0.00  0.00    +0.000 C 
ATOM     27  N   UNL     1      -3.896   9.943  14.239  0.00  0.00    +0.000 NA
ENDBRANCH   6  26
BRANCH  15  28
ATOM     28  O   UNL     1      -7.902  13.248  21.164  0.00  0.00    +0.000 OA
ATOM     29  C   UNL     1      -7.915  13.197  22.577  0.00  0.00    +0.000 C 
ENDBRANCH  15  28
TORSDOF 4
ENDMDL
MODEL 8
REMARK VINA RESULT:      -5.6      2.332      3.394
REMARK  Name = 
REMARK  6 active torsions:
REMARK  status: ('A' for Active; 'I' for Inactive)
REMARK    1  A    between atoms: C_1  and  O_2
REMARK    2  A    between atoms: O_2  and  C_3
REMARK    3  A    between atoms: C_8  and  C_9
REMARK    4  A    between atoms: C_14  and  C_15
REMARK    5  A    between atoms: C_25  and  O_26
REMARK    6  A    between atoms: O_26  and  C_27
REMARK                            x       y       z     vdW  Elec       q    Type
REMARK                         _______ _______ _______ _____ _____    ______ ____
ROOT
ATOM      1  C   UNL     1      -6.097  13.890  20.264  0.00  0.00    +0.000 A 
ATOM      2  C   UNL     1      -7.084  14.001  19.296  0.00  0.00    +0.000 A 
ATOM      3  S   UNL     1      -6.851  13.036  17.937  0.00  0.00    +0.000 S 
ATOM      4  C   UNL     1      -5.342  12.512  18.510  0.00  0.00    +0.000 A 
ATOM      5  N   UNL     1      -4.683  11.682  17.688  0.00  0.00    +0.000 NA
ATOM      6  C   UNL     1      -3.508  11.328  18.145  0.00  0.00    +0.000 A 
ATOM      7  N   UNL     1      -2.967  11.712  19.304  0.00  0.00    +0.000 NA
ATOM      8  C   UNL     1      -3.614  12.554  20.155  0.00  0.00    +0.000 A 
ATOM      9  N   UNL     1      -2.823  12.868  21.246  0.00  0.00    +0.000 N 
ATOM     10  C   UNL     1      -3.290  13.686  22.306  0.00  0.00    +0.000 C 
ATOM     11  C   UNL     1      -3.252  12.415  23.296  0.00  0.00    +0.000 C 
ATOM     12  C   UNL     1      -1.932  11.708  23.087  0.00  0.00    +0.000 C 
ATOM     13  C   UNL     1      -1.590  12.141  21.667  0.00  0.00    +0.000 C 
ATOM     14  C   UNL     1      -0.388  13.114  21.729  0.00  0.00    +0.000 C 
ATOM     15  C   UNL     1      -0.767  14.471  22.344  0.00  0.00    +0.000 C 
ATOM     16  C   UNL     1      -2.181  14.830  21.926  0.00  0.00    +0.000 C 
ATOM     17  C   UNL     1      -4.951  13.016  19.756  0.00  0.00    +0.000 A 
ENDROOT
BRANCH   1  23
ATOM     18  C   UNL     1      -7.098  14.309  22.621  0.00  0.00    +0.000 A 
ATOM     19  C   UNL     1      -7.333  15.199  23.691  0.00  0.00    +0.000 A 
ATOM     20  C   UNL     1      -6.846  16.499  23.656  0.00  0.00    +0.000 A 
ATOM     21  C   UNL     1      -6.197  16.945  22.520  0.00  0.00    +0.000 A 
ATOM     22  C   UNL     1      -6.034  16.086  21.424  0.00  0.00    +0.000 A 
ATOM     23  C   UNL     1      -6.356  14.733  21.474  0.00  0.00    +0.000 A 
BRANCH  18  25
ATOM     24  C   UNL     1      -7.167  12.255  23.825  0.00  0.00    +0.000 C 
ATOM     25  O   UNL     1      -7.584  13.019  22.685  0.00  0.00    +0.000 OA
ENDBRANCH  18  25
ENDBRANCH   1  23
BRANCH   6  26
ATOM     26  C   UNL     1      -2.713  10.480  17.307  0.00  0.00    +0.000 C 
ATOM     27  N   UNL     1      -2.077   9.772  16.627  0.00  0.00    +0.000 NA
ENDBRANCH   6  26
BRANCH  15  28
ATOM     28  O   UNL     1      -0.791  14.508  23.772  0.00  0.00    +0.000 OA
ATOM     29  C   UNL     1      -0.957  15.794  24.337  0.00  0.00    +0.000 C 
ENDBRANCH  15  28
TORSDOF 4
ENDMDL
MODEL 9
REMARK VINA RESULT:      -5.5      9.820     12.514
REMARK  Name = 
REMARK  6 active torsions:
REMARK  status: ('A' for Active; 'I' for Inactive)
REMARK    1  A    between atoms: C_1  and  O_2
REMARK    2  A    between atoms: O_2  and  C_3
REMARK    3  A    between atoms: C_8  and  C_9
REMARK    4  A    between atoms: C_14  and  C_15
REMARK    5  A    between atoms: C_25  and  O_26
REMARK    6  A    between atoms: O_26  and  C_27
REMARK                            x       y       z     vdW  Elec       q    Type
REMARK                         _______ _______ _______ _____ _____    ______ ____
ROOT
ATOM      1  C   UNL     1       8.929  12.592  21.186  0.00  0.00    +0.000 A 
ATOM      2  C   UNL     1       9.002  11.548  22.097  0.00  0.00    +0.000 A 
ATOM      3  S   UNL     1       7.896  11.636  23.362  0.00  0.00    +0.000 S 
ATOM      4  C   UNL     1       7.342  13.150  22.834  0.00  0.00    +0.000 A 
ATOM      5  N   UNL     1       6.397  13.707  23.607  0.00  0.00    +0.000 NA
ATOM      6  C   UNL     1       6.021  14.890  23.191  0.00  0.00    +0.000 A 
ATOM      7  N   UNL     1       6.484  15.529  22.114  0.00  0.00    +0.000 NA
ATOM      8  C   UNL     1       7.442  14.986  21.314  0.00  0.00    +0.000 A 
ATOM      9  N   UNL     1       7.814  15.866  20.312  0.00  0.00    +0.000 N 
ATOM     10  C   UNL     1       8.759  15.517  19.314  0.00  0.00    +0.000 C 
ATOM     11  C   UNL     1       7.592  15.555  18.204  0.00  0.00    +0.000 C 
ATOM     12  C   UNL     1       6.789  16.818  18.422  0.00  0.00    +0.000 C 
ATOM     13  C   UNL     1       7.059  17.085  19.897  0.00  0.00    +0.000 C 
ATOM     14  C   UNL     1       7.960  18.338  20.010  0.00  0.00    +0.000 C 
ATOM     15  C   UNL     1       9.392  18.075  19.515  0.00  0.00    +0.000 C 
ATOM     16  C   UNL     1       9.791  16.657  19.878  0.00  0.00    +0.000 C 
ATOM     17  C   UNL     1       7.941  13.652  21.673  0.00  0.00    +0.000 A 
ENDROOT
BRANCH   1  23
ATOM     18  C   UNL     1       9.691  11.664  18.885  0.00  0.00    +0.000 A 
ATOM     19  C   UNL     1      10.692  11.565  17.898  0.00  0.00    +0.000 A 
ATOM     20  C   UNL     1      11.898  12.240  18.035  0.00  0.00    +0.000 A 
ATOM     21  C   UNL     1      12.145  12.948  19.197  0.00  0.00    +0.000 A 
ATOM     22  C   UNL     1      11.181  12.981  20.215  0.00  0.00    +0.000 A 
ATOM     23  C   UNL     1       9.900  12.461  20.055  0.00  0.00    +0.000 A 
BRANCH  18  25
ATOM     24  C   UNL     1       8.605   9.639  18.260  0.00  0.00    +0.000 C 
ATOM     25  O   UNL     1       8.496  10.992  18.719  0.00  0.00    +0.000 OA
ENDBRANCH  18  25
ENDBRANCH   1  23
BRANCH   6  26
ATOM     26  C   UNL     1       5.048  15.579  23.986  0.00  0.00    +0.000 C 
ATOM     27  N   UNL     1       4.257  16.129  24.650  0.00  0.00    +0.000 NA
ENDBRANCH   6  26
BRANCH  15  28
ATOM     28  O   UNL     1       9.570  18.150  18.099  0.00  0.00    +0.000 OA
ATOM     29  C   UNL     1      10.910  18.049  17.657  0.00  0.00    +0.000 C 
ENDBRANCH  15  28
TORSDOF 4
ENDMDL
