MODEL 1
REMARK VINA RESULT:      -7.9      0.000      0.000
REMARK  Name = 
REMARK  1 active torsions:
REMARK  status: ('A' for Active; 'I' for Inactive)
REMARK    1  A    between atoms: C_1  and  N_2
REMARK                            x       y       z     vdW  Elec       q    Type
REMARK                         _______ _______ _______ _____ _____    ______ ____
ROOT
ATOM      1  C   UNL     1       4.051   2.222  19.604  0.00  0.00    +0.000 C 
ATOM      2  N   UNL     1       3.651   3.378  18.804  0.00  0.00    +0.000 NA
ATOM      3  C   UNL     1       2.799   4.247  19.692  0.00  0.00    +0.000 C 
ATOM      4  C   UNL     1       2.935   5.640  19.147  0.00  0.00    +0.000 A 
ATOM      5  C   UNL     1       2.311   6.816  19.485  0.00  0.00    +0.000 A 
ATOM      6  C   UNL     1       2.495   7.932  18.639  0.00  0.00    +0.000 A 
ATOM      7  C   UNL     1       3.236   7.797  17.462  0.00  0.00    +0.000 A 
ATOM      8  C   UNL     1       3.948   6.636  17.219  0.00  0.00    +0.000 A 
ATOM      9  C   UNL     1       3.893   5.600  18.144  0.00  0.00    +0.000 A 
ATOM     10  C   UNL     1       4.730   4.319  18.304  0.00  0.00    +0.000 C 
ATOM     11  C   UNL     1       5.740   4.524  19.503  0.00  0.00    +0.000 C 
ATOM     12  C   UNL     1       6.835   5.536  19.229  0.00  0.00    +0.000 C 
ATOM     13  C   UNL     1       7.666   4.991  18.099  0.00  0.00    +0.000 C 
ATOM     14  C   UNL     1       6.794   4.810  16.889  0.00  0.00    +0.000 A 
ATOM     15  C   UNL     1       7.236   5.390  15.690  0.00  0.00    +0.000 A 
ATOM     16  C   UNL     1       6.559   5.129  14.511  0.00  0.00    +0.000 A 
ATOM     17  C   UNL     1       5.489   4.230  14.535  0.00  0.00    +0.000 A 
ATOM     18  C   UNL     1       4.970   3.732  15.753  0.00  0.00    +0.000 A 
ATOM     19  C   UNL     1       5.547   4.115  16.976  0.00  0.00    +0.000 A 
ENDROOT
TORSDOF 0
ENDMDL
MODEL 2
REMARK VINA RESULT:      -6.6      1.720      4.586
REMARK  Name = 
REMARK  1 active torsions:
REMARK  status: ('A' for Active; 'I' for Inactive)
REMARK    1  A    between atoms: C_1  and  N_2
REMARK                            x       y       z     vdW  Elec       q    Type
REMARK                         _______ _______ _______ _____ _____    ______ ____
ROOT
ATOM      1  C   UNL     1       6.680   4.337  18.106  0.00  0.00    +0.000 C 
ATOM      2  N   UNL     1       5.581   5.171  18.589  0.00  0.00    +0.000 NA
ATOM      3  C   UNL     1       5.596   6.430  17.762  0.00  0.00    +0.000 C 
ATOM      4  C   UNL     1       4.186   6.947  17.785  0.00  0.00    +0.000 A 
ATOM      5  C   UNL     1       3.632   8.104  17.296  0.00  0.00    +0.000 A 
ATOM      6  C   UNL     1       2.302   8.410  17.664  0.00  0.00    +0.000 A 
ATOM      7  C   UNL     1       1.619   7.581  18.557  0.00  0.00    +0.000 A 
ATOM      8  C   UNL     1       2.164   6.365  18.930  0.00  0.00    +0.000 A 
ATOM      9  C   UNL     1       3.407   5.995  18.429  0.00  0.00    +0.000 A 
ATOM     10  C   UNL     1       4.163   4.655  18.438  0.00  0.00    +0.000 C 
ATOM     11  C   UNL     1       4.068   4.014  16.996  0.00  0.00    +0.000 C 
ATOM     12  C   UNL     1       2.677   3.544  16.614  0.00  0.00    +0.000 C 
ATOM     13  C   UNL     1       2.309   2.438  17.565  0.00  0.00    +0.000 C 
ATOM     14  C   UNL     1       2.323   2.972  18.970  0.00  0.00    +0.000 A 
ATOM     15  C   UNL     1       1.176   2.751  19.748  0.00  0.00    +0.000 A 
ATOM     16  C   UNL     1       1.186   3.080  21.092  0.00  0.00    +0.000 A 
ATOM     17  C   UNL     1       2.371   3.558  21.659  0.00  0.00    +0.000 A 
ATOM     18  C   UNL     1       3.491   3.887  20.861  0.00  0.00    +0.000 A 
ATOM     19  C   UNL     1       3.442   3.709  19.467  0.00  0.00    +0.000 A 
ENDROOT
TORSDOF 0
ENDMDL
MODEL 3
REMARK VINA RESULT:      -6.5      1.513      3.912
REMARK  Name = 
REMARK  1 active torsions:
REMARK  status: ('A' for Active; 'I' for Inactive)
REMARK    1  A    between atoms: C_1  and  N_2
REMARK                            x       y       z     vdW  Elec       q    Type
REMARK                         _______ _______ _______ _____ _____    ______ ____
ROOT
ATOM      1  C   UNL     1       2.210   7.568  18.958  0.00  0.00    +0.000 C 
ATOM      2  N   UNL     1       2.948   6.498  19.628  0.00  0.00    +0.000 NA
ATOM      3  C   UNL     1       1.945   5.723  20.442  0.00  0.00    +0.000 C 
ATOM      4  C   UNL     1       2.517   4.341  20.580  0.00  0.00    +0.000 A 
ATOM      5  C   UNL     1       2.096   3.248  21.296  0.00  0.00    +0.000 A 
ATOM      6  C   UNL     1       2.971   2.143  21.396  0.00  0.00    +0.000 A 
ATOM      7  C   UNL     1       4.248   2.214  20.834  0.00  0.00    +0.000 A 
ATOM      8  C   UNL     1       4.589   3.278  20.018  0.00  0.00    +0.000 A 
ATOM      9  C   UNL     1       3.658   4.285  19.790  0.00  0.00    +0.000 A 
ATOM     10  C   UNL     1       3.619   5.440  18.774  0.00  0.00    +0.000 C 
ATOM     11  C   UNL     1       2.594   5.069  17.629  0.00  0.00    +0.000 C 
ATOM     12  C   UNL     1       3.045   3.930  16.735  0.00  0.00    +0.000 C 
ATOM     13  C   UNL     1       4.286   4.395  16.022  0.00  0.00    +0.000 C 
ATOM     14  C   UNL     1       5.343   4.724  17.038  0.00  0.00    +0.000 A 
ATOM     15  C   UNL     1       6.602   4.127  16.867  0.00  0.00    +0.000 A 
ATOM     16  C   UNL     1       7.658   4.510  17.675  0.00  0.00    +0.000 A 
ATOM     17  C   UNL     1       7.460   5.541  18.598  0.00  0.00    +0.000 A 
ATOM     18  C   UNL     1       6.171   6.066  18.853  0.00  0.00    +0.000 A 
ATOM     19  C   UNL     1       5.057   5.574  18.151  0.00  0.00    +0.000 A 
ENDROOT
TORSDOF 0
ENDMDL
MODEL 4
REMARK VINA RESULT:      -6.3      1.408      4.772
REMARK  Name = 
REMARK  1 active torsions:
REMARK  status: ('A' for Active; 'I' for Inactive)
REMARK    1  A    between atoms: C_1  and  N_2
REMARK                            x       y       z     vdW  Elec       q    Type
REMARK                         _______ _______ _______ _____ _____    ______ ____
ROOT
ATOM      1  C   UNL     1       5.180   4.543  14.350  0.00  0.00    +0.000 C 
ATOM      2  N   UNL     1       5.672   4.341  15.712  0.00  0.00    +0.000 NA
ATOM      3  C   UNL     1       6.962   5.112  15.825  0.00  0.00    +0.000 C 
ATOM      4  C   UNL     1       7.110   5.441  17.283  0.00  0.00    +0.000 A 
ATOM      5  C   UNL     1       8.132   6.033  17.984  0.00  0.00    +0.000 A 
ATOM      6  C   UNL     1       8.067   6.013  19.395  0.00  0.00    +0.000 A 
ATOM      7  C   UNL     1       7.022   5.341  20.034  0.00  0.00    +0.000 A 
ATOM      8  C   UNL     1       5.951   4.864  19.298  0.00  0.00    +0.000 A 
ATOM      9  C   UNL     1       5.944   5.037  17.919  0.00  0.00    +0.000 A 
ATOM     10  C   UNL     1       4.836   4.861  16.866  0.00  0.00    +0.000 C 
ATOM     11  C   UNL     1       4.317   6.292  16.437  0.00  0.00    +0.000 C 
ATOM     12  C   UNL     1       3.553   7.026  17.521  0.00  0.00    +0.000 C 
ATOM     13  C   UNL     1       2.313   6.223  17.808  0.00  0.00    +0.000 C 
ATOM     14  C   UNL     1       2.712   4.852  18.275  0.00  0.00    +0.000 A 
ATOM     15  C   UNL     1       2.150   4.398  19.478  0.00  0.00    +0.000 A 
ATOM     16  C   UNL     1       2.355   3.090  19.881  0.00  0.00    +0.000 A 
ATOM     17  C   UNL     1       3.060   2.229  19.035  0.00  0.00    +0.000 A 
ATOM     18  C   UNL     1       3.723   2.707  17.881  0.00  0.00    +0.000 A 
ATOM     19  C   UNL     1       3.658   4.070  17.543  0.00  0.00    +0.000 A 
ENDROOT
TORSDOF 0
ENDMDL
MODEL 5
REMARK VINA RESULT:      -6.2      9.932     11.406
REMARK  Name = 
REMARK  1 active torsions:
REMARK  status: ('A' for Active; 'I' for Inactive)
REMARK    1  A    between atoms: C_1  and  N_2
REMARK                            x       y       z     vdW  Elec       q    Type
REMARK                         _______ _______ _______ _____ _____    ______ ____
ROOT
ATOM      1  C   UNL     1       6.361  15.055  19.017  0.00  0.00    +0.000 C 
ATOM      2  N   UNL     1       7.639  15.208  18.324  0.00  0.00    +0.000 NA
ATOM      3  C   UNL     1       7.836  16.684  18.098  0.00  0.00    +0.000 C 
ATOM      4  C   UNL     1       9.321  16.886  18.008  0.00  0.00    +0.000 A 
ATOM      5  C   UNL     1      10.074  17.995  17.710  0.00  0.00    +0.000 A 
ATOM      6  C   UNL     1      11.459  17.818  17.491  0.00  0.00    +0.000 A 
ATOM      7  C   UNL     1      12.007  16.533  17.512  0.00  0.00    +0.000 A 
ATOM      8  C   UNL     1      11.245  15.460  17.935  0.00  0.00    +0.000 A 
ATOM      9  C   UNL     1       9.923  15.672  18.310  0.00  0.00    +0.000 A 
ATOM     10  C   UNL     1       8.904  14.779  19.041  0.00  0.00    +0.000 C 
ATOM     11  C   UNL     1       8.771  15.285  20.533  0.00  0.00    +0.000 C 
ATOM     12  C   UNL     1      10.005  15.049  21.382  0.00  0.00    +0.000 C 
ATOM     13  C   UNL     1      10.192  13.560  21.484  0.00  0.00    +0.000 C 
ATOM     14  C   UNL     1      10.380  12.992  20.105  0.00  0.00    +0.000 A 
ATOM     15  C   UNL     1      11.502  12.176  19.898  0.00  0.00    +0.000 A 
ATOM     16  C   UNL     1      11.647  11.500  18.698  0.00  0.00    +0.000 A 
ATOM     17  C   UNL     1      10.626  11.592  17.747  0.00  0.00    +0.000 A 
ATOM     18  C   UNL     1       9.552  12.499  17.903  0.00  0.00    +0.000 A 
ATOM     19  C   UNL     1       9.475  13.313  19.046  0.00  0.00    +0.000 A 
ENDROOT
TORSDOF 0
ENDMDL
MODEL 6
REMARK VINA RESULT:      -6.1      1.863      4.939
REMARK  Name = 
REMARK  1 active torsions:
REMARK  status: ('A' for Active; 'I' for Inactive)
REMARK    1  A    between atoms: C_1  and  N_2
REMARK                            x       y       z     vdW  Elec       q    Type
REMARK                         _______ _______ _______ _____ _____    ______ ____
ROOT
ATOM      1  C   UNL     1       5.082   3.792  16.531  0.00  0.00    +0.000 C 
ATOM      2  N   UNL     1       4.607   4.630  17.631  0.00  0.00    +0.000 NA
ATOM      3  C   UNL     1       4.475   6.028  17.085  0.00  0.00    +0.000 C 
ATOM      4  C   UNL     1       3.436   6.699  17.936  0.00  0.00    +0.000 A 
ATOM      5  C   UNL     1       2.983   7.995  17.970  0.00  0.00    +0.000 A 
ATOM      6  C   UNL     1       2.140   8.376  19.037  0.00  0.00    +0.000 A 
ATOM      7  C   UNL     1       1.849   7.462  20.054  0.00  0.00    +0.000 A 
ATOM      8  C   UNL     1       2.220   6.136  19.922  0.00  0.00    +0.000 A 
ATOM      9  C   UNL     1       2.908   5.733  18.784  0.00  0.00    +0.000 A 
ATOM     10  C   UNL     1       3.239   4.340  18.220  0.00  0.00    +0.000 C 
ATOM     11  C   UNL     1       2.276   4.049  17.001  0.00  0.00    +0.000 C 
ATOM     12  C   UNL     1       0.823   3.852  17.389  0.00  0.00    +0.000 C 
ATOM     13  C   UNL     1       0.760   2.618  18.249  0.00  0.00    +0.000 C 
ATOM     14  C   UNL     1       1.613   2.824  19.468  0.00  0.00    +0.000 A 
ATOM     15  C   UNL     1       1.014   2.583  20.714  0.00  0.00    +0.000 A 
ATOM     16  C   UNL     1       1.788   2.605  21.862  0.00  0.00    +0.000 A 
ATOM     17  C   UNL     1       3.167   2.794  21.741  0.00  0.00    +0.000 A 
ATOM     18  C   UNL     1       3.757   3.148  20.505  0.00  0.00    +0.000 A 
ATOM     19  C   UNL     1       2.960   3.289  19.356  0.00  0.00    +0.000 A 
ENDROOT
TORSDOF 0
ENDMDL
MODEL 7
REMARK VINA RESULT:      -6.0      9.818     11.793
REMARK  Name = 
REMARK  1 active torsions:
REMARK  status: ('A' for Active; 'I' for Inactive)
REMARK    1  A    between atoms: C_1  and  N_2
REMARK                            x       y       z     vdW  Elec       q    Type
REMARK                         _______ _______ _______ _____ _____    ______ ____
ROOT
ATOM      1  C   UNL     1       6.973  14.674  17.711  0.00  0.00    +0.000 C 
ATOM      2  N   UNL     1       7.947  13.913  18.491  0.00  0.00    +0.000 NA
ATOM      3  C   UNL     1       8.525  12.872  17.568  0.00  0.00    +0.000 C 
ATOM      4  C   UNL     1       9.889  12.560  18.113  0.00  0.00    +0.000 A 
ATOM      5  C   UNL     1      10.823  11.622  17.747  0.00  0.00    +0.000 A 
ATOM      6  C   UNL     1      11.936  11.428  18.596  0.00  0.00    +0.000 A 
ATOM      7  C   UNL     1      12.023  12.130  19.801  0.00  0.00    +0.000 A 
ATOM      8  C   UNL     1      11.130  13.151  20.075  0.00  0.00    +0.000 A 
ATOM      9  C   UNL     1      10.133  13.447  19.152  0.00  0.00    +0.000 A 
ATOM     10  C   UNL     1       9.166  14.638  19.029  0.00  0.00    +0.000 C 
ATOM     11  C   UNL     1       9.677  15.582  17.868  0.00  0.00    +0.000 C 
ATOM     12  C   UNL     1      10.971  16.308  18.180  0.00  0.00    +0.000 C 
ATOM     13  C   UNL     1      10.694  17.223  19.343  0.00  0.00    +0.000 C 
ATOM     14  C   UNL     1      10.248  16.401  20.519  0.00  0.00    +0.000 A 
ATOM     15  C   UNL     1      10.925  16.603  21.732  0.00  0.00    +0.000 A 
ATOM     16  C   UNL     1      10.462  15.993  22.885  0.00  0.00    +0.000 A 
ATOM     17  C   UNL     1       9.281  15.247  22.824  0.00  0.00    +0.000 A 
ATOM     18  C   UNL     1       8.659  14.949  21.589  0.00  0.00    +0.000 A 
ATOM     19  C   UNL     1       9.209  15.428  20.388  0.00  0.00    +0.000 A 
ENDROOT
TORSDOF 0
ENDMDL
MODEL 8
REMARK VINA RESULT:      -5.9      9.872     11.450
REMARK  Name = 
REMARK  1 active torsions:
REMARK  status: ('A' for Active; 'I' for Inactive)
REMARK    1  A    between atoms: C_1  and  N_2
REMARK                            x       y       z     vdW  Elec       q    Type
REMARK                         _______ _______ _______ _____ _____    ______ ____
ROOT
ATOM      1  C   UNL     1      10.832  17.246  17.240  0.00  0.00    +0.000 C 
ATOM      2  N   UNL     1      10.937  16.362  18.400  0.00  0.00    +0.000 NA
ATOM      3  C   UNL     1      10.710  17.218  19.619  0.00  0.00    +0.000 C 
ATOM      4  C   UNL     1      10.187  16.288  20.675  0.00  0.00    +0.000 A 
ATOM      5  C   UNL     1       9.904  16.485  22.004  0.00  0.00    +0.000 A 
ATOM      6  C   UNL     1       9.624  15.351  22.799  0.00  0.00    +0.000 A 
ATOM      7  C   UNL     1       9.709  14.073  22.240  0.00  0.00    +0.000 A 
ATOM      8  C   UNL     1       9.874  13.921  20.875  0.00  0.00    +0.000 A 
ATOM      9  C   UNL     1       9.983  15.053  20.075  0.00  0.00    +0.000 A 
ATOM     10  C   UNL     1       9.925  15.243  18.549  0.00  0.00    +0.000 C 
ATOM     11  C   UNL     1       8.517  15.856  18.172  0.00  0.00    +0.000 C 
ATOM     12  C   UNL     1       7.351  14.908  18.376  0.00  0.00    +0.000 C 
ATOM     13  C   UNL     1       7.549  13.755  17.430  0.00  0.00    +0.000 C 
ATOM     14  C   UNL     1       8.849  13.074  17.749  0.00  0.00    +0.000 A 
ATOM     15  C   UNL     1       8.811  11.685  17.947  0.00  0.00    +0.000 A 
ATOM     16  C   UNL     1       9.994  10.980  18.090  0.00  0.00    +0.000 A 
ATOM     17  C   UNL     1      11.205  11.665  17.958  0.00  0.00    +0.000 A 
ATOM     18  C   UNL     1      11.250  13.076  17.872  0.00  0.00    +0.000 A 
ATOM     19  C   UNL     1      10.059  13.823  17.887  0.00  0.00    +0.000 A 
ENDROOT
TORSDOF 0
ENDMDL
MODEL 9
REMARK VINA RESULT:      -5.8      5.868      8.974
REMARK  Name = 
REMARK  1 active torsions:
REMARK  status: ('A' for Active; 'I' for Inactive)
REMARK    1  A    between atoms: C_1  and  N_2
REMARK                            x       y       z     vdW  Elec       q    Type
REMARK                         _______ _______ _______ _____ _____    ______ ____
ROOT
ATOM      1  C   UNL     1      -1.169  12.986  22.280  0.00  0.00    +0.000 C 
ATOM      2  N   UNL     1      -1.595  12.022  21.267  0.00  0.00    +0.000 NA
ATOM      3  C   UNL     1      -2.946  12.476  20.777  0.00  0.00    +0.000 C 
ATOM      4  C   UNL     1      -3.076  11.932  19.384  0.00  0.00    +0.000 A 
ATOM      5  C   UNL     1      -4.123  11.939  18.496  0.00  0.00    +0.000 A 
ATOM      6  C   UNL     1      -4.010  11.151  17.329  0.00  0.00    +0.000 A 
ATOM      7  C   UNL     1      -2.887  10.342  17.143  0.00  0.00    +0.000 A 
ATOM      8  C   UNL     1      -1.802  10.453  17.994  0.00  0.00    +0.000 A 
ATOM      9  C   UNL     1      -1.857  11.357  19.048  0.00  0.00    +0.000 A 
ATOM     10  C   UNL     1      -0.773  11.897  19.999  0.00  0.00    +0.000 C 
ATOM     11  C   UNL     1      -0.402  13.369  19.555  0.00  0.00    +0.000 C 
ATOM     12  C   UNL     1       0.327  13.453  18.228  0.00  0.00    +0.000 C 
ATOM     13  C   UNL     1       1.644  12.748  18.403  0.00  0.00    +0.000 C 
ATOM     14  C   UNL     1       1.389  11.316  18.779  0.00  0.00    +0.000 A 
ATOM     15  C   UNL     1       2.030  10.330  18.013  0.00  0.00    +0.000 A 
ATOM     16  C   UNL     1       1.960   9.004  18.403  0.00  0.00    +0.000 A 
ATOM     17  C   UNL     1       1.309   8.688  19.599  0.00  0.00    +0.000 A 
ATOM     18  C   UNL     1       0.568   9.658  20.314  0.00  0.00    +0.000 A 
ATOM     19  C   UNL     1       0.495  10.980  19.843  0.00  0.00    +0.000 A 
ENDROOT
TORSDOF 0
ENDMDL
