MODEL 1
REMARK VINA RESULT:      -8.2      0.000      0.000
REMARK  Name = 
REMARK  9 active torsions:
REMARK  status: ('A' for Active; 'I' for Inactive)
REMARK    1  A    between atoms: C_1  and  O_2
REMARK    2  A    between atoms: O_2  and  C_3
REMARK    3  A    between atoms: C_8  and  C_9
REMARK    4  A    between atoms: C_9  and  C_11
REMARK    5  A    between atoms: C_11  and  N_12
REMARK    6  A    between atoms: C_13  and  C_15
REMARK    7  A    between atoms: C_19  and  O_20
REMARK    8  A    between atoms: O_20  and  C_21
REMARK    9  A    between atoms: C_22  and  C_23
REMARK                            x       y       z     vdW  Elec       q    Type
REMARK                         _______ _______ _______ _____ _____    ______ ____
ROOT
ATOM      1  C   UNL     1       3.244   5.605  18.732  0.00  0.00    +0.000 C 
ATOM      2  C   UNL     1       2.068   5.052  17.873  0.00  0.00    +0.000 C 
ATOM      3  C   UNL     1       1.739   3.579  17.637  0.00  0.00    +0.000 C 
ATOM      4  C   UNL     1       1.574   2.594  18.786  0.00  0.00    +0.000 C 
ATOM      5  C   UNL     1       2.702   2.491  19.796  0.00  0.00    +0.000 C 
ATOM      6  C   UNL     1       2.919   3.788  20.552  0.00  0.00    +0.000 C 
ATOM      7  C   UNL     1       3.874   4.732  19.823  0.00  0.00    +0.000 C 
ENDROOT
BRANCH   1   8
ATOM      8  N   UNL     1       2.647   6.878  19.358  0.00  0.00    +0.000 N 
ATOM      9  C   UNL     1       1.613   7.054  20.252  0.00  0.00    +0.000 C 
ATOM     10  O   UNL     1       1.011   6.161  20.829  0.00  0.00    +0.000 OA
ATOM     11  H   UNL     1       3.151   7.719  19.080  0.00  0.00    +0.000 HD
BRANCH   9  12
ATOM     12  C   UNL     1       1.197   8.475  20.504  0.00  0.00    +0.000 A 
ATOM     13  C   UNL     1       1.009   8.850  21.847  0.00  0.00    +0.000 A 
ATOM     14  C   UNL     1       0.726  10.170  22.158  0.00  0.00    +0.000 A 
ATOM     15  C   UNL     1       0.639  11.110  21.137  0.00  0.00    +0.000 A 
ATOM     16  C   UNL     1       0.830  10.769  19.782  0.00  0.00    +0.000 A 
ATOM     17  C   UNL     1       1.096   9.428  19.441  0.00  0.00    +0.000 A 
ATOM     18  C   UNL     1       1.318   8.915  18.042  0.00  0.00    +0.000 C 
BRANCH  16  19
ATOM     19  O   UNL     1       0.707  11.896  19.021  0.00  0.00    +0.000 OA
ATOM     20  C   UNL     1      -0.529  12.364  18.526  0.00  0.00    +0.000 C 
ENDBRANCH  16  19
ENDBRANCH   9  12
ENDBRANCH   1   8
BRANCH   1  21
ATOM     21  C   UNL     1       4.354   6.284  17.812  0.00  0.00    +0.000 C 
ATOM     22  O   UNL     1       4.388   7.530  17.773  0.00  0.00    +0.000 OA
BRANCH  21  28
ATOM     23  C   UNL     1       6.555   4.920  17.273  0.00  0.00    +0.000 A 
ATOM     24  C   UNL     1       7.368   4.336  16.269  0.00  0.00    +0.000 A 
ATOM     25  C   UNL     1       6.983   4.299  14.935  0.00  0.00    +0.000 A 
ATOM     26  C   UNL     1       5.807   4.921  14.565  0.00  0.00    +0.000 A 
ATOM     27  C   UNL     1       5.036   5.578  15.537  0.00  0.00    +0.000 A 
ATOM     28  C   UNL     1       5.382   5.599  16.916  0.00  0.00    +0.000 A 
BRANCH  23  30
ATOM     29  C   UNL     1       7.789   5.852  19.043  0.00  0.00    +0.000 C 
ATOM     30  O   UNL     1       6.915   4.807  18.589  0.00  0.00    +0.000 OA
ENDBRANCH  23  30
ENDBRANCH  21  28
ENDBRANCH   1  21
TORSDOF 6
ENDMDL
MODEL 2
REMARK VINA RESULT:      -8.2      1.775      4.922
REMARK  Name = 
REMARK  9 active torsions:
REMARK  status: ('A' for Active; 'I' for Inactive)
REMARK    1  A    between atoms: C_1  and  O_2
REMARK    2  A    between atoms: O_2  and  C_3
REMARK    3  A    between atoms: C_8  and  C_9
REMARK    4  A    between atoms: C_9  and  C_11
REMARK    5  A    between atoms: C_11  and  N_12
REMARK    6  A    between atoms: C_13  and  C_15
REMARK    7  A    between atoms: C_19  and  O_20
REMARK    8  A    between atoms: O_20  and  C_21
REMARK    9  A    between atoms: C_22  and  C_23
REMARK                            x       y       z     vdW  Elec       q    Type
REMARK                         _______ _______ _______ _____ _____    ______ ____
ROOT
ATOM      1  C   UNL     1       4.245   4.465  17.232  0.00  0.00    +0.000 C 
ATOM      2  C   UNL     1       5.512   4.587  18.131  0.00  0.00    +0.000 C 
ATOM      3  C   UNL     1       6.943   4.242  17.723  0.00  0.00    +0.000 C 
ATOM      4  C   UNL     1       7.585   4.814  16.466  0.00  0.00    +0.000 C 
ATOM      5  C   UNL     1       6.847   4.634  15.152  0.00  0.00    +0.000 C 
ATOM      6  C   UNL     1       5.506   5.341  15.143  0.00  0.00    +0.000 C 
ATOM      7  C   UNL     1       4.384   4.468  15.706  0.00  0.00    +0.000 C 
ENDROOT
BRANCH   1   8
ATOM      8  N   UNL     1       3.385   5.660  17.683  0.00  0.00    +0.000 N 
ATOM      9  C   UNL     1       3.669   7.006  17.766  0.00  0.00    +0.000 C 
ATOM     10  O   UNL     1       4.693   7.544  17.371  0.00  0.00    +0.000 OA
ATOM     11  H   UNL     1       2.431   5.385  17.912  0.00  0.00    +0.000 HD
BRANCH   9  12
ATOM     12  C   UNL     1       2.622   7.858  18.425  0.00  0.00    +0.000 A 
ATOM     13  C   UNL     1       2.098   8.918  17.662  0.00  0.00    +0.000 A 
ATOM     14  C   UNL     1       1.057   9.680  18.168  0.00  0.00    +0.000 A 
ATOM     15  C   UNL     1       0.538   9.380  19.422  0.00  0.00    +0.000 A 
ATOM     16  C   UNL     1       1.034   8.320  20.208  0.00  0.00    +0.000 A 
ATOM     17  C   UNL     1       2.107   7.548  19.724  0.00  0.00    +0.000 A 
ATOM     18  C   UNL     1       2.743   6.390  20.450  0.00  0.00    +0.000 C 
BRANCH  16  19
ATOM     19  O   UNL     1       0.316   8.257  21.369  0.00  0.00    +0.000 OA
ATOM     20  C   UNL     1       0.326   9.281  22.340  0.00  0.00    +0.000 C 
ENDBRANCH  16  19
ENDBRANCH   9  12
ENDBRANCH   1   8
BRANCH   1  21
ATOM     21  C   UNL     1       3.301   3.283  17.732  0.00  0.00    +0.000 C 
ATOM     22  O   UNL     1       2.939   2.438  16.890  0.00  0.00    +0.000 OA
BRANCH  21  28
ATOM     23  C   UNL     1       3.396   2.710  20.313  0.00  0.00    +0.000 A 
ATOM     24  C   UNL     1       2.666   2.571  21.520  0.00  0.00    +0.000 A 
ATOM     25  C   UNL     1       1.319   2.894  21.611  0.00  0.00    +0.000 A 
ATOM     26  C   UNL     1       0.651   3.289  20.469  0.00  0.00    +0.000 A 
ATOM     27  C   UNL     1       1.343   3.348  19.248  0.00  0.00    +0.000 A 
ATOM     28  C   UNL     1       2.730   3.062  19.130  0.00  0.00    +0.000 A 
BRANCH  23  30
ATOM     29  C   UNL     1       5.146   1.207  20.760  0.00  0.00    +0.000 C 
ATOM     30  O   UNL     1       4.750   2.512  20.310  0.00  0.00    +0.000 OA
ENDBRANCH  23  30
ENDBRANCH  21  28
ENDBRANCH   1  21
TORSDOF 6
ENDMDL
MODEL 3
REMARK VINA RESULT:      -8.1      1.064      1.774
REMARK  Name = 
REMARK  9 active torsions:
REMARK  status: ('A' for Active; 'I' for Inactive)
REMARK    1  A    between atoms: C_1  and  O_2
REMARK    2  A    between atoms: O_2  and  C_3
REMARK    3  A    between atoms: C_8  and  C_9
REMARK    4  A    between atoms: C_9  and  C_11
REMARK    5  A    between atoms: C_11  and  N_12
REMARK    6  A    between atoms: C_13  and  C_15
REMARK    7  A    between atoms: C_19  and  O_20
REMARK    8  A    between atoms: O_20  and  C_21
REMARK    9  A    between atoms: C_22  and  C_23
REMARK                            x       y       z     vdW  Elec       q    Type
REMARK                         _______ _______ _______ _____ _____    ______ ____
ROOT
ATOM      1  C   UNL     1       2.950   6.063  18.734  0.00  0.00    +0.000 C 
ATOM      2  C   UNL     1       1.783   5.422  17.926  0.00  0.00    +0.000 C 
ATOM      3  C   UNL     1       1.419   3.939  17.889  0.00  0.00    +0.000 C 
ATOM      4  C   UNL     1       1.195   3.131  19.161  0.00  0.00    +0.000 C 
ATOM      5  C   UNL     1       2.290   3.146  20.210  0.00  0.00    +0.000 C 
ATOM      6  C   UNL     1       2.523   4.532  20.782  0.00  0.00    +0.000 C 
ATOM      7  C   UNL     1       3.524   5.340  19.957  0.00  0.00    +0.000 C 
ENDROOT
BRANCH   1   8
ATOM      8  N   UNL     1       2.371   7.426  19.155  0.00  0.00    +0.000 N 
ATOM      9  C   UNL     1       1.458   7.766  20.130  0.00  0.00    +0.000 C 
ATOM     10  O   UNL     1       0.990   7.005  20.962  0.00  0.00    +0.000 OA
ATOM     11  H   UNL     1       2.785   8.199  18.635  0.00  0.00    +0.000 HD
BRANCH   9  12
ATOM     12  C   UNL     1       1.000   9.197  20.131  0.00  0.00    +0.000 A 
ATOM     13  C   UNL     1       0.652   9.750  18.885  0.00  0.00    +0.000 A 
ATOM     14  C   UNL     1       0.124  11.030  18.825  0.00  0.00    +0.000 A 
ATOM     15  C   UNL     1      -0.063  11.747  20.001  0.00  0.00    +0.000 A 
ATOM     16  C   UNL     1       0.267  11.219  21.266  0.00  0.00    +0.000 A 
ATOM     17  C   UNL     1       0.827   9.929  21.348  0.00  0.00    +0.000 A 
ATOM     18  C   UNL     1       1.232   9.237  22.624  0.00  0.00    +0.000 C 
BRANCH  16  19
ATOM     19  O   UNL     1      -0.048  12.140  22.225  0.00  0.00    +0.000 OA
ATOM     20  C   UNL     1      -1.277  12.144  22.919  0.00  0.00    +0.000 C 
ENDBRANCH  16  19
ENDBRANCH   9  12
ENDBRANCH   1   8
BRANCH   1  21
ATOM     21  C   UNL     1       4.103   6.578  17.762  0.00  0.00    +0.000 C 
ATOM     22  O   UNL     1       4.099   7.785  17.450  0.00  0.00    +0.000 OA
BRANCH  21  28
ATOM     23  C   UNL     1       6.379   5.230  17.692  0.00  0.00    +0.000 A 
ATOM     24  C   UNL     1       7.285   4.483  16.900  0.00  0.00    +0.000 A 
ATOM     25  C   UNL     1       7.010   4.146  15.581  0.00  0.00    +0.000 A 
ATOM     26  C   UNL     1       5.852   4.621  15.001  0.00  0.00    +0.000 A 
ATOM     27  C   UNL     1       4.986   5.435  15.750  0.00  0.00    +0.000 A 
ATOM     28  C   UNL     1       5.219   5.765  17.113  0.00  0.00    +0.000 A 
BRANCH  23  30
ATOM     29  C   UNL     1       7.967   5.871  19.302  0.00  0.00    +0.000 C 
ATOM     30  O   UNL     1       6.633   5.416  19.024  0.00  0.00    +0.000 OA
ENDBRANCH  23  30
ENDBRANCH  21  28
ENDBRANCH   1  21
TORSDOF 6
ENDMDL
MODEL 4
REMARK VINA RESULT:      -8.1      1.783      4.400
REMARK  Name = 
REMARK  9 active torsions:
REMARK  status: ('A' for Active; 'I' for Inactive)
REMARK    1  A    between atoms: C_1  and  O_2
REMARK    2  A    between atoms: O_2  and  C_3
REMARK    3  A    between atoms: C_8  and  C_9
REMARK    4  A    between atoms: C_9  and  C_11
REMARK    5  A    between atoms: C_11  and  N_12
REMARK    6  A    between atoms: C_13  and  C_15
REMARK    7  A    between atoms: C_19  and  O_20
REMARK    8  A    between atoms: O_20  and  C_21
REMARK    9  A    between atoms: C_22  and  C_23
REMARK                            x       y       z     vdW  Elec       q    Type
REMARK                         _______ _______ _______ _____ _____    ______ ____
ROOT
ATOM      1  C   UNL     1       4.530   5.729  18.385  0.00  0.00    +0.000 C 
ATOM      2  C   UNL     1       5.662   5.597  19.447  0.00  0.00    +0.000 C 
ATOM      3  C   UNL     1       7.159   5.508  19.164  0.00  0.00    +0.000 C 
ATOM      4  C   UNL     1       7.878   6.530  18.291  0.00  0.00    +0.000 C 
ATOM      5  C   UNL     1       7.324   6.788  16.903  0.00  0.00    +0.000 C 
ATOM      6  C   UNL     1       5.924   7.369  16.940  0.00  0.00    +0.000 C 
ATOM      7  C   UNL     1       4.846   6.286  16.993  0.00  0.00    +0.000 C 
ENDROOT
BRANCH   1   8
ATOM      8  N   UNL     1       3.498   6.629  19.088  0.00  0.00    +0.000 N 
ATOM      9  C   UNL     1       2.376   7.273  18.611  0.00  0.00    +0.000 C 
ATOM     10  O   UNL     1       1.909   7.152  17.488  0.00  0.00    +0.000 OA
ATOM     11  H   UNL     1       3.673   6.710  20.088  0.00  0.00    +0.000 HD
BRANCH   9  12
ATOM     12  C   UNL     1       1.703   8.215  19.567  0.00  0.00    +0.000 A 
ATOM     13  C   UNL     1       1.420   7.717  20.852  0.00  0.00    +0.000 A 
ATOM     14  C   UNL     1       0.895   8.562  21.816  0.00  0.00    +0.000 A 
ATOM     15  C   UNL     1       0.663   9.896  21.503  0.00  0.00    +0.000 A 
ATOM     16  C   UNL     1       0.943  10.430  20.228  0.00  0.00    +0.000 A 
ATOM     17  C   UNL     1       1.455   9.583  19.225  0.00  0.00    +0.000 A 
ATOM     18  C   UNL     1       1.798  10.007  17.820  0.00  0.00    +0.000 C 
BRANCH  16  19
ATOM     19  O   UNL     1       0.634  11.760  20.228  0.00  0.00    +0.000 OA
ATOM     20  C   UNL     1      -0.609  12.265  19.793  0.00  0.00    +0.000 C 
ENDBRANCH  16  19
ENDBRANCH   9  12
ENDBRANCH   1   8
BRANCH   1  21
ATOM     21  C   UNL     1       3.668   4.392  18.299  0.00  0.00    +0.000 C 
ATOM     22  O   UNL     1       3.480   3.898  17.169  0.00  0.00    +0.000 OA
BRANCH  21  28
ATOM     23  C   UNL     1       3.540   2.721  20.345  0.00  0.00    +0.000 A 
ATOM     24  C   UNL     1       2.723   2.140  21.348  0.00  0.00    +0.000 A 
ATOM     25  C   UNL     1       1.408   2.536  21.550  0.00  0.00    +0.000 A 
ATOM     26  C   UNL     1       0.856   3.470  20.697  0.00  0.00    +0.000 A 
ATOM     27  C   UNL     1       1.628   3.990  19.647  0.00  0.00    +0.000 A 
ATOM     28  C   UNL     1       2.989   3.635  19.436  0.00  0.00    +0.000 A 
BRANCH  23  30
ATOM     29  C   UNL     1       5.208   1.195  20.990  0.00  0.00    +0.000 C 
ATOM     30  O   UNL     1       4.868   2.395  20.278  0.00  0.00    +0.000 OA
ENDBRANCH  23  30
ENDBRANCH  21  28
ENDBRANCH   1  21
TORSDOF 6
ENDMDL
MODEL 5
REMARK VINA RESULT:      -8.0      1.727      4.712
REMARK  Name = 
REMARK  9 active torsions:
REMARK  status: ('A' for Active; 'I' for Inactive)
REMARK    1  A    between atoms: C_1  and  O_2
REMARK    2  A    between atoms: O_2  and  C_3
REMARK    3  A    between atoms: C_8  and  C_9
REMARK    4  A    between atoms: C_9  and  C_11
REMARK    5  A    between atoms: C_11  and  N_12
REMARK    6  A    between atoms: C_13  and  C_15
REMARK    7  A    between atoms: C_19  and  O_20
REMARK    8  A    between atoms: O_20  and  C_21
REMARK    9  A    between atoms: C_22  and  C_23
REMARK                            x       y       z     vdW  Elec       q    Type
REMARK                         _______ _______ _______ _____ _____    ______ ____
ROOT
ATOM      1  C   UNL     1       4.467   4.308  17.467  0.00  0.00    +0.000 C 
ATOM      2  C   UNL     1       5.830   4.650  18.140  0.00  0.00    +0.000 C 
ATOM      3  C   UNL     1       7.206   4.568  17.483  0.00  0.00    +0.000 C 
ATOM      4  C   UNL     1       7.509   5.249  16.155  0.00  0.00    +0.000 C 
ATOM      5  C   UNL     1       6.597   4.947  14.981  0.00  0.00    +0.000 C 
ATOM      6  C   UNL     1       5.172   5.404  15.225  0.00  0.00    +0.000 C 
ATOM      7  C   UNL     1       4.336   4.342  15.940  0.00  0.00    +0.000 C 
ENDROOT
BRANCH   1   8
ATOM      8  N   UNL     1       3.503   5.328  18.099  0.00  0.00    +0.000 N 
ATOM      9  C   UNL     1       3.548   6.704  18.164  0.00  0.00    +0.000 C 
ATOM     10  O   UNL     1       4.365   7.417  17.602  0.00  0.00    +0.000 OA
ATOM     11  H   UNL     1       2.675   4.885  18.493  0.00  0.00    +0.000 HD
BRANCH   9  12
ATOM     12  C   UNL     1       2.505   7.356  19.026  0.00  0.00    +0.000 A 
ATOM     13  C   UNL     1       2.170   6.694  20.222  0.00  0.00    +0.000 A 
ATOM     14  C   UNL     1       1.292   7.290  21.114  0.00  0.00    +0.000 A 
ATOM     15  C   UNL     1       0.760   8.539  20.817  0.00  0.00    +0.000 A 
ATOM     16  C   UNL     1       1.081   9.233  19.633  0.00  0.00    +0.000 A 
ATOM     17  C   UNL     1       1.953   8.636  18.701  0.00  0.00    +0.000 A 
ATOM     18  C   UNL     1       2.384   9.252  17.395  0.00  0.00    +0.000 C 
BRANCH  16  19
ATOM     19  O   UNL     1       0.429  10.433  19.632  0.00  0.00    +0.000 OA
ATOM     20  C   UNL     1       0.873  11.555  20.364  0.00  0.00    +0.000 C 
ENDBRANCH  16  19
ENDBRANCH   9  12
ENDBRANCH   1   8
BRANCH   1  21
ATOM     21  C   UNL     1       3.845   2.975  18.079  0.00  0.00    +0.000 C 
ATOM     22  O   UNL     1       3.993   1.919  17.432  0.00  0.00    +0.000 OA
BRANCH  21  28
ATOM     23  C   UNL     1       3.485   2.543  20.664  0.00  0.00    +0.000 A 
ATOM     24  C   UNL     1       2.553   2.454  21.729  0.00  0.00    +0.000 A 
ATOM     25  C   UNL     1       1.208   2.753  21.560  0.00  0.00    +0.000 A 
ATOM     26  C   UNL     1       0.750   3.071  20.298  0.00  0.00    +0.000 A 
ATOM     27  C   UNL     1       1.648   3.079  19.218  0.00  0.00    +0.000 A 
ATOM     28  C   UNL     1       3.037   2.817  19.364  0.00  0.00    +0.000 A 
BRANCH  23  30
ATOM     29  C   UNL     1       5.230   0.998  20.968  0.00  0.00    +0.000 C 
ATOM     30  O   UNL     1       4.820   2.374  20.913  0.00  0.00    +0.000 OA
ENDBRANCH  23  30
ENDBRANCH  21  28
ENDBRANCH   1  21
TORSDOF 6
ENDMDL
MODEL 6
REMARK VINA RESULT:      -7.9      1.318      1.972
REMARK  Name = 
REMARK  9 active torsions:
REMARK  status: ('A' for Active; 'I' for Inactive)
REMARK    1  A    between atoms: C_1  and  O_2
REMARK    2  A    between atoms: O_2  and  C_3
REMARK    3  A    between atoms: C_8  and  C_9
REMARK    4  A    between atoms: C_9  and  C_11
REMARK    5  A    between atoms: C_11  and  N_12
REMARK    6  A    between atoms: C_13  and  C_15
REMARK    7  A    between atoms: C_19  and  O_20
REMARK    8  A    between atoms: O_20  and  C_21
REMARK    9  A    between atoms: C_22  and  C_23
REMARK                            x       y       z     vdW  Elec       q    Type
REMARK                         _______ _______ _______ _____ _____    ______ ____
ROOT
ATOM      1  C   UNL     1       2.957   5.067  19.074  0.00  0.00    +0.000 C 
ATOM      2  C   UNL     1       2.200   4.445  17.862  0.00  0.00    +0.000 C 
ATOM      3  C   UNL     1       1.630   3.031  17.784  0.00  0.00    +0.000 C 
ATOM      4  C   UNL     1       0.700   2.476  18.854  0.00  0.00    +0.000 C 
ATOM      5  C   UNL     1       1.168   2.532  20.296  0.00  0.00    +0.000 C 
ATOM      6  C   UNL     1       1.359   3.954  20.786  0.00  0.00    +0.000 C 
ATOM      7  C   UNL     1       2.757   4.491  20.480  0.00  0.00    +0.000 C 
ENDROOT
BRANCH   1   8
ATOM      8  N   UNL     1       2.510   6.540  19.042  0.00  0.00    +0.000 N 
ATOM      9  C   UNL     1       2.014   7.363  20.031  0.00  0.00    +0.000 C 
ATOM     10  O   UNL     1       1.934   7.081  21.217  0.00  0.00    +0.000 OA
ATOM     11  H   UNL     1       2.657   6.969  18.130  0.00  0.00    +0.000 HD
BRANCH   9  12
ATOM     12  C   UNL     1       1.518   8.707  19.580  0.00  0.00    +0.000 A 
ATOM     13  C   UNL     1       2.069   9.218  18.391  0.00  0.00    +0.000 A 
ATOM     14  C   UNL     1       1.583  10.403  17.862  0.00  0.00    +0.000 A 
ATOM     15  C   UNL     1       0.548  11.067  18.511  0.00  0.00    +0.000 A 
ATOM     16  C   UNL     1      -0.033  10.577  19.698  0.00  0.00    +0.000 A 
ATOM     17  C   UNL     1       0.462   9.387  20.266  0.00  0.00    +0.000 A 
ATOM     18  C   UNL     1      -0.054   8.746  21.529  0.00  0.00    +0.000 C 
BRANCH  16  19
ATOM     19  O   UNL     1      -1.032  11.425  20.084  0.00  0.00    +0.000 OA
ATOM     20  C   UNL     1      -2.038  11.883  19.207  0.00  0.00    +0.000 C 
ENDBRANCH  16  19
ENDBRANCH   9  12
ENDBRANCH   1   8
BRANCH   1  21
ATOM     21  C   UNL     1       4.500   5.275  18.740  0.00  0.00    +0.000 C 
ATOM     22  O   UNL     1       5.258   5.590  19.679  0.00  0.00    +0.000 OA
BRANCH  21  28
ATOM     23  C   UNL     1       5.966   6.133  16.711  0.00  0.00    +0.000 A 
ATOM     24  C   UNL     1       6.535   5.823  15.450  0.00  0.00    +0.000 A 
ATOM     25  C   UNL     1       6.462   4.551  14.898  0.00  0.00    +0.000 A 
ATOM     26  C   UNL     1       5.744   3.578  15.564  0.00  0.00    +0.000 A 
ATOM     27  C   UNL     1       5.102   3.895  16.772  0.00  0.00    +0.000 A 
ATOM     28  C   UNL     1       5.191   5.176  17.382  0.00  0.00    +0.000 A 
BRANCH  23  30
ATOM     29  C   UNL     1       7.566   7.625  17.569  0.00  0.00    +0.000 C 
ATOM     30  O   UNL     1       6.185   7.361  17.273  0.00  0.00    +0.000 OA
ENDBRANCH  23  30
ENDBRANCH  21  28
ENDBRANCH   1  21
TORSDOF 6
ENDMDL
MODEL 7
REMARK VINA RESULT:      -7.9      1.868      7.320
REMARK  Name = 
REMARK  9 active torsions:
REMARK  status: ('A' for Active; 'I' for Inactive)
REMARK    1  A    between atoms: C_1  and  O_2
REMARK    2  A    between atoms: O_2  and  C_3
REMARK    3  A    between atoms: C_8  and  C_9
REMARK    4  A    between atoms: C_9  and  C_11
REMARK    5  A    between atoms: C_11  and  N_12
REMARK    6  A    between atoms: C_13  and  C_15
REMARK    7  A    between atoms: C_19  and  O_20
REMARK    8  A    between atoms: O_20  and  C_21
REMARK    9  A    between atoms: C_22  and  C_23
REMARK                            x       y       z     vdW  Elec       q    Type
REMARK                         _______ _______ _______ _____ _____    ______ ____
ROOT
ATOM      1  C   UNL     1       2.869   5.229  18.300  0.00  0.00    +0.000 C 
ATOM      2  C   UNL     1       3.707   4.619  19.463  0.00  0.00    +0.000 C 
ATOM      3  C   UNL     1       3.154   3.920  20.703  0.00  0.00    +0.000 C 
ATOM      4  C   UNL     1       2.157   2.773  20.607  0.00  0.00    +0.000 C 
ATOM      5  C   UNL     1       0.892   3.002  19.801  0.00  0.00    +0.000 C 
ATOM      6  C   UNL     1       1.181   3.262  18.336  0.00  0.00    +0.000 C 
ATOM      7  C   UNL     1       1.438   4.741  18.048  0.00  0.00    +0.000 C 
ENDROOT
BRANCH   1   8
ATOM      8  N   UNL     1       3.743   4.954  17.063  0.00  0.00    +0.000 N 
ATOM      9  C   UNL     1       4.510   3.864  16.714  0.00  0.00    +0.000 C 
ATOM     10  O   UNL     1       4.555   2.802  17.318  0.00  0.00    +0.000 OA
ATOM     11  H   UNL     1       3.692   5.707  16.378  0.00  0.00    +0.000 HD
BRANCH   9  12
ATOM     12  C   UNL     1       5.373   4.030  15.495  0.00  0.00    +0.000 A 
ATOM     13  C   UNL     1       4.897   3.458  14.301  0.00  0.00    +0.000 A 
ATOM     14  C   UNL     1       5.589   3.661  13.118  0.00  0.00    +0.000 A 
ATOM     15  C   UNL     1       6.743   4.437  13.127  0.00  0.00    +0.000 A 
ATOM     16  C   UNL     1       7.242   5.031  14.304  0.00  0.00    +0.000 A 
ATOM     17  C   UNL     1       6.567   4.818  15.522  0.00  0.00    +0.000 A 
ATOM     18  C   UNL     1       6.982   5.383  16.856  0.00  0.00    +0.000 C 
BRANCH  16  19
ATOM     19  O   UNL     1       8.366   5.745  13.997  0.00  0.00    +0.000 OA
ATOM     20  C   UNL     1       8.772   6.015  12.672  0.00  0.00    +0.000 C 
ENDBRANCH  16  19
ENDBRANCH   9  12
ENDBRANCH   1   8
BRANCH   1  21
ATOM     21  C   UNL     1       2.952   6.820  18.308  0.00  0.00    +0.000 C 
ATOM     22  O   UNL     1       3.785   7.358  17.552  0.00  0.00    +0.000 OA
BRANCH  21  28
ATOM     23  C   UNL     1       1.710   9.091  18.854  0.00  0.00    +0.000 A 
ATOM     24  C   UNL     1       0.964   9.830  19.806  0.00  0.00    +0.000 A 
ATOM     25  C   UNL     1       0.545   9.277  21.008  0.00  0.00    +0.000 A 
ATOM     26  C   UNL     1       0.934   7.990  21.319  0.00  0.00    +0.000 A 
ATOM     27  C   UNL     1       1.745   7.276  20.423  0.00  0.00    +0.000 A 
ATOM     28  C   UNL     1       2.158   7.800  19.167  0.00  0.00    +0.000 A 
BRANCH  23  30
ATOM     29  C   UNL     1       2.247  11.047  17.667  0.00  0.00    +0.000 C 
ATOM     30  O   UNL     1       1.978   9.636  17.628  0.00  0.00    +0.000 OA
ENDBRANCH  23  30
ENDBRANCH  21  28
ENDBRANCH   1  21
TORSDOF 6
ENDMDL
MODEL 8
REMARK VINA RESULT:      -7.9      1.730      4.784
REMARK  Name = 
REMARK  9 active torsions:
REMARK  status: ('A' for Active; 'I' for Inactive)
REMARK    1  A    between atoms: C_1  and  O_2
REMARK    2  A    between atoms: O_2  and  C_3
REMARK    3  A    between atoms: C_8  and  C_9
REMARK    4  A    between atoms: C_9  and  C_11
REMARK    5  A    between atoms: C_11  and  N_12
REMARK    6  A    between atoms: C_13  and  C_15
REMARK    7  A    between atoms: C_19  and  O_20
REMARK    8  A    between atoms: O_20  and  C_21
REMARK    9  A    between atoms: C_22  and  C_23
REMARK                            x       y       z     vdW  Elec       q    Type
REMARK                         _______ _______ _______ _____ _____    ______ ____
ROOT
ATOM      1  C   UNL     1       4.944   5.021  17.947  0.00  0.00    +0.000 C 
ATOM      2  C   UNL     1       6.381   5.622  17.944  0.00  0.00    +0.000 C 
ATOM      3  C   UNL     1       7.510   5.255  16.983  0.00  0.00    +0.000 C 
ATOM      4  C   UNL     1       7.324   5.279  15.472  0.00  0.00    +0.000 C 
ATOM      5  C   UNL     1       6.166   4.491  14.889  0.00  0.00    +0.000 C 
ATOM      6  C   UNL     1       4.821   5.012  15.357  0.00  0.00    +0.000 C 
ATOM      7  C   UNL     1       4.379   4.377  16.676  0.00  0.00    +0.000 C 
ENDROOT
BRANCH   1   8
ATOM      8  N   UNL     1       4.069   6.217  18.362  0.00  0.00    +0.000 N 
ATOM      9  C   UNL     1       2.719   6.454  18.213  0.00  0.00    +0.000 C 
ATOM     10  O   UNL     1       1.899   5.654  17.787  0.00  0.00    +0.000 OA
ATOM     11  H   UNL     1       4.596   6.923  18.873  0.00  0.00    +0.000 HD
BRANCH   9  12
ATOM     12  C   UNL     1       2.246   7.828  18.592  0.00  0.00    +0.000 A 
ATOM     13  C   UNL     1       2.366   8.830  17.612  0.00  0.00    +0.000 A 
ATOM     14  C   UNL     1       1.856  10.095  17.858  0.00  0.00    +0.000 A 
ATOM     15  C   UNL     1       1.224  10.354  19.068  0.00  0.00    +0.000 A 
ATOM     16  C   UNL     1       1.080   9.370  20.068  0.00  0.00    +0.000 A 
ATOM     17  C   UNL     1       1.611   8.084  19.849  0.00  0.00    +0.000 A 
ATOM     18  C   UNL     1       1.538   6.936  20.823  0.00  0.00    +0.000 C 
BRANCH  16  19
ATOM     19  O   UNL     1       0.403   9.909  21.125  0.00  0.00    +0.000 OA
ATOM     20  C   UNL     1      -0.276  11.145  21.059  0.00  0.00    +0.000 C 
ENDBRANCH  16  19
ENDBRANCH   9  12
ENDBRANCH   1   8
BRANCH   1  21
ATOM     21  C   UNL     1       4.713   4.096  19.224  0.00  0.00    +0.000 C 
ATOM     22  O   UNL     1       5.719   3.737  19.866  0.00  0.00    +0.000 OA
BRANCH  21  28
ATOM     23  C   UNL     1       2.549   2.573  19.200  0.00  0.00    +0.000 A 
ATOM     24  C   UNL     1       1.368   2.188  19.882  0.00  0.00    +0.000 A 
ATOM     25  C   UNL     1       1.069   2.645  21.158  0.00  0.00    +0.000 A 
ATOM     26  C   UNL     1       1.911   3.565  21.750  0.00  0.00    +0.000 A 
ATOM     27  C   UNL     1       3.040   4.020  21.050  0.00  0.00    +0.000 A 
ATOM     28  C   UNL     1       3.395   3.542  19.759  0.00  0.00    +0.000 A 
BRANCH  23  30
ATOM     29  C   UNL     1       3.907   1.003  18.099  0.00  0.00    +0.000 C 
ATOM     30  O   UNL     1       2.866   1.988  18.004  0.00  0.00    +0.000 OA
ENDBRANCH  23  30
ENDBRANCH  21  28
ENDBRANCH   1  21
TORSDOF 6
ENDMDL
MODEL 9
REMARK VINA RESULT:      -7.9      1.912      4.291
REMARK  Name = 
REMARK  9 active torsions:
REMARK  status: ('A' for Active; 'I' for Inactive)
REMARK    1  A    between atoms: C_1  and  O_2
REMARK    2  A    between atoms: O_2  and  C_3
REMARK    3  A    between atoms: C_8  and  C_9
REMARK    4  A    between atoms: C_9  and  C_11
REMARK    5  A    between atoms: C_11  and  N_12
REMARK    6  A    between atoms: C_13  and  C_15
REMARK    7  A    between atoms: C_19  and  O_20
REMARK    8  A    between atoms: O_20  and  C_21
REMARK    9  A    between atoms: C_22  and  C_23
REMARK                            x       y       z     vdW  Elec       q    Type
REMARK                         _______ _______ _______ _____ _____    ______ ____
ROOT
ATOM      1  C   UNL     1       4.989   5.960  18.017  0.00  0.00    +0.000 C 
ATOM      2  C   UNL     1       5.926   5.607  19.211  0.00  0.00    +0.000 C 
ATOM      3  C   UNL     1       7.452   5.639  19.201  0.00  0.00    +0.000 C 
ATOM      4  C   UNL     1       8.230   6.868  18.747  0.00  0.00    +0.000 C 
ATOM      5  C   UNL     1       7.908   7.444  17.381  0.00  0.00    +0.000 C 
ATOM      6  C   UNL     1       6.482   7.952  17.291  0.00  0.00    +0.000 C 
ATOM      7  C   UNL     1       5.499   6.855  16.882  0.00  0.00    +0.000 C 
ENDROOT
BRANCH   1   8
ATOM      8  N   UNL     1       3.784   6.624  18.707  0.00  0.00    +0.000 N 
ATOM      9  C   UNL     1       2.844   7.517  18.238  0.00  0.00    +0.000 C 
ATOM     10  O   UNL     1       2.730   7.887  17.079  0.00  0.00    +0.000 OA
ATOM     11  H   UNL     1       3.656   6.295  19.662  0.00  0.00    +0.000 HD
BRANCH   9  12
ATOM     12  C   UNL     1       1.906   8.084  19.265  0.00  0.00    +0.000 A 
ATOM     13  C   UNL     1       1.632   7.277  20.384  0.00  0.00    +0.000 A 
ATOM     14  C   UNL     1       0.858   7.778  21.419  0.00  0.00    +0.000 A 
ATOM     15  C   UNL     1       0.371   9.078  21.341  0.00  0.00    +0.000 A 
ATOM     16  C   UNL     1       0.636   9.916  20.239  0.00  0.00    +0.000 A 
ATOM     17  C   UNL     1       1.400   9.419  19.164  0.00  0.00    +0.000 A 
ATOM     18  C   UNL     1       1.760  10.193  17.922  0.00  0.00    +0.000 C 
BRANCH  16  19
ATOM     19  O   UNL     1       0.050  11.130  20.456  0.00  0.00    +0.000 OA
ATOM     20  C   UNL     1      -1.196  11.497  19.904  0.00  0.00    +0.000 C 
ENDBRANCH  16  19
ENDBRANCH   9  12
ENDBRANCH   1   8
BRANCH   1  21
ATOM     21  C   UNL     1       4.262   4.659  17.455  0.00  0.00    +0.000 C 
ATOM     22  O   UNL     1       4.509   4.321  16.280  0.00  0.00    +0.000 OA
BRANCH  21  28
ATOM     23  C   UNL     1       3.446   2.851  19.206  0.00  0.00    +0.000 A 
ATOM     24  C   UNL     1       2.345   2.132  19.736  0.00  0.00    +0.000 A 
ATOM     25  C   UNL     1       1.038   2.391  19.349  0.00  0.00    +0.000 A 
ATOM     26  C   UNL     1       0.810   3.325  18.358  0.00  0.00    +0.000 A 
ATOM     27  C   UNL     1       1.898   3.982  17.763  0.00  0.00    +0.000 A 
ATOM     28  C   UNL     1       3.245   3.769  18.165  0.00  0.00    +0.000 A 
BRANCH  23  30
ATOM     29  C   UNL     1       4.761   1.618  20.713  0.00  0.00    +0.000 C 
ATOM     30  O   UNL     1       4.698   2.655  19.721  0.00  0.00    +0.000 OA
ENDBRANCH  23  30
ENDBRANCH  21  28
ENDBRANCH   1  21
TORSDOF 6
ENDMDL
