MODEL 1
REMARK VINA RESULT:      -8.0      0.000      0.000
REMARK  Name = 
REMARK  11 active torsions:
REMARK  status: ('A' for Active; 'I' for Inactive)
REMARK    1  A    between atoms: C_1  and  O_2
REMARK    2  A    between atoms: O_2  and  C_3
REMARK    3  A    between atoms: C_5  and  N_6
REMARK    4  A    between atoms: N_6  and  C_7
REMARK    5  A    between atoms: N_6  and  C_11
REMARK    6  A    between atoms: C_7  and  C_8
REMARK    7  A    between atoms: C_14  and  C_15
REMARK    8  A    between atoms: C_24  and  C_25
REMARK    9  A    between atoms: C_25  and  C_27
REMARK   10  A    between atoms: C_29  and  C_30
REMARK   11  A    between atoms: C_30  and  O_32
REMARK                            x       y       z     vdW  Elec       q    Type
REMARK                         _______ _______ _______ _____ _____    ______ ____
ROOT
ATOM      1  C   UNL     1       0.801   8.588  20.592  0.00  0.00    +0.000 A 
ATOM      2  C   UNL     1       1.525   7.377  20.631  0.00  0.00    +0.000 A 
ATOM      3  C   UNL     1       2.385   6.983  19.589  0.00  0.00    +0.000 A 
ATOM      4  C   UNL     1       2.418   7.879  18.518  0.00  0.00    +0.000 A 
ATOM      5  N   UNL     1       1.808   9.090  18.458  0.00  0.00    +0.000 NA
ATOM      6  C   UNL     1       1.037   9.445  19.516  0.00  0.00    +0.000 A 
ENDROOT
BRANCH   1   8
ATOM      7  C   UNL     1       0.514   9.400  22.810  0.00  0.00    +0.000 C 
ATOM      8  O   UNL     1      -0.046   8.778  21.651  0.00  0.00    +0.000 OA
ENDBRANCH   1   8
BRANCH   6   9
ATOM      9  C   UNL     1       0.598  10.872  19.486  0.00  0.00    +0.000 C 
ATOM     10  O   UNL     1       1.158  11.728  20.163  0.00  0.00    +0.000 OA
BRANCH   9  11
ATOM     11  C   UNL     1      -0.505  11.288  18.566  0.00  0.00    +0.000 C 
ATOM     12  C   UNL     1      -1.301  10.269  17.778  0.00  0.00    +0.000 C 
ATOM     13  C   UNL     1      -1.924  10.919  18.984  0.00  0.00    +0.000 C 
BRANCH  13  14
ATOM     14  C   UNL     1      -3.027  11.903  18.841  0.00  0.00    +0.000 C 
ATOM     15  O   UNL     1      -3.455  12.546  19.785  0.00  0.00    +0.000 OA
BRANCH  14  16
ATOM     16  O   UNL     1      -3.484  12.022  17.580  0.00  0.00    +0.000 OA
ATOM     17  H   UNL     1      -2.923  12.579  17.008  0.00  0.00    +0.000 HD
ENDBRANCH  14  16
ENDBRANCH  13  14
ENDBRANCH   9  11
ENDBRANCH   6   9
BRANCH   3  18
ATOM     18  N   UNL     1       3.025   5.724  19.573  0.00  0.00    +0.000 N 
BRANCH  18  19
ATOM     19  C   UNL     1       3.798   5.186  18.469  0.00  0.00    +0.000 A 
ATOM     20  C   UNL     1       3.131   4.638  17.348  0.00  0.00    +0.000 A 
ATOM     21  C   UNL     1       3.821   4.047  16.292  0.00  0.00    +0.000 A 
ATOM     22  C   UNL     1       5.215   4.016  16.283  0.00  0.00    +0.000 A 
ATOM     23  C   UNL     1       5.903   3.321  15.133  0.00  0.00    +0.000 C 
ATOM     24  C   UNL     1       5.938   4.611  17.347  0.00  0.00    +0.000 A 
ATOM     25  C   UNL     1       7.349   4.654  17.335  0.00  0.00    +0.000 A 
ATOM     26  C   UNL     1       8.090   5.207  18.377  0.00  0.00    +0.000 A 
ATOM     27  C   UNL     1       7.431   5.686  19.491  0.00  0.00    +0.000 A 
ATOM     28  C   UNL     1       6.039   5.627  19.539  0.00  0.00    +0.000 A 
ATOM     29  C   UNL     1       5.238   5.162  18.466  0.00  0.00    +0.000 A 
ENDBRANCH  18  19
BRANCH  18  30
ATOM     30  C   UNL     1       2.888   4.742  20.700  0.00  0.00    +0.000 C 
BRANCH  30  31
ATOM     31  C   UNL     1       2.286   3.394  20.410  0.00  0.00    +0.000 C 
ATOM     32  C   UNL     1       1.344   2.712  21.378  0.00  0.00    +0.000 C 
ATOM     33  C   UNL     1       0.810   3.289  20.103  0.00  0.00    +0.000 C 
ENDBRANCH  30  31
ENDBRANCH  18  30
ENDBRANCH   3  18
TORSDOF 9
ENDMDL
MODEL 2
REMARK VINA RESULT:      -7.8      1.203      1.898
REMARK  Name = 
REMARK  11 active torsions:
REMARK  status: ('A' for Active; 'I' for Inactive)
REMARK    1  A    between atoms: C_1  and  O_2
REMARK    2  A    between atoms: O_2  and  C_3
REMARK    3  A    between atoms: C_5  and  N_6
REMARK    4  A    between atoms: N_6  and  C_7
REMARK    5  A    between atoms: N_6  and  C_11
REMARK    6  A    between atoms: C_7  and  C_8
REMARK    7  A    between atoms: C_14  and  C_15
REMARK    8  A    between atoms: C_24  and  C_25
REMARK    9  A    between atoms: C_25  and  C_27
REMARK   10  A    between atoms: C_29  and  C_30
REMARK   11  A    between atoms: C_30  and  O_32
REMARK                            x       y       z     vdW  Elec       q    Type
REMARK                         _______ _______ _______ _____ _____    ______ ____
ROOT
ATOM      1  C   UNL     1       1.723   9.094  18.698  0.00  0.00    +0.000 A 
ATOM      2  C   UNL     1       2.299   7.809  18.603  0.00  0.00    +0.000 A 
ATOM      3  C   UNL     1       2.282   6.896  19.674  0.00  0.00    +0.000 A 
ATOM      4  C   UNL     1       1.679   7.398  20.830  0.00  0.00    +0.000 A 
ATOM      5  N   UNL     1       1.042   8.589  20.957  0.00  0.00    +0.000 NA
ATOM      6  C   UNL     1       1.039   9.407  19.874  0.00  0.00    +0.000 A 
ENDROOT
BRANCH   1   8
ATOM      7  C   UNL     1       2.496  11.159  17.807  0.00  0.00    +0.000 C 
ATOM      8  O   UNL     1       1.897   9.879  17.591  0.00  0.00    +0.000 OA
ENDBRANCH   1   8
BRANCH   6   9
ATOM      9  C   UNL     1       0.125  10.579  20.011  0.00  0.00    +0.000 C 
ATOM     10  O   UNL     1       0.475  11.598  20.598  0.00  0.00    +0.000 OA
BRANCH   9  11
ATOM     11  C   UNL     1      -1.225  10.546  19.367  0.00  0.00    +0.000 C 
ATOM     12  C   UNL     1      -2.110  11.774  19.330  0.00  0.00    +0.000 C 
ATOM     13  C   UNL     1      -1.391  11.343  18.079  0.00  0.00    +0.000 C 
BRANCH  13  14
ATOM     14  C   UNL     1      -2.132  10.763  16.930  0.00  0.00    +0.000 C 
ATOM     15  O   UNL     1      -1.895   9.649  16.495  0.00  0.00    +0.000 OA
BRANCH  14  16
ATOM     16  O   UNL     1      -3.086  11.576  16.438  0.00  0.00    +0.000 OA
ATOM     17  H   UNL     1      -3.102  12.461  16.849  0.00  0.00    +0.000 HD
ENDBRANCH  14  16
ENDBRANCH  13  14
ENDBRANCH   9  11
ENDBRANCH   6   9
BRANCH   3  18
ATOM     18  N   UNL     1       2.952   5.655  19.620  0.00  0.00    +0.000 N 
BRANCH  18  19
ATOM     19  C   UNL     1       3.715   5.157  18.490  0.00  0.00    +0.000 A 
ATOM     20  C   UNL     1       3.038   4.624  17.369  0.00  0.00    +0.000 A 
ATOM     21  C   UNL     1       3.719   4.071  16.287  0.00  0.00    +0.000 A 
ATOM     22  C   UNL     1       5.114   4.065  16.252  0.00  0.00    +0.000 A 
ATOM     23  C   UNL     1       5.793   3.411  15.074  0.00  0.00    +0.000 C 
ATOM     24  C   UNL     1       5.844   4.648  17.318  0.00  0.00    +0.000 A 
ATOM     25  C   UNL     1       7.254   4.717  17.282  0.00  0.00    +0.000 A 
ATOM     26  C   UNL     1       8.003   5.259  18.324  0.00  0.00    +0.000 A 
ATOM     27  C   UNL     1       7.356   5.699  19.461  0.00  0.00    +0.000 A 
ATOM     28  C   UNL     1       5.967   5.613  19.532  0.00  0.00    +0.000 A 
ATOM     29  C   UNL     1       5.154   5.159  18.462  0.00  0.00    +0.000 A 
ENDBRANCH  18  19
BRANCH  18  30
ATOM     30  C   UNL     1       2.863   4.649  20.731  0.00  0.00    +0.000 C 
BRANCH  30  31
ATOM     31  C   UNL     1       2.274   3.297  20.431  0.00  0.00    +0.000 C 
ATOM     32  C   UNL     1       1.317   2.612  21.381  0.00  0.00    +0.000 C 
ATOM     33  C   UNL     1       0.804   3.184  20.096  0.00  0.00    +0.000 C 
ENDBRANCH  30  31
ENDBRANCH  18  30
ENDBRANCH   3  18
TORSDOF 9
ENDMDL
MODEL 3
REMARK VINA RESULT:      -7.5      3.578      8.647
REMARK  Name = 
REMARK  11 active torsions:
REMARK  status: ('A' for Active; 'I' for Inactive)
REMARK    1  A    between atoms: C_1  and  O_2
REMARK    2  A    between atoms: O_2  and  C_3
REMARK    3  A    between atoms: C_5  and  N_6
REMARK    4  A    between atoms: N_6  and  C_7
REMARK    5  A    between atoms: N_6  and  C_11
REMARK    6  A    between atoms: C_7  and  C_8
REMARK    7  A    between atoms: C_14  and  C_15
REMARK    8  A    between atoms: C_24  and  C_25
REMARK    9  A    between atoms: C_25  and  C_27
REMARK   10  A    between atoms: C_29  and  C_30
REMARK   11  A    between atoms: C_30  and  O_32
REMARK                            x       y       z     vdW  Elec       q    Type
REMARK                         _______ _______ _______ _____ _____    ______ ____
ROOT
ATOM      1  C   UNL     1       3.241   5.871  19.181  0.00  0.00    +0.000 A 
ATOM      2  C   UNL     1       2.344   6.742  19.836  0.00  0.00    +0.000 A 
ATOM      3  C   UNL     1       1.950   7.972  19.279  0.00  0.00    +0.000 A 
ATOM      4  C   UNL     1       2.556   8.254  18.052  0.00  0.00    +0.000 A 
ATOM      5  N   UNL     1       3.361   7.426  17.340  0.00  0.00    +0.000 NA
ATOM      6  C   UNL     1       3.662   6.226  17.898  0.00  0.00    +0.000 A 
ENDROOT
BRANCH   1   8
ATOM      7  C   UNL     1       2.536   4.169  20.685  0.00  0.00    +0.000 C 
ATOM      8  O   UNL     1       3.575   4.754  19.898  0.00  0.00    +0.000 OA
ENDBRANCH   1   8
BRANCH   6   9
ATOM      9  C   UNL     1       4.346   5.285  16.964  0.00  0.00    +0.000 C 
ATOM     10  O   UNL     1       3.984   4.118  16.851  0.00  0.00    +0.000 OA
BRANCH   9  11
ATOM     11  C   UNL     1       5.458   5.781  16.095  0.00  0.00    +0.000 C 
ATOM     12  C   UNL     1       6.884   5.848  16.601  0.00  0.00    +0.000 C 
ATOM     13  C   UNL     1       6.490   4.753  15.647  0.00  0.00    +0.000 C 
BRANCH  13  14
ATOM     14  C   UNL     1       6.979   4.744  14.245  0.00  0.00    +0.000 C 
ATOM     15  O   UNL     1       6.509   4.010  13.393  0.00  0.00    +0.000 OA
BRANCH  14  16
ATOM     16  O   UNL     1       7.967   5.629  14.013  0.00  0.00    +0.000 OA
ATOM     17  H   UNL     1       7.833   6.170  13.213  0.00  0.00    +0.000 HD
ENDBRANCH  14  16
ENDBRANCH  13  14
ENDBRANCH   9  11
ENDBRANCH   6   9
BRANCH   3  18
ATOM     18  N   UNL     1       1.141   8.895  19.980  0.00  0.00    +0.000 N 
BRANCH  18  19
ATOM     19  C   UNL     1       0.823  10.240  19.540  0.00  0.00    +0.000 A 
ATOM     20  C   UNL     1       1.708  11.302  19.839  0.00  0.00    +0.000 A 
ATOM     21  C   UNL     1       1.420  12.623  19.502  0.00  0.00    +0.000 A 
ATOM     22  C   UNL     1       0.254  12.941  18.806  0.00  0.00    +0.000 A 
ATOM     23  C   UNL     1      -0.023  14.395  18.510  0.00  0.00    +0.000 C 
ATOM     24  C   UNL     1      -0.636  11.908  18.420  0.00  0.00    +0.000 A 
ATOM     25  C   UNL     1      -1.791  12.190  17.658  0.00  0.00    +0.000 A 
ATOM     26  C   UNL     1      -2.700  11.202  17.284  0.00  0.00    +0.000 A 
ATOM     27  C   UNL     1      -2.501   9.907  17.714  0.00  0.00    +0.000 A 
ATOM     28  C   UNL     1      -1.383   9.610  18.493  0.00  0.00    +0.000 A 
ATOM     29  C   UNL     1      -0.381  10.558  18.818  0.00  0.00    +0.000 A 
ENDBRANCH  18  19
BRANCH  18  30
ATOM     30  C   UNL     1       0.585   8.597  21.342  0.00  0.00    +0.000 C 
BRANCH  30  31
ATOM     31  C   UNL     1       0.557   9.702  22.364  0.00  0.00    +0.000 C 
ATOM     32  C   UNL     1      -0.714  10.453  22.696  0.00  0.00    +0.000 C 
ATOM     33  C   UNL     1      -0.148   9.478  23.682  0.00  0.00    +0.000 C 
ENDBRANCH  30  31
ENDBRANCH  18  30
ENDBRANCH   3  18
TORSDOF 9
ENDMDL
MODEL 4
REMARK VINA RESULT:      -7.5      4.075      8.195
REMARK  Name = 
REMARK  11 active torsions:
REMARK  status: ('A' for Active; 'I' for Inactive)
REMARK    1  A    between atoms: C_1  and  O_2
REMARK    2  A    between atoms: O_2  and  C_3
REMARK    3  A    between atoms: C_5  and  N_6
REMARK    4  A    between atoms: N_6  and  C_7
REMARK    5  A    between atoms: N_6  and  C_11
REMARK    6  A    between atoms: C_7  and  C_8
REMARK    7  A    between atoms: C_14  and  C_15
REMARK    8  A    between atoms: C_24  and  C_25
REMARK    9  A    between atoms: C_25  and  C_27
REMARK   10  A    between atoms: C_29  and  C_30
REMARK   11  A    between atoms: C_30  and  O_32
REMARK                            x       y       z     vdW  Elec       q    Type
REMARK                         _______ _______ _______ _____ _____    ______ ____
ROOT
ATOM      1  C   UNL     1       5.720   6.477  17.339  0.00  0.00    +0.000 A 
ATOM      2  C   UNL     1       4.654   6.925  18.148  0.00  0.00    +0.000 A 
ATOM      3  C   UNL     1       3.743   6.038  18.749  0.00  0.00    +0.000 A 
ATOM      4  C   UNL     1       3.975   4.696  18.436  0.00  0.00    +0.000 A 
ATOM      5  N   UNL     1       5.023   4.201  17.730  0.00  0.00    +0.000 NA
ATOM      6  C   UNL     1       5.905   5.099  17.223  0.00  0.00    +0.000 A 
ENDROOT
BRANCH   1   8
ATOM      7  C   UNL     1       7.619   7.901  17.500  0.00  0.00    +0.000 C 
ATOM      8  O   UNL     1       6.464   7.478  16.773  0.00  0.00    +0.000 OA
ENDBRANCH   1   8
BRANCH   6   9
ATOM      9  C   UNL     1       7.145   4.476  16.673  0.00  0.00    +0.000 C 
ATOM     10  O   UNL     1       8.115   4.241  17.387  0.00  0.00    +0.000 OA
BRANCH   9  11
ATOM     11  C   UNL     1       7.193   4.066  15.235  0.00  0.00    +0.000 C 
ATOM     12  C   UNL     1       5.943   4.042  14.381  0.00  0.00    +0.000 C 
ATOM     13  C   UNL     1       6.937   5.157  14.202  0.00  0.00    +0.000 C 
BRANCH  13  14
ATOM     14  C   UNL     1       7.780   5.246  12.982  0.00  0.00    +0.000 C 
ATOM     15  O   UNL     1       8.788   5.931  12.932  0.00  0.00    +0.000 OA
BRANCH  14  16
ATOM     16  O   UNL     1       7.332   4.490  11.962  0.00  0.00    +0.000 OA
ATOM     17  H   UNL     1       7.696   4.745  11.092  0.00  0.00    +0.000 HD
ENDBRANCH  14  16
ENDBRANCH  13  14
ENDBRANCH   9  11
ENDBRANCH   6   9
BRANCH   3  18
ATOM     18  N   UNL     1       2.613   6.486  19.468  0.00  0.00    +0.000 N 
BRANCH  18  19
ATOM     19  C   UNL     1       1.902   7.729  19.231  0.00  0.00    +0.000 A 
ATOM     20  C   UNL     1       1.732   8.198  17.907  0.00  0.00    +0.000 A 
ATOM     21  C   UNL     1       1.119   9.417  17.627  0.00  0.00    +0.000 A 
ATOM     22  C   UNL     1       0.603  10.206  18.654  0.00  0.00    +0.000 A 
ATOM     23  C   UNL     1      -0.009  11.537  18.290  0.00  0.00    +0.000 C 
ATOM     24  C   UNL     1       0.684   9.754  19.995  0.00  0.00    +0.000 A 
ATOM     25  C   UNL     1       0.112  10.498  21.050  0.00  0.00    +0.000 A 
ATOM     26  C   UNL     1       0.197  10.095  22.381  0.00  0.00    +0.000 A 
ATOM     27  C   UNL     1       0.908   8.955  22.696  0.00  0.00    +0.000 A 
ATOM     28  C   UNL     1       1.506   8.220  21.673  0.00  0.00    +0.000 A 
ATOM     29  C   UNL     1       1.369   8.535  20.298  0.00  0.00    +0.000 A 
ENDBRANCH  18  19
BRANCH  18  30
ATOM     30  C   UNL     1       2.069   5.739  20.651  0.00  0.00    +0.000 C 
BRANCH  30  31
ATOM     31  C   UNL     1       0.954   4.754  20.429  0.00  0.00    +0.000 C 
ATOM     32  C   UNL     1       1.074   3.621  19.433  0.00  0.00    +0.000 C 
ATOM     33  C   UNL     1       1.118   3.327  20.901  0.00  0.00    +0.000 C 
ENDBRANCH  30  31
ENDBRANCH  18  30
ENDBRANCH   3  18
TORSDOF 9
ENDMDL
MODEL 5
REMARK VINA RESULT:      -7.4      1.519      3.889
REMARK  Name = 
REMARK  11 active torsions:
REMARK  status: ('A' for Active; 'I' for Inactive)
REMARK    1  A    between atoms: C_1  and  O_2
REMARK    2  A    between atoms: O_2  and  C_3
REMARK    3  A    between atoms: C_5  and  N_6
REMARK    4  A    between atoms: N_6  and  C_7
REMARK    5  A    between atoms: N_6  and  C_11
REMARK    6  A    between atoms: C_7  and  C_8
REMARK    7  A    between atoms: C_14  and  C_15
REMARK    8  A    between atoms: C_24  and  C_25
REMARK    9  A    between atoms: C_25  and  C_27
REMARK   10  A    between atoms: C_29  and  C_30
REMARK   11  A    between atoms: C_30  and  O_32
REMARK                            x       y       z     vdW  Elec       q    Type
REMARK                         _______ _______ _______ _____ _____    ______ ____
ROOT
ATOM      1  C   UNL     1       1.356   8.576  19.861  0.00  0.00    +0.000 A 
ATOM      2  C   UNL     1       2.290   7.578  19.511  0.00  0.00    +0.000 A 
ATOM      3  C   UNL     1       2.940   7.562  18.263  0.00  0.00    +0.000 A 
ATOM      4  C   UNL     1       2.544   8.594  17.409  0.00  0.00    +0.000 A 
ATOM      5  N   UNL     1       1.713   9.622  17.716  0.00  0.00    +0.000 NA
ATOM      6  C   UNL     1       1.159   9.620  18.955  0.00  0.00    +0.000 A 
ENDROOT
BRANCH   1   8
ATOM      7  C   UNL     1       1.373   9.063  22.189  0.00  0.00    +0.000 C 
ATOM      8  O   UNL     1       0.763   8.397  21.082  0.00  0.00    +0.000 OA
ENDBRANCH   1   8
BRANCH   6   9
ATOM      9  C   UNL     1       0.457  10.891  19.300  0.00  0.00    +0.000 C 
ATOM     10  O   UNL     1       1.077  11.892  19.643  0.00  0.00    +0.000 OA
BRANCH   9  11
ATOM     11  C   UNL     1      -1.031  10.975  19.167  0.00  0.00    +0.000 C 
ATOM     12  C   UNL     1      -1.788  12.224  19.567  0.00  0.00    +0.000 C 
ATOM     13  C   UNL     1      -1.572  11.929  18.108  0.00  0.00    +0.000 C 
BRANCH  13  14
ATOM     14  C   UNL     1      -2.699  11.515  17.234  0.00  0.00    +0.000 C 
ATOM     15  O   UNL     1      -3.833  11.367  17.656  0.00  0.00    +0.000 OA
BRANCH  14  16
ATOM     16  O   UNL     1      -2.346  11.341  15.946  0.00  0.00    +0.000 OA
ATOM     17  H   UNL     1      -1.571  10.761  15.823  0.00  0.00    +0.000 HD
ENDBRANCH  14  16
ENDBRANCH  13  14
ENDBRANCH   9  11
ENDBRANCH   6   9
BRANCH   3  18
ATOM     18  N   UNL     1       3.791   6.506  17.867  0.00  0.00    +0.000 N 
BRANCH  18  19
ATOM     19  C   UNL     1       3.964   5.252  18.577  0.00  0.00    +0.000 A 
ATOM     20  C   UNL     1       5.182   4.990  19.247  0.00  0.00    +0.000 A 
ATOM     21  C   UNL     1       5.429   3.776  19.885  0.00  0.00    +0.000 A 
ATOM     22  C   UNL     1       4.451   2.782  19.926  0.00  0.00    +0.000 A 
ATOM     23  C   UNL     1       4.795   1.473  20.594  0.00  0.00    +0.000 C 
ATOM     24  C   UNL     1       3.186   3.018  19.330  0.00  0.00    +0.000 A 
ATOM     25  C   UNL     1       2.154   2.057  19.411  0.00  0.00    +0.000 A 
ATOM     26  C   UNL     1       0.909   2.246  18.815  0.00  0.00    +0.000 A 
ATOM     27  C   UNL     1       0.685   3.386  18.070  0.00  0.00    +0.000 A 
ATOM     28  C   UNL     1       1.700   4.334  17.951  0.00  0.00    +0.000 A 
ATOM     29  C   UNL     1       2.947   4.234  18.617  0.00  0.00    +0.000 A 
ENDBRANCH  18  19
BRANCH  18  30
ATOM     30  C   UNL     1       4.703   6.616  16.680  0.00  0.00    +0.000 C 
BRANCH  30  31
ATOM     31  C   UNL     1       4.991   5.376  15.877  0.00  0.00    +0.000 C 
ATOM     32  C   UNL     1       5.919   5.393  14.682  0.00  0.00    +0.000 C 
ATOM     33  C   UNL     1       6.361   4.741  15.956  0.00  0.00    +0.000 C 
ENDBRANCH  30  31
ENDBRANCH  18  30
ENDBRANCH   3  18
TORSDOF 9
ENDMDL
MODEL 6
REMARK VINA RESULT:      -7.4      1.410      2.552
REMARK  Name = 
REMARK  11 active torsions:
REMARK  status: ('A' for Active; 'I' for Inactive)
REMARK    1  A    between atoms: C_1  and  O_2
REMARK    2  A    between atoms: O_2  and  C_3
REMARK    3  A    between atoms: C_5  and  N_6
REMARK    4  A    between atoms: N_6  and  C_7
REMARK    5  A    between atoms: N_6  and  C_11
REMARK    6  A    between atoms: C_7  and  C_8
REMARK    7  A    between atoms: C_14  and  C_15
REMARK    8  A    between atoms: C_24  and  C_25
REMARK    9  A    between atoms: C_25  and  C_27
REMARK   10  A    between atoms: C_29  and  C_30
REMARK   11  A    between atoms: C_30  and  O_32
REMARK                            x       y       z     vdW  Elec       q    Type
REMARK                         _______ _______ _______ _____ _____    ______ ____
ROOT
ATOM      1  C   UNL     1       0.837   8.729  20.601  0.00  0.00    +0.000 A 
ATOM      2  C   UNL     1       1.522   7.496  20.638  0.00  0.00    +0.000 A 
ATOM      3  C   UNL     1       2.323   7.049  19.571  0.00  0.00    +0.000 A 
ATOM      4  C   UNL     1       2.339   7.918  18.477  0.00  0.00    +0.000 A 
ATOM      5  N   UNL     1       1.766   9.147  18.414  0.00  0.00    +0.000 NA
ATOM      6  C   UNL     1       1.053   9.553  19.495  0.00  0.00    +0.000 A 
ENDROOT
BRANCH   1   8
ATOM      7  C   UNL     1       0.708   9.407  22.877  0.00  0.00    +0.000 C 
ATOM      8  O   UNL     1       0.043   8.972  21.689  0.00  0.00    +0.000 OA
ENDBRANCH   1   8
BRANCH   6   9
ATOM      9  C   UNL     1       0.660  10.992  19.448  0.00  0.00    +0.000 C 
ATOM     10  O   UNL     1      -0.488  11.350  19.692  0.00  0.00    +0.000 OA
BRANCH   9  11
ATOM     11  C   UNL     1       1.694  12.034  19.159  0.00  0.00    +0.000 C 
ATOM     12  C   UNL     1       1.310  13.398  18.627  0.00  0.00    +0.000 C 
ATOM     13  C   UNL     1       1.710  13.255  20.070  0.00  0.00    +0.000 C 
BRANCH  13  14
ATOM     14  C   UNL     1       2.999  13.802  20.567  0.00  0.00    +0.000 C 
ATOM     15  O   UNL     1       3.409  13.587  21.695  0.00  0.00    +0.000 OA
BRANCH  14  16
ATOM     16  O   UNL     1       3.663  14.532  19.651  0.00  0.00    +0.000 OA
ATOM     17  H   UNL     1       4.511  14.892  19.973  0.00  0.00    +0.000 HD
ENDBRANCH  14  16
ENDBRANCH  13  14
ENDBRANCH   9  11
ENDBRANCH   6   9
BRANCH   3  18
ATOM     18  N   UNL     1       2.920   5.769  19.558  0.00  0.00    +0.000 N 
BRANCH  18  19
ATOM     19  C   UNL     1       3.697   5.212  18.467  0.00  0.00    +0.000 A 
ATOM     20  C   UNL     1       3.034   4.641  17.356  0.00  0.00    +0.000 A 
ATOM     21  C   UNL     1       3.728   4.031  16.313  0.00  0.00    +0.000 A 
ATOM     22  C   UNL     1       5.123   4.005  16.306  0.00  0.00    +0.000 A 
ATOM     23  C   UNL     1       5.815   3.290  15.171  0.00  0.00    +0.000 C 
ATOM     24  C   UNL     1       5.841   4.623  17.361  0.00  0.00    +0.000 A 
ATOM     25  C   UNL     1       7.252   4.670  17.350  0.00  0.00    +0.000 A 
ATOM     26  C   UNL     1       7.989   5.246  18.382  0.00  0.00    +0.000 A 
ATOM     27  C   UNL     1       7.327   5.744  19.486  0.00  0.00    +0.000 A 
ATOM     28  C   UNL     1       5.935   5.681  19.532  0.00  0.00    +0.000 A 
ATOM     29  C   UNL     1       5.137   5.193  18.467  0.00  0.00    +0.000 A 
ENDBRANCH  18  19
BRANCH  18  30
ATOM     30  C   UNL     1       2.727   4.786  20.676  0.00  0.00    +0.000 C 
BRANCH  30  31
ATOM     31  C   UNL     1       1.462   3.971  20.706  0.00  0.00    +0.000 C 
ATOM     32  C   UNL     1       1.352   2.637  20.001  0.00  0.00    +0.000 C 
ATOM     33  C   UNL     1       1.425   2.683  21.496  0.00  0.00    +0.000 C 
ENDBRANCH  30  31
ENDBRANCH  18  30
ENDBRANCH   3  18
TORSDOF 9
ENDMDL
MODEL 7
REMARK VINA RESULT:      -7.4      1.042      1.698
REMARK  Name = 
REMARK  11 active torsions:
REMARK  status: ('A' for Active; 'I' for Inactive)
REMARK    1  A    between atoms: C_1  and  O_2
REMARK    2  A    between atoms: O_2  and  C_3
REMARK    3  A    between atoms: C_5  and  N_6
REMARK    4  A    between atoms: N_6  and  C_7
REMARK    5  A    between atoms: N_6  and  C_11
REMARK    6  A    between atoms: C_7  and  C_8
REMARK    7  A    between atoms: C_14  and  C_15
REMARK    8  A    between atoms: C_24  and  C_25
REMARK    9  A    between atoms: C_25  and  C_27
REMARK   10  A    between atoms: C_29  and  C_30
REMARK   11  A    between atoms: C_30  and  O_32
REMARK                            x       y       z     vdW  Elec       q    Type
REMARK                         _______ _______ _______ _____ _____    ______ ____
ROOT
ATOM      1  C   UNL     1       1.824   9.204  18.525  0.00  0.00    +0.000 A 
ATOM      2  C   UNL     1       2.388   7.910  18.476  0.00  0.00    +0.000 A 
ATOM      3  C   UNL     1       2.220   6.978  19.517  0.00  0.00    +0.000 A 
ATOM      4  C   UNL     1       1.484   7.468  20.598  0.00  0.00    +0.000 A 
ATOM      5  N   UNL     1       0.855   8.669  20.669  0.00  0.00    +0.000 NA
ATOM      6  C   UNL     1       1.002   9.507  19.612  0.00  0.00    +0.000 A 
ENDROOT
BRANCH   1   8
ATOM      7  C   UNL     1       2.680  11.295  17.784  0.00  0.00    +0.000 C 
ATOM      8  O   UNL     1       2.150  10.007  17.466  0.00  0.00    +0.000 OA
ENDBRANCH   1   8
BRANCH   6   9
ATOM      9  C   UNL     1       0.097  10.693  19.656  0.00  0.00    +0.000 C 
ATOM     10  O   UNL     1       0.118  11.479  20.599  0.00  0.00    +0.000 OA
BRANCH   9  11
ATOM     11  C   UNL     1      -0.814  10.974  18.504  0.00  0.00    +0.000 C 
ATOM     12  C   UNL     1      -1.277   9.869  17.578  0.00  0.00    +0.000 C 
ATOM     13  C   UNL     1      -2.232  10.425  18.600  0.00  0.00    +0.000 C 
BRANCH  13  14
ATOM     14  C   UNL     1      -3.389  11.263  18.193  0.00  0.00    +0.000 C 
ATOM     15  O   UNL     1      -3.871  12.111  18.925  0.00  0.00    +0.000 OA
BRANCH  14  16
ATOM     16  O   UNL     1      -3.830  11.004  16.948  0.00  0.00    +0.000 OA
ATOM     17  H   UNL     1      -4.338  11.736  16.548  0.00  0.00    +0.000 HD
ENDBRANCH  14  16
ENDBRANCH  13  14
ENDBRANCH   9  11
ENDBRANCH   6   9
BRANCH   3  18
ATOM     18  N   UNL     1       2.872   5.725  19.522  0.00  0.00    +0.000 N 
BRANCH  18  19
ATOM     19  C   UNL     1       3.662   5.182  18.432  0.00  0.00    +0.000 A 
ATOM     20  C   UNL     1       3.012   4.604  17.317  0.00  0.00    +0.000 A 
ATOM     21  C   UNL     1       3.719   4.007  16.276  0.00  0.00    +0.000 A 
ATOM     22  C   UNL     1       5.114   4.000  16.276  0.00  0.00    +0.000 A 
ATOM     23  C   UNL     1       5.822   3.298  15.143  0.00  0.00    +0.000 C 
ATOM     24  C   UNL     1       5.818   4.626  17.335  0.00  0.00    +0.000 A 
ATOM     25  C   UNL     1       7.229   4.693  17.331  0.00  0.00    +0.000 A 
ATOM     26  C   UNL     1       7.953   5.277  18.368  0.00  0.00    +0.000 A 
ATOM     27  C   UNL     1       7.278   5.763  19.469  0.00  0.00    +0.000 A 
ATOM     28  C   UNL     1       5.887   5.680  19.509  0.00  0.00    +0.000 A 
ATOM     29  C   UNL     1       5.101   5.183  18.440  0.00  0.00    +0.000 A 
ENDBRANCH  18  19
BRANCH  18  30
ATOM     30  C   UNL     1       2.732   4.755  20.659  0.00  0.00    +0.000 C 
BRANCH  30  31
ATOM     31  C   UNL     1       1.491   3.907  20.731  0.00  0.00    +0.000 C 
ATOM     32  C   UNL     1       1.416   2.541  20.085  0.00  0.00    +0.000 C 
ATOM     33  C   UNL     1       1.495   2.653  21.577  0.00  0.00    +0.000 C 
ENDBRANCH  30  31
ENDBRANCH  18  30
ENDBRANCH   3  18
TORSDOF 9
ENDMDL
MODEL 8
REMARK VINA RESULT:      -7.4      1.420      1.953
REMARK  Name = 
REMARK  11 active torsions:
REMARK  status: ('A' for Active; 'I' for Inactive)
REMARK    1  A    between atoms: C_1  and  O_2
REMARK    2  A    between atoms: O_2  and  C_3
REMARK    3  A    between atoms: C_5  and  N_6
REMARK    4  A    between atoms: N_6  and  C_7
REMARK    5  A    between atoms: N_6  and  C_11
REMARK    6  A    between atoms: C_7  and  C_8
REMARK    7  A    between atoms: C_14  and  C_15
REMARK    8  A    between atoms: C_24  and  C_25
REMARK    9  A    between atoms: C_25  and  C_27
REMARK   10  A    between atoms: C_29  and  C_30
REMARK   11  A    between atoms: C_30  and  O_32
REMARK                            x       y       z     vdW  Elec       q    Type
REMARK                         _______ _______ _______ _____ _____    ______ ____
ROOT
ATOM      1  C   UNL     1       0.839   8.704  20.647  0.00  0.00    +0.000 A 
ATOM      2  C   UNL     1       1.513   7.464  20.675  0.00  0.00    +0.000 A 
ATOM      3  C   UNL     1       2.327   7.028  19.613  0.00  0.00    +0.000 A 
ATOM      4  C   UNL     1       2.368   7.914  18.535  0.00  0.00    +0.000 A 
ATOM      5  N   UNL     1       1.807   9.149  18.482  0.00  0.00    +0.000 NA
ATOM      6  C   UNL     1       1.080   9.544  19.559  0.00  0.00    +0.000 A 
ENDROOT
BRANCH   1   8
ATOM      7  C   UNL     1       0.687   9.184  22.972  0.00  0.00    +0.000 C 
ATOM      8  O   UNL     1       0.030   8.936  21.727  0.00  0.00    +0.000 OA
ENDBRANCH   1   8
BRANCH   6   9
ATOM      9  C   UNL     1       0.701  10.987  19.529  0.00  0.00    +0.000 C 
ATOM     10  O   UNL     1       0.272  11.515  18.507  0.00  0.00    +0.000 OA
BRANCH   9  11
ATOM     11  C   UNL     1       0.780  11.800  20.782  0.00  0.00    +0.000 C 
ATOM     12  C   UNL     1       0.715  13.313  20.744  0.00  0.00    +0.000 C 
ATOM     13  C   UNL     1      -0.487  12.533  21.206  0.00  0.00    +0.000 C 
BRANCH  13  14
ATOM     14  C   UNL     1      -0.905  12.541  22.631  0.00  0.00    +0.000 C 
ATOM     15  O   UNL     1      -0.478  13.354  23.433  0.00  0.00    +0.000 OA
BRANCH  14  16
ATOM     16  O   UNL     1      -1.804  11.585  22.934  0.00  0.00    +0.000 OA
ATOM     17  H   UNL     1      -1.588  11.083  23.742  0.00  0.00    +0.000 HD
ENDBRANCH  14  16
ENDBRANCH  13  14
ENDBRANCH   9  11
ENDBRANCH   6   9
BRANCH   3  18
ATOM     18  N   UNL     1       2.913   5.743  19.589  0.00  0.00    +0.000 N 
BRANCH  18  19
ATOM     19  C   UNL     1       3.682   5.188  18.491  0.00  0.00    +0.000 A 
ATOM     20  C   UNL     1       3.010   4.602  17.393  0.00  0.00    +0.000 A 
ATOM     21  C   UNL     1       3.697   3.993  16.344  0.00  0.00    +0.000 A 
ATOM     22  C   UNL     1       5.092   3.982  16.319  0.00  0.00    +0.000 A 
ATOM     23  C   UNL     1       5.777   3.268  15.180  0.00  0.00    +0.000 C 
ATOM     24  C   UNL     1       5.817   4.615  17.360  0.00  0.00    +0.000 A 
ATOM     25  C   UNL     1       7.227   4.678  17.330  0.00  0.00    +0.000 A 
ATOM     26  C   UNL     1       7.971   5.268  18.349  0.00  0.00    +0.000 A 
ATOM     27  C   UNL     1       7.318   5.766  19.458  0.00  0.00    +0.000 A 
ATOM     28  C   UNL     1       5.928   5.688  19.524  0.00  0.00    +0.000 A 
ATOM     29  C   UNL     1       5.121   5.184  18.472  0.00  0.00    +0.000 A 
ENDBRANCH  18  19
BRANCH  18  30
ATOM     30  C   UNL     1       2.715   4.753  20.700  0.00  0.00    +0.000 C 
BRANCH  30  31
ATOM     31  C   UNL     1       1.464   3.917  20.703  0.00  0.00    +0.000 C 
ATOM     32  C   UNL     1       1.418   2.542  20.073  0.00  0.00    +0.000 C 
ATOM     33  C   UNL     1       1.401   2.676  21.565  0.00  0.00    +0.000 C 
ENDBRANCH  30  31
ENDBRANCH  18  30
ENDBRANCH   3  18
TORSDOF 9
ENDMDL
MODEL 9
REMARK VINA RESULT:      -7.4      1.052      1.126
REMARK  Name = 
REMARK  11 active torsions:
REMARK  status: ('A' for Active; 'I' for Inactive)
REMARK    1  A    between atoms: C_1  and  O_2
REMARK    2  A    between atoms: O_2  and  C_3
REMARK    3  A    between atoms: C_5  and  N_6
REMARK    4  A    between atoms: N_6  and  C_7
REMARK    5  A    between atoms: N_6  and  C_11
REMARK    6  A    between atoms: C_7  and  C_8
REMARK    7  A    between atoms: C_14  and  C_15
REMARK    8  A    between atoms: C_24  and  C_25
REMARK    9  A    between atoms: C_25  and  C_27
REMARK   10  A    between atoms: C_29  and  C_30
REMARK   11  A    between atoms: C_30  and  O_32
REMARK                            x       y       z     vdW  Elec       q    Type
REMARK                         _______ _______ _______ _____ _____    ______ ____
ROOT
ATOM      1  C   UNL     1       1.163   9.045  20.262  0.00  0.00    +0.000 A 
ATOM      2  C   UNL     1       1.852   7.814  20.288  0.00  0.00    +0.000 A 
ATOM      3  C   UNL     1       2.416   7.245  19.131  0.00  0.00    +0.000 A 
ATOM      4  C   UNL     1       2.195   7.992  17.971  0.00  0.00    +0.000 A 
ATOM      5  N   UNL     1       1.611   9.214  17.897  0.00  0.00    +0.000 NA
ATOM      6  C   UNL     1       1.136   9.743  19.054  0.00  0.00    +0.000 A 
ENDROOT
BRANCH   1   8
ATOM      7  C   UNL     1      -0.472   8.613  21.935  0.00  0.00    +0.000 C 
ATOM      8  O   UNL     1       0.612   9.414  21.460  0.00  0.00    +0.000 OA
ENDBRANCH   1   8
BRANCH   6   9
ATOM      9  C   UNL     1       0.728  11.174  18.935  0.00  0.00    +0.000 C 
ATOM     10  O   UNL     1       1.531  12.085  19.113  0.00  0.00    +0.000 OA
BRANCH   9  11
ATOM     11  C   UNL     1      -0.670  11.516  18.531  0.00  0.00    +0.000 C 
ATOM     12  C   UNL     1      -1.743  10.452  18.431  0.00  0.00    +0.000 C 
ATOM     13  C   UNL     1      -1.745  11.394  19.605  0.00  0.00    +0.000 C 
BRANCH  13  14
ATOM     14  C   UNL     1      -2.786  12.443  19.745  0.00  0.00    +0.000 C 
ATOM     15  O   UNL     1      -2.775  13.258  20.652  0.00  0.00    +0.000 OA
BRANCH  14  16
ATOM     16  O   UNL     1      -3.717  12.412  18.772  0.00  0.00    +0.000 OA
ATOM     17  H   UNL     1      -4.610  12.179  19.088  0.00  0.00    +0.000 HD
ENDBRANCH  14  16
ENDBRANCH  13  14
ENDBRANCH   9  11
ENDBRANCH   6   9
BRANCH   3  18
ATOM     18  N   UNL     1       3.010   5.963  19.131  0.00  0.00    +0.000 N 
BRANCH  18  19
ATOM     19  C   UNL     1       3.757   5.380  18.033  0.00  0.00    +0.000 A 
ATOM     20  C   UNL     1       3.214   4.285  17.321  0.00  0.00    +0.000 A 
ATOM     21  C   UNL     1       3.917   3.643  16.303  0.00  0.00    +0.000 A 
ATOM     22  C   UNL     1       5.178   4.094  15.915  0.00  0.00    +0.000 A 
ATOM     23  C   UNL     1       5.907   3.329  14.837  0.00  0.00    +0.000 C 
ATOM     24  C   UNL     1       5.742   5.230  16.548  0.00  0.00    +0.000 A 
ATOM     25  C   UNL     1       6.987   5.751  16.133  0.00  0.00    +0.000 A 
ATOM     26  C   UNL     1       7.581   6.849  16.751  0.00  0.00    +0.000 A 
ATOM     27  C   UNL     1       6.963   7.424  17.843  0.00  0.00    +0.000 A 
ATOM     28  C   UNL     1       5.747   6.908  18.289  0.00  0.00    +0.000 A 
ATOM     29  C   UNL     1       5.057   5.855  17.637  0.00  0.00    +0.000 A 
ENDBRANCH  18  19
BRANCH  18  30
ATOM     30  C   UNL     1       2.843   5.005  20.275  0.00  0.00    +0.000 C 
BRANCH  30  31
ATOM     31  C   UNL     1       1.468   4.465  20.565  0.00  0.00    +0.000 C 
ATOM     32  C   UNL     1       0.918   3.249  19.853  0.00  0.00    +0.000 C 
ATOM     33  C   UNL     1       1.325   3.146  21.291  0.00  0.00    +0.000 C 
ENDBRANCH  30  31
ENDBRANCH  18  30
ENDBRANCH   3  18
TORSDOF 9
ENDMDL
