MODEL 1
REMARK VINA RESULT:      -7.4      0.000      0.000
REMARK  Name = 
REMARK  16 active torsions:
REMARK  status: ('A' for Active; 'I' for Inactive)
REMARK    1  A    between atoms: C_1  and  C_2
REMARK    2  A    between atoms: C_2  and  C_3
REMARK    3  A    between atoms: C_2  and  C_4
REMARK    4  A    between atoms: C_4  and  C_5
REMARK    5  A    between atoms: C_8  and  C_9
REMARK    6  A    between atoms: C_11  and  C_12
REMARK    7  A    between atoms: C_12  and  O_13
REMARK    8  A    between atoms: O_13  and  C_14
REMARK    9  A    between atoms: C_17  and  C_18
REMARK   10  A    between atoms: C_18  and  C_19
REMARK   11  A    between atoms: C_19  and  O_20
REMARK   12  A    between atoms: C_19  and  C_24
REMARK   13  A    between atoms: O_20  and  C_21
REMARK   14  A    between atoms: C_21  and  C_22
REMARK   15  A    between atoms: C_21  and  C_23
REMARK   16  A    between atoms: C_24  and  O_26
REMARK                            x       y       z     vdW  Elec       q    Type
REMARK                         _______ _______ _______ _____ _____    ______ ____
ROOT
ATOM      1  O   UNL     1       8.644   9.230  18.865  0.00  0.00    +0.000 OA
ENDROOT
BRANCH   1   2
ATOM      2  C   UNL     1       9.434  10.337  19.026  0.00  0.00    +0.000 A 
ATOM      3  C   UNL     1       9.560  10.825  20.325  0.00  0.00    +0.000 A 
ATOM      4  C   UNL     1      10.274  12.006  20.576  0.00  0.00    +0.000 A 
ATOM      5  C   UNL     1      10.892  12.701  19.527  0.00  0.00    +0.000 A 
ATOM      6  C   UNL     1      10.823  12.153  18.238  0.00  0.00    +0.000 A 
ATOM      7  C   UNL     1      10.109  10.977  17.990  0.00  0.00    +0.000 A 
BRANCH   5   8
ATOM      8  C   UNL     1      11.436  14.106  19.695  0.00  0.00    +0.000 C 
BRANCH   8   9
ATOM      9  C   UNL     1      11.002  15.186  18.689  0.00  0.00    +0.000 C 
BRANCH   9  10
ATOM     10  C   UNL     1      11.408  16.582  19.195  0.00  0.00    +0.000 C 
ATOM     11  O   UNL     1      11.435  17.603  18.526  0.00  0.00    +0.000 OA
BRANCH  10  12
ATOM     12  O   UNL     1      11.763  16.555  20.505  0.00  0.00    +0.000 OA
ATOM     13  H   UNL     1      12.001  17.465  20.801  0.00  0.00    +0.000 HD
ENDBRANCH  10  12
ENDBRANCH   9  10
BRANCH   9  14
ATOM     14  O   UNL     1       9.632  15.193  18.252  0.00  0.00    +0.000 OA
BRANCH  14  15
ATOM     15  C   UNL     1       8.622  15.668  19.154  0.00  0.00    +0.000 C 
ATOM     16  C   UNL     1       7.821  16.846  18.603  0.00  0.00    +0.000 C 
ATOM     17  C   UNL     1       7.651  14.508  19.394  0.00  0.00    +0.000 C 
ENDBRANCH  14  15
ENDBRANCH   9  14
ENDBRANCH   8   9
ENDBRANCH   5   8
ENDBRANCH   1   2
BRANCH   1  18
ATOM     18  C   UNL     1       8.044   9.120  17.563  0.00  0.00    +0.000 C 
BRANCH  18  21
ATOM     19  C   UNL     1       6.007   6.240  17.619  0.00  0.00    +0.000 A 
ATOM     20  N   UNL     1       6.219   7.471  18.029  0.00  0.00    +0.000 NA
ATOM     21  C   UNL     1       7.375   7.806  17.365  0.00  0.00    +0.000 A 
ATOM     22  N   UNL     1       7.888   6.831  16.599  0.00  0.00    +0.000 NA
ATOM     23  O   UNL     1       6.970   5.787  16.762  0.00  0.00    +0.000 OA
BRANCH  19  27
ATOM     24  C   UNL     1       2.895   3.502  18.692  0.00  0.00    +0.000 A 
ATOM     25  C   UNL     1       4.178   3.383  19.238  0.00  0.00    +0.000 A 
ATOM     26  C   UNL     1       5.184   4.286  18.886  0.00  0.00    +0.000 A 
ATOM     27  C   UNL     1       4.935   5.317  17.967  0.00  0.00    +0.000 A 
ATOM     28  C   UNL     1       3.655   5.422  17.410  0.00  0.00    +0.000 A 
ATOM     29  C   UNL     1       2.646   4.524  17.768  0.00  0.00    +0.000 A 
BRANCH  24  30
ATOM     30  C   UNL     1       1.787   2.558  19.096  0.00  0.00    +0.000 C 
BRANCH  30  32
ATOM     31  C   UNL     1       1.643   2.460  21.639  0.00  0.00    +0.000 C 
ATOM     32  C   UNL     1       1.014   3.004  20.353  0.00  0.00    +0.000 C 
ATOM     33  C   UNL     1       0.954   4.532  20.408  0.00  0.00    +0.000 C 
ENDBRANCH  30  32
ENDBRANCH  24  30
ENDBRANCH  19  27
ENDBRANCH  18  21
ENDBRANCH   1  18
TORSDOF 12
ENDMDL
MODEL 2
REMARK VINA RESULT:      -7.3      8.185     11.670
REMARK  Name = 
REMARK  16 active torsions:
REMARK  status: ('A' for Active; 'I' for Inactive)
REMARK    1  A    between atoms: C_1  and  C_2
REMARK    2  A    between atoms: C_2  and  C_3
REMARK    3  A    between atoms: C_2  and  C_4
REMARK    4  A    between atoms: C_4  and  C_5
REMARK    5  A    between atoms: C_8  and  C_9
REMARK    6  A    between atoms: C_11  and  C_12
REMARK    7  A    between atoms: C_12  and  O_13
REMARK    8  A    between atoms: O_13  and  C_14
REMARK    9  A    between atoms: C_17  and  C_18
REMARK   10  A    between atoms: C_18  and  C_19
REMARK   11  A    between atoms: C_19  and  O_20
REMARK   12  A    between atoms: C_19  and  C_24
REMARK   13  A    between atoms: O_20  and  C_21
REMARK   14  A    between atoms: C_21  and  C_22
REMARK   15  A    between atoms: C_21  and  C_23
REMARK   16  A    between atoms: C_24  and  O_26
REMARK                            x       y       z     vdW  Elec       q    Type
REMARK                         _______ _______ _______ _____ _____    ______ ____
ROOT
ATOM      1  O   UNL     1       0.222  10.507  19.145  0.00  0.00    +0.000 OA
ENDROOT
BRANCH   1   2
ATOM      2  C   UNL     1      -1.095  10.776  18.884  0.00  0.00    +0.000 A 
ATOM      3  C   UNL     1      -1.747   9.904  18.015  0.00  0.00    +0.000 A 
ATOM      4  C   UNL     1      -3.069  10.150  17.618  0.00  0.00    +0.000 A 
ATOM      5  C   UNL     1      -3.764  11.265  18.107  0.00  0.00    +0.000 A 
ATOM      6  C   UNL     1      -3.121  12.088  19.042  0.00  0.00    +0.000 A 
ATOM      7  C   UNL     1      -1.803  11.842  19.435  0.00  0.00    +0.000 A 
BRANCH   5   8
ATOM      8  C   UNL     1      -5.080  11.725  17.511  0.00  0.00    +0.000 C 
BRANCH   8   9
ATOM      9  C   UNL     1      -6.269  11.968  18.456  0.00  0.00    +0.000 C 
BRANCH   9  10
ATOM     10  C   UNL     1      -6.440  10.779  19.416  0.00  0.00    +0.000 C 
ATOM     11  O   UNL     1      -6.782   9.650  19.101  0.00  0.00    +0.000 OA
BRANCH  10  12
ATOM     12  O   UNL     1      -6.179  11.131  20.702  0.00  0.00    +0.000 OA
ATOM     13  H   UNL     1      -6.237  10.336  21.280  0.00  0.00    +0.000 HD
ENDBRANCH  10  12
ENDBRANCH   9  10
BRANCH   9  14
ATOM     14  O   UNL     1      -7.534  12.326  17.874  0.00  0.00    +0.000 OA
BRANCH  14  15
ATOM     15  C   UNL     1      -7.891  13.714  17.797  0.00  0.00    +0.000 C 
ATOM     16  C   UNL     1      -7.917  14.411  19.156  0.00  0.00    +0.000 C 
ATOM     17  C   UNL     1      -6.833  14.403  16.931  0.00  0.00    +0.000 C 
ENDBRANCH  14  15
ENDBRANCH   9  14
ENDBRANCH   8   9
ENDBRANCH   5   8
ENDBRANCH   1   2
BRANCH   1  18
ATOM     18  C   UNL     1       0.443   9.762  20.354  0.00  0.00    +0.000 C 
BRANCH  18  21
ATOM     19  C   UNL     1       2.484   7.161  19.124  0.00  0.00    +0.000 A 
ATOM     20  N   UNL     1       1.935   8.340  18.934  0.00  0.00    +0.000 NA
ATOM     21  C   UNL     1       1.274   8.550  20.120  0.00  0.00    +0.000 A 
ATOM     22  N   UNL     1       1.370   7.546  21.005  0.00  0.00    +0.000 NA
ATOM     23  O   UNL     1       2.185   6.621  20.344  0.00  0.00    +0.000 OA
BRANCH  19  27
ATOM     24  C   UNL     1       4.895   4.776  16.511  0.00  0.00    +0.000 A 
ATOM     25  C   UNL     1       4.041   4.180  17.447  0.00  0.00    +0.000 A 
ATOM     26  C   UNL     1       3.254   4.968  18.289  0.00  0.00    +0.000 A 
ATOM     27  C   UNL     1       3.316   6.368  18.229  0.00  0.00    +0.000 A 
ATOM     28  C   UNL     1       4.183   6.960  17.303  0.00  0.00    +0.000 A 
ATOM     29  C   UNL     1       4.965   6.173  16.454  0.00  0.00    +0.000 A 
BRANCH  24  30
ATOM     30  C   UNL     1       5.720   3.935  15.565  0.00  0.00    +0.000 C 
BRANCH  30  32
ATOM     31  C   UNL     1       7.330   5.122  13.986  0.00  0.00    +0.000 C 
ATOM     32  C   UNL     1       5.914   4.569  14.174  0.00  0.00    +0.000 C 
ATOM     33  C   UNL     1       5.612   3.535  13.087  0.00  0.00    +0.000 C 
ENDBRANCH  30  32
ENDBRANCH  24  30
ENDBRANCH  19  27
ENDBRANCH  18  21
ENDBRANCH   1  18
TORSDOF 12
ENDMDL
MODEL 3
REMARK VINA RESULT:      -7.3      7.771     11.994
REMARK  Name = 
REMARK  16 active torsions:
REMARK  status: ('A' for Active; 'I' for Inactive)
REMARK    1  A    between atoms: C_1  and  C_2
REMARK    2  A    between atoms: C_2  and  C_3
REMARK    3  A    between atoms: C_2  and  C_4
REMARK    4  A    between atoms: C_4  and  C_5
REMARK    5  A    between atoms: C_8  and  C_9
REMARK    6  A    between atoms: C_11  and  C_12
REMARK    7  A    between atoms: C_12  and  O_13
REMARK    8  A    between atoms: O_13  and  C_14
REMARK    9  A    between atoms: C_17  and  C_18
REMARK   10  A    between atoms: C_18  and  C_19
REMARK   11  A    between atoms: C_19  and  O_20
REMARK   12  A    between atoms: C_19  and  C_24
REMARK   13  A    between atoms: O_20  and  C_21
REMARK   14  A    between atoms: C_21  and  C_22
REMARK   15  A    between atoms: C_21  and  C_23
REMARK   16  A    between atoms: C_24  and  O_26
REMARK                            x       y       z     vdW  Elec       q    Type
REMARK                         _______ _______ _______ _____ _____    ______ ____
ROOT
ATOM      1  O   UNL     1       1.032   9.752  19.738  0.00  0.00    +0.000 OA
ENDROOT
BRANCH   1   2
ATOM      2  C   UNL     1       1.565   8.515  19.490  0.00  0.00    +0.000 A 
ATOM      3  C   UNL     1       2.069   8.301  18.209  0.00  0.00    +0.000 A 
ATOM      4  C   UNL     1       2.552   7.039  17.835  0.00  0.00    +0.000 A 
ATOM      5  C   UNL     1       2.557   5.978  18.751  0.00  0.00    +0.000 A 
ATOM      6  C   UNL     1       2.121   6.231  20.059  0.00  0.00    +0.000 A 
ATOM      7  C   UNL     1       1.639   7.489  20.430  0.00  0.00    +0.000 A 
BRANCH   5   8
ATOM      8  C   UNL     1       2.808   4.544  18.329  0.00  0.00    +0.000 C 
BRANCH   8   9
ATOM      9  C   UNL     1       4.193   3.931  18.601  0.00  0.00    +0.000 C 
BRANCH   9  10
ATOM     10  C   UNL     1       4.105   2.891  19.731  0.00  0.00    +0.000 C 
ATOM     11  O   UNL     1       3.145   2.712  20.464  0.00  0.00    +0.000 OA
BRANCH  10  12
ATOM     12  O   UNL     1       5.255   2.178  19.845  0.00  0.00    +0.000 OA
ATOM     13  H   UNL     1       5.922   2.523  19.207  0.00  0.00    +0.000 HD
ENDBRANCH  10  12
ENDBRANCH   9  10
BRANCH   9  14
ATOM     14  O   UNL     1       5.296   4.825  18.830  0.00  0.00    +0.000 OA
BRANCH  14  15
ATOM     15  C   UNL     1       6.265   5.007  17.788  0.00  0.00    +0.000 C 
ATOM     16  C   UNL     1       5.906   4.284  16.491  0.00  0.00    +0.000 C 
ATOM     17  C   UNL     1       6.330   6.507  17.490  0.00  0.00    +0.000 C 
ENDBRANCH  14  15
ENDBRANCH   9  14
ENDBRANCH   8   9
ENDBRANCH   5   8
ENDBRANCH   1   2
BRANCH   1  18
ATOM     18  C   UNL     1       1.466  10.344  20.974  0.00  0.00    +0.000 C 
BRANCH  18  21
ATOM     19  C   UNL     1      -1.341  11.766  22.570  0.00  0.00    +0.000 A 
ATOM     20  N   UNL     1      -0.534  11.742  21.532  0.00  0.00    +0.000 NA
ATOM     21  C   UNL     1       0.321  10.714  21.849  0.00  0.00    +0.000 A 
ATOM     22  N   UNL     1       0.090  10.135  23.037  0.00  0.00    +0.000 NA
ATOM     23  O   UNL     1      -1.024  10.832  23.516  0.00  0.00    +0.000 OA
BRANCH  19  27
ATOM     24  C   UNL     1      -4.676  14.305  23.441  0.00  0.00    +0.000 A 
ATOM     25  C   UNL     1      -4.504  13.087  24.109  0.00  0.00    +0.000 A 
ATOM     26  C   UNL     1      -3.409  12.270  23.822  0.00  0.00    +0.000 A 
ATOM     27  C   UNL     1      -2.470  12.643  22.847  0.00  0.00    +0.000 A 
ATOM     28  C   UNL     1      -2.655  13.853  22.169  0.00  0.00    +0.000 A 
ATOM     29  C   UNL     1      -3.746  14.675  22.462  0.00  0.00    +0.000 A 
BRANCH  24  30
ATOM     30  C   UNL     1      -5.833  15.217  23.772  0.00  0.00    +0.000 C 
BRANCH  30  32
ATOM     31  C   UNL     1      -7.031  13.918  21.936  0.00  0.00    +0.000 C 
ATOM     32  C   UNL     1      -7.189  14.731  23.224  0.00  0.00    +0.000 C 
ATOM     33  C   UNL     1      -7.906  13.892  24.284  0.00  0.00    +0.000 C 
ENDBRANCH  30  32
ENDBRANCH  24  30
ENDBRANCH  19  27
ENDBRANCH  18  21
ENDBRANCH   1  18
TORSDOF 12
ENDMDL
MODEL 4
REMARK VINA RESULT:      -7.3      7.029     10.785
REMARK  Name = 
REMARK  16 active torsions:
REMARK  status: ('A' for Active; 'I' for Inactive)
REMARK    1  A    between atoms: C_1  and  C_2
REMARK    2  A    between atoms: C_2  and  C_3
REMARK    3  A    between atoms: C_2  and  C_4
REMARK    4  A    between atoms: C_4  and  C_5
REMARK    5  A    between atoms: C_8  and  C_9
REMARK    6  A    between atoms: C_11  and  C_12
REMARK    7  A    between atoms: C_12  and  O_13
REMARK    8  A    between atoms: O_13  and  C_14
REMARK    9  A    between atoms: C_17  and  C_18
REMARK   10  A    between atoms: C_18  and  C_19
REMARK   11  A    between atoms: C_19  and  O_20
REMARK   12  A    between atoms: C_19  and  C_24
REMARK   13  A    between atoms: O_20  and  C_21
REMARK   14  A    between atoms: C_21  and  C_22
REMARK   15  A    between atoms: C_21  and  C_23
REMARK   16  A    between atoms: C_24  and  O_26
REMARK                            x       y       z     vdW  Elec       q    Type
REMARK                         _______ _______ _______ _____ _____    ______ ____
ROOT
ATOM      1  O   UNL     1       1.751   7.662  18.031  0.00  0.00    +0.000 OA
ENDROOT
BRANCH   1   2
ATOM      2  C   UNL     1       2.585   6.599  17.805  0.00  0.00    +0.000 A 
ATOM      3  C   UNL     1       3.881   6.903  17.394  0.00  0.00    +0.000 A 
ATOM      4  C   UNL     1       4.778   5.881  17.051  0.00  0.00    +0.000 A 
ATOM      5  C   UNL     1       4.393   4.537  17.139  0.00  0.00    +0.000 A 
ATOM      6  C   UNL     1       3.113   4.245  17.630  0.00  0.00    +0.000 A 
ATOM      7  C   UNL     1       2.220   5.265  17.970  0.00  0.00    +0.000 A 
BRANCH   5   8
ATOM      8  C   UNL     1       5.214   3.416  16.531  0.00  0.00    +0.000 C 
BRANCH   8   9
ATOM      9  C   UNL     1       6.261   3.772  15.460  0.00  0.00    +0.000 C 
BRANCH   9  10
ATOM     10  C   UNL     1       7.377   4.637  16.070  0.00  0.00    +0.000 C 
ATOM     11  O   UNL     1       8.004   4.382  17.086  0.00  0.00    +0.000 OA
BRANCH  10  12
ATOM     12  O   UNL     1       7.589   5.765  15.343  0.00  0.00    +0.000 OA
ATOM     13  H   UNL     1       6.884   6.423  15.543  0.00  0.00    +0.000 HD
ENDBRANCH  10  12
ENDBRANCH   9  10
BRANCH   9  14
ATOM     14  O   UNL     1       5.798   4.350  14.227  0.00  0.00    +0.000 OA
BRANCH  14  15
ATOM     15  C   UNL     1       6.026   3.639  13.002  0.00  0.00    +0.000 C 
ATOM     16  C   UNL     1       4.790   3.556  12.109  0.00  0.00    +0.000 C 
ATOM     17  C   UNL     1       7.113   4.399  12.237  0.00  0.00    +0.000 C 
ENDBRANCH  14  15
ENDBRANCH   9  14
ENDBRANCH   8   9
ENDBRANCH   5   8
ENDBRANCH   1   2
BRANCH   1  18
ATOM     18  C   UNL     1       2.371   8.946  17.848  0.00  0.00    +0.000 C 
BRANCH  18  21
ATOM     19  C   UNL     1      -0.253  11.099  18.806  0.00  0.00    +0.000 A 
ATOM     20  N   UNL     1       0.141   9.888  18.483  0.00  0.00    +0.000 NA
ATOM     21  C   UNL     1       1.491  10.060  18.291  0.00  0.00    +0.000 A 
ATOM     22  N   UNL     1       1.927  11.318  18.452  0.00  0.00    +0.000 NA
ATOM     23  O   UNL     1       0.764  12.012  18.805  0.00  0.00    +0.000 OA
BRANCH  19  27
ATOM     24  C   UNL     1      -4.149  12.572  19.799  0.00  0.00    +0.000 A 
ATOM     25  C   UNL     1      -3.047  12.843  20.618  0.00  0.00    +0.000 A 
ATOM     26  C   UNL     1      -1.779  12.363  20.281  0.00  0.00    +0.000 A 
ATOM     27  C   UNL     1      -1.588  11.587  19.127  0.00  0.00    +0.000 A 
ATOM     28  C   UNL     1      -2.696  11.305  18.319  0.00  0.00    +0.000 A 
ATOM     29  C   UNL     1      -3.963  11.791  18.652  0.00  0.00    +0.000 A 
BRANCH  24  30
ATOM     30  C   UNL     1      -5.517  13.121  20.130  0.00  0.00    +0.000 C 
BRANCH  30  32
ATOM     31  C   UNL     1      -7.235  12.732  21.971  0.00  0.00    +0.000 C 
ATOM     32  C   UNL     1      -6.448  12.103  20.818  0.00  0.00    +0.000 C 
ATOM     33  C   UNL     1      -7.414  11.510  19.791  0.00  0.00    +0.000 C 
ENDBRANCH  30  32
ENDBRANCH  24  30
ENDBRANCH  19  27
ENDBRANCH  18  21
ENDBRANCH   1  18
TORSDOF 12
ENDMDL
MODEL 5
REMARK VINA RESULT:      -7.2      7.098     11.001
REMARK  Name = 
REMARK  16 active torsions:
REMARK  status: ('A' for Active; 'I' for Inactive)
REMARK    1  A    between atoms: C_1  and  C_2
REMARK    2  A    between atoms: C_2  and  C_3
REMARK    3  A    between atoms: C_2  and  C_4
REMARK    4  A    between atoms: C_4  and  C_5
REMARK    5  A    between atoms: C_8  and  C_9
REMARK    6  A    between atoms: C_11  and  C_12
REMARK    7  A    between atoms: C_12  and  O_13
REMARK    8  A    between atoms: O_13  and  C_14
REMARK    9  A    between atoms: C_17  and  C_18
REMARK   10  A    between atoms: C_18  and  C_19
REMARK   11  A    between atoms: C_19  and  O_20
REMARK   12  A    between atoms: C_19  and  C_24
REMARK   13  A    between atoms: O_20  and  C_21
REMARK   14  A    between atoms: C_21  and  C_22
REMARK   15  A    between atoms: C_21  and  C_23
REMARK   16  A    between atoms: C_24  and  O_26
REMARK                            x       y       z     vdW  Elec       q    Type
REMARK                         _______ _______ _______ _____ _____    ______ ____
ROOT
ATOM      1  O   UNL     1       1.240   8.421  19.944  0.00  0.00    +0.000 OA
ENDROOT
BRANCH   1   2
ATOM      2  C   UNL     1       2.157   7.675  19.251  0.00  0.00    +0.000 A 
ATOM      3  C   UNL     1       2.660   8.241  18.082  0.00  0.00    +0.000 A 
ATOM      4  C   UNL     1       3.534   7.516  17.258  0.00  0.00    +0.000 A 
ATOM      5  C   UNL     1       3.933   6.220  17.611  0.00  0.00    +0.000 A 
ATOM      6  C   UNL     1       3.481   5.696  18.830  0.00  0.00    +0.000 A 
ATOM      7  C   UNL     1       2.609   6.420  19.648  0.00  0.00    +0.000 A 
BRANCH   5   8
ATOM      8  C   UNL     1       4.646   5.299  16.640  0.00  0.00    +0.000 C 
BRANCH   8   9
ATOM      9  C   UNL     1       5.806   5.869  15.806  0.00  0.00    +0.000 C 
BRANCH   9  10
ATOM     10  C   UNL     1       6.329   4.809  14.821  0.00  0.00    +0.000 C 
ATOM     11  O   UNL     1       5.999   3.633  14.796  0.00  0.00    +0.000 OA
BRANCH  10  12
ATOM     12  O   UNL     1       7.240   5.332  13.961  0.00  0.00    +0.000 OA
ATOM     13  H   UNL     1       7.256   4.798  13.133  0.00  0.00    +0.000 HD
ENDBRANCH  10  12
ENDBRANCH   9  10
BRANCH   9  14
ATOM     14  O   UNL     1       6.903   6.485  16.504  0.00  0.00    +0.000 OA
BRANCH  14  15
ATOM     15  C   UNL     1       7.141   6.124  17.872  0.00  0.00    +0.000 C 
ATOM     16  C   UNL     1       7.781   4.746  18.035  0.00  0.00    +0.000 C 
ATOM     17  C   UNL     1       8.104   7.164  18.451  0.00  0.00    +0.000 C 
ENDBRANCH  14  15
ENDBRANCH   9  14
ENDBRANCH   8   9
ENDBRANCH   5   8
ENDBRANCH   1   2
BRANCH   1  18
ATOM     18  C   UNL     1       1.487   8.491  21.359  0.00  0.00    +0.000 C 
BRANCH  18  21
ATOM     19  C   UNL     1      -0.919  10.893  22.299  0.00  0.00    +0.000 A 
ATOM     20  N   UNL     1      -0.358  10.183  21.346  0.00  0.00    +0.000 NA
ATOM     21  C   UNL     1       0.557   9.430  22.042  0.00  0.00    +0.000 A 
ATOM     22  N   UNL     1       0.597   9.670  23.361  0.00  0.00    +0.000 NA
ATOM     23  O   UNL     1      -0.394  10.642  23.535  0.00  0.00    +0.000 OA
BRANCH  19  27
ATOM     24  C   UNL     1      -4.019  13.841  22.110  0.00  0.00    +0.000 A 
ATOM     25  C   UNL     1      -3.813  13.086  23.270  0.00  0.00    +0.000 A 
ATOM     26  C   UNL     1      -2.794  12.132  23.323  0.00  0.00    +0.000 A 
ATOM     27  C   UNL     1      -1.970  11.898  22.212  0.00  0.00    +0.000 A 
ATOM     28  C   UNL     1      -2.191  12.643  21.047  0.00  0.00    +0.000 A 
ATOM     29  C   UNL     1      -3.204  13.603  20.996  0.00  0.00    +0.000 A 
BRANCH  24  30
ATOM     30  C   UNL     1      -5.089  14.905  22.054  0.00  0.00    +0.000 C 
BRANCH  30  32
ATOM     31  C   UNL     1      -6.668  13.026  21.366  0.00  0.00    +0.000 C 
ATOM     32  C   UNL     1      -6.320  14.510  21.214  0.00  0.00    +0.000 C 
ATOM     33  C   UNL     1      -7.519  15.370  21.617  0.00  0.00    +0.000 C 
ENDBRANCH  30  32
ENDBRANCH  24  30
ENDBRANCH  19  27
ENDBRANCH  18  21
ENDBRANCH   1  18
TORSDOF 12
ENDMDL
MODEL 6
REMARK VINA RESULT:      -7.2      7.120     11.673
REMARK  Name = 
REMARK  16 active torsions:
REMARK  status: ('A' for Active; 'I' for Inactive)
REMARK    1  A    between atoms: C_1  and  C_2
REMARK    2  A    between atoms: C_2  and  C_3
REMARK    3  A    between atoms: C_2  and  C_4
REMARK    4  A    between atoms: C_4  and  C_5
REMARK    5  A    between atoms: C_8  and  C_9
REMARK    6  A    between atoms: C_11  and  C_12
REMARK    7  A    between atoms: C_12  and  O_13
REMARK    8  A    between atoms: O_13  and  C_14
REMARK    9  A    between atoms: C_17  and  C_18
REMARK   10  A    between atoms: C_18  and  C_19
REMARK   11  A    between atoms: C_19  and  O_20
REMARK   12  A    between atoms: C_19  and  C_24
REMARK   13  A    between atoms: O_20  and  C_21
REMARK   14  A    between atoms: C_21  and  C_22
REMARK   15  A    between atoms: C_21  and  C_23
REMARK   16  A    between atoms: C_24  and  O_26
REMARK                            x       y       z     vdW  Elec       q    Type
REMARK                         _______ _______ _______ _____ _____    ______ ____
ROOT
ATOM      1  O   UNL     1       2.111   8.654  17.408  0.00  0.00    +0.000 OA
ENDROOT
BRANCH   1   2
ATOM      2  C   UNL     1       2.827   7.650  18.003  0.00  0.00    +0.000 A 
ATOM      3  C   UNL     1       3.902   7.140  17.278  0.00  0.00    +0.000 A 
ATOM      4  C   UNL     1       4.638   6.050  17.766  0.00  0.00    +0.000 A 
ATOM      5  C   UNL     1       4.317   5.471  19.001  0.00  0.00    +0.000 A 
ATOM      6  C   UNL     1       3.285   6.046  19.755  0.00  0.00    +0.000 A 
ATOM      7  C   UNL     1       2.552   7.131  19.266  0.00  0.00    +0.000 A 
BRANCH   5   8
ATOM      8  C   UNL     1       4.892   4.140  19.446  0.00  0.00    +0.000 C 
BRANCH   8   9
ATOM      9  C   UNL     1       3.919   3.005  19.810  0.00  0.00    +0.000 C 
BRANCH   9  10
ATOM     10  C   UNL     1       4.697   1.727  20.168  0.00  0.00    +0.000 C 
ATOM     11  O   UNL     1       5.310   1.532  21.206  0.00  0.00    +0.000 OA
BRANCH  10  12
ATOM     12  O   UNL     1       4.644   0.812  19.166  0.00  0.00    +0.000 OA
ATOM     13  H   UNL     1       3.706   0.559  19.001  0.00  0.00    +0.000 HD
ENDBRANCH  10  12
ENDBRANCH   9  10
BRANCH   9  14
ATOM     14  O   UNL     1       2.858   2.702  18.887  0.00  0.00    +0.000 OA
BRANCH  14  15
ATOM     15  C   UNL     1       1.516   3.077  19.230  0.00  0.00    +0.000 C 
ATOM     16  C   UNL     1       0.460   2.112  18.694  0.00  0.00    +0.000 C 
ATOM     17  C   UNL     1       1.425   3.077  20.758  0.00  0.00    +0.000 C 
ENDBRANCH  14  15
ENDBRANCH   9  14
ENDBRANCH   8   9
ENDBRANCH   5   8
ENDBRANCH   1   2
BRANCH   1  18
ATOM     18  C   UNL     1       2.157   9.907  18.113  0.00  0.00    +0.000 C 
BRANCH  18  21
ATOM     19  C   UNL     1      -0.683  11.052  19.865  0.00  0.00    +0.000 A 
ATOM     20  N   UNL     1       0.620  10.883  19.831  0.00  0.00    +0.000 NA
ATOM     21  C   UNL     1       0.812  10.330  18.587  0.00  0.00    +0.000 A 
ATOM     22  N   UNL     1      -0.311  10.131  17.880  0.00  0.00    +0.000 NA
ATOM     23  O   UNL     1      -1.309  10.620  18.729  0.00  0.00    +0.000 OA
BRANCH  19  27
ATOM     24  C   UNL     1      -3.194  12.664  22.934  0.00  0.00    +0.000 A 
ATOM     25  C   UNL     1      -3.487  12.873  21.582  0.00  0.00    +0.000 A 
ATOM     26  C   UNL     1      -2.664  12.336  20.589  0.00  0.00    +0.000 A 
ATOM     27  C   UNL     1      -1.521  11.595  20.925  0.00  0.00    +0.000 A 
ATOM     28  C   UNL     1      -1.223  11.403  22.279  0.00  0.00    +0.000 A 
ATOM     29  C   UNL     1      -2.050  11.933  23.274  0.00  0.00    +0.000 A 
BRANCH  24  30
ATOM     30  C   UNL     1      -4.099  13.203  24.018  0.00  0.00    +0.000 C 
BRANCH  30  32
ATOM     31  C   UNL     1      -6.561  13.853  23.920  0.00  0.00    +0.000 C 
ATOM     32  C   UNL     1      -5.133  14.230  23.515  0.00  0.00    +0.000 C 
ATOM     33  C   UNL     1      -4.788  15.619  24.055  0.00  0.00    +0.000 C 
ENDBRANCH  30  32
ENDBRANCH  24  30
ENDBRANCH  19  27
ENDBRANCH  18  21
ENDBRANCH   1  18
TORSDOF 12
ENDMDL
MODEL 7
REMARK VINA RESULT:      -7.2      7.018     11.617
REMARK  Name = 
REMARK  16 active torsions:
REMARK  status: ('A' for Active; 'I' for Inactive)
REMARK    1  A    between atoms: C_1  and  C_2
REMARK    2  A    between atoms: C_2  and  C_3
REMARK    3  A    between atoms: C_2  and  C_4
REMARK    4  A    between atoms: C_4  and  C_5
REMARK    5  A    between atoms: C_8  and  C_9
REMARK    6  A    between atoms: C_11  and  C_12
REMARK    7  A    between atoms: C_12  and  O_13
REMARK    8  A    between atoms: O_13  and  C_14
REMARK    9  A    between atoms: C_17  and  C_18
REMARK   10  A    between atoms: C_18  and  C_19
REMARK   11  A    between atoms: C_19  and  O_20
REMARK   12  A    between atoms: C_19  and  C_24
REMARK   13  A    between atoms: O_20  and  C_21
REMARK   14  A    between atoms: C_21  and  C_22
REMARK   15  A    between atoms: C_21  and  C_23
REMARK   16  A    between atoms: C_24  and  O_26
REMARK                            x       y       z     vdW  Elec       q    Type
REMARK                         _______ _______ _______ _____ _____    ______ ____
ROOT
ATOM      1  O   UNL     1       2.376   9.030  17.534  0.00  0.00    +0.000 OA
ENDROOT
BRANCH   1   2
ATOM      2  C   UNL     1       3.027   7.917  17.997  0.00  0.00    +0.000 A 
ATOM      3  C   UNL     1       4.106   7.469  17.239  0.00  0.00    +0.000 A 
ATOM      4  C   UNL     1       4.777   6.286  17.584  0.00  0.00    +0.000 A 
ATOM      5  C   UNL     1       4.385   5.549  18.709  0.00  0.00    +0.000 A 
ATOM      6  C   UNL     1       3.349   6.055  19.506  0.00  0.00    +0.000 A 
ATOM      7  C   UNL     1       2.682   7.233  19.160  0.00  0.00    +0.000 A 
BRANCH   5   8
ATOM      8  C   UNL     1       4.887   4.141  18.971  0.00  0.00    +0.000 C 
BRANCH   8   9
ATOM      9  C   UNL     1       3.855   3.037  19.257  0.00  0.00    +0.000 C 
BRANCH   9  10
ATOM     10  C   UNL     1       4.543   1.813  19.886  0.00  0.00    +0.000 C 
ATOM     11  O   UNL     1       5.058   1.773  20.993  0.00  0.00    +0.000 OA
BRANCH  10  12
ATOM     12  O   UNL     1       4.533   0.746  19.045  0.00  0.00    +0.000 OA
ATOM     13  H   UNL     1       5.229   0.104  19.319  0.00  0.00    +0.000 HD
ENDBRANCH  10  12
ENDBRANCH   9  10
BRANCH   9  14
ATOM     14  O   UNL     1       2.988   2.626  18.185  0.00  0.00    +0.000 OA
BRANCH  14  15
ATOM     15  C   UNL     1       1.582   2.887  18.296  0.00  0.00    +0.000 C 
ATOM     16  C   UNL     1       1.113   3.085  19.736  0.00  0.00    +0.000 C 
ATOM     17  C   UNL     1       1.302   4.179  17.524  0.00  0.00    +0.000 C 
ENDBRANCH  14  15
ENDBRANCH   9  14
ENDBRANCH   8   9
ENDBRANCH   5   8
ENDBRANCH   1   2
BRANCH   1  18
ATOM     18  C   UNL     1       0.965   9.044  17.808  0.00  0.00    +0.000 C 
BRANCH  18  21
ATOM     19  C   UNL     1      -0.523  11.226  20.147  0.00  0.00    +0.000 A 
ATOM     20  N   UNL     1      -0.532  10.061  19.537  0.00  0.00    +0.000 NA
ATOM     21  C   UNL     1       0.588  10.137  18.744  0.00  0.00    +0.000 A 
ATOM     22  N   UNL     1       1.255  11.298  18.820  0.00  0.00    +0.000 NA
ATOM     23  O   UNL     1       0.519  12.023  19.763  0.00  0.00    +0.000 OA
BRANCH  19  27
ATOM     24  C   UNL     1      -3.312  12.851  22.959  0.00  0.00    +0.000 A 
ATOM     25  C   UNL     1      -3.404  13.155  21.596  0.00  0.00    +0.000 A 
ATOM     26  C   UNL     1      -2.493  12.614  20.687  0.00  0.00    +0.000 A 
ATOM     27  C   UNL     1      -1.459  11.771  21.121  0.00  0.00    +0.000 A 
ATOM     28  C   UNL     1      -1.360  11.483  22.487  0.00  0.00    +0.000 A 
ATOM     29  C   UNL     1      -2.276  12.017  23.397  0.00  0.00    +0.000 A 
BRANCH  24  30
ATOM     30  C   UNL     1      -4.316  13.396  23.947  0.00  0.00    +0.000 C 
BRANCH  30  32
ATOM     31  C   UNL     1      -2.584  15.248  24.201  0.00  0.00    +0.000 C 
ATOM     32  C   UNL     1      -4.057  14.858  24.360  0.00  0.00    +0.000 C 
ATOM     33  C   UNL     1      -4.936  15.794  23.530  0.00  0.00    +0.000 C 
ENDBRANCH  30  32
ENDBRANCH  24  30
ENDBRANCH  19  27
ENDBRANCH  18  21
ENDBRANCH   1  18
TORSDOF 12
ENDMDL
MODEL 8
REMARK VINA RESULT:      -7.1      6.349     10.371
REMARK  Name = 
REMARK  16 active torsions:
REMARK  status: ('A' for Active; 'I' for Inactive)
REMARK    1  A    between atoms: C_1  and  C_2
REMARK    2  A    between atoms: C_2  and  C_3
REMARK    3  A    between atoms: C_2  and  C_4
REMARK    4  A    between atoms: C_4  and  C_5
REMARK    5  A    between atoms: C_8  and  C_9
REMARK    6  A    between atoms: C_11  and  C_12
REMARK    7  A    between atoms: C_12  and  O_13
REMARK    8  A    between atoms: O_13  and  C_14
REMARK    9  A    between atoms: C_17  and  C_18
REMARK   10  A    between atoms: C_18  and  C_19
REMARK   11  A    between atoms: C_19  and  O_20
REMARK   12  A    between atoms: C_19  and  C_24
REMARK   13  A    between atoms: O_20  and  C_21
REMARK   14  A    between atoms: C_21  and  C_22
REMARK   15  A    between atoms: C_21  and  C_23
REMARK   16  A    between atoms: C_24  and  O_26
REMARK                            x       y       z     vdW  Elec       q    Type
REMARK                         _______ _______ _______ _____ _____    ______ ____
ROOT
ATOM      1  O   UNL     1       1.240   6.842  20.561  0.00  0.00    +0.000 OA
ENDROOT
BRANCH   1   2
ATOM      2  C   UNL     1       2.101   6.136  19.763  0.00  0.00    +0.000 A 
ATOM      3  C   UNL     1       3.269   6.790  19.379  0.00  0.00    +0.000 A 
ATOM      4  C   UNL     1       4.166   6.182  18.489  0.00  0.00    +0.000 A 
ATOM      5  C   UNL     1       3.913   4.897  17.990  0.00  0.00    +0.000 A 
ATOM      6  C   UNL     1       2.774   4.221  18.448  0.00  0.00    +0.000 A 
ATOM      7  C   UNL     1       1.880   4.829  19.334  0.00  0.00    +0.000 A 
BRANCH   5   8
ATOM      8  C   UNL     1       4.695   4.308  16.832  0.00  0.00    +0.000 C 
BRANCH   8   9
ATOM      9  C   UNL     1       6.087   4.884  16.519  0.00  0.00    +0.000 C 
BRANCH   9  10
ATOM     10  C   UNL     1       6.510   4.511  15.087  0.00  0.00    +0.000 C 
ATOM     11  O   UNL     1       6.019   3.626  14.405  0.00  0.00    +0.000 OA
BRANCH  10  12
ATOM     12  O   UNL     1       7.536   5.287  14.651  0.00  0.00    +0.000 OA
ATOM     13  H   UNL     1       7.176   6.069  14.170  0.00  0.00    +0.000 HD
ENDBRANCH  10  12
ENDBRANCH   9  10
BRANCH   9  14
ATOM     14  O   UNL     1       7.156   4.611  17.442  0.00  0.00    +0.000 OA
BRANCH  14  15
ATOM     15  C   UNL     1       7.821   5.714  18.074  0.00  0.00    +0.000 C 
ATOM     16  C   UNL     1       7.371   7.076  17.549  0.00  0.00    +0.000 C 
ATOM     17  C   UNL     1       7.485   5.647  19.566  0.00  0.00    +0.000 C 
ENDBRANCH  14  15
ENDBRANCH   9  14
ENDBRANCH   8   9
ENDBRANCH   5   8
ENDBRANCH   1   2
BRANCH   1  18
ATOM     18  C   UNL     1       1.628   8.209  20.780  0.00  0.00    +0.000 C 
BRANCH  18  21
ATOM     19  C   UNL     1      -0.747  10.130  19.016  0.00  0.00    +0.000 A 
ATOM     20  N   UNL     1      -0.495   9.252  19.962  0.00  0.00    +0.000 NA
ATOM     21  C   UNL     1       0.875   9.151  19.909  0.00  0.00    +0.000 A 
ATOM     22  N   UNL     1       1.459   9.899  18.962  0.00  0.00    +0.000 NA
ATOM     23  O   UNL     1       0.377  10.560  18.370  0.00  0.00    +0.000 OA
BRANCH  19  27
ATOM     24  C   UNL     1      -4.494  11.755  17.731  0.00  0.00    +0.000 A 
ATOM     25  C   UNL     1      -3.855  12.239  18.879  0.00  0.00    +0.000 A 
ATOM     26  C   UNL     1      -2.630  11.705  19.285  0.00  0.00    +0.000 A 
ATOM     27  C   UNL     1      -2.024  10.665  18.564  0.00  0.00    +0.000 A 
ATOM     28  C   UNL     1      -2.674  10.173  17.426  0.00  0.00    +0.000 A 
ATOM     29  C   UNL     1      -3.896  10.711  17.014  0.00  0.00    +0.000 A 
BRANCH  24  30
ATOM     30  C   UNL     1      -5.798  12.352  17.257  0.00  0.00    +0.000 C 
BRANCH  30  32
ATOM     31  C   UNL     1      -6.760  10.525  18.751  0.00  0.00    +0.000 C 
ATOM     32  C   UNL     1      -7.033  11.848  18.030  0.00  0.00    +0.000 C 
ATOM     33  C   UNL     1      -7.481  12.908  19.038  0.00  0.00    +0.000 C 
ENDBRANCH  30  32
ENDBRANCH  24  30
ENDBRANCH  19  27
ENDBRANCH  18  21
ENDBRANCH   1  18
TORSDOF 12
ENDMDL
MODEL 9
REMARK VINA RESULT:      -7.1      6.811     10.920
REMARK  Name = 
REMARK  16 active torsions:
REMARK  status: ('A' for Active; 'I' for Inactive)
REMARK    1  A    between atoms: C_1  and  C_2
REMARK    2  A    between atoms: C_2  and  C_3
REMARK    3  A    between atoms: C_2  and  C_4
REMARK    4  A    between atoms: C_4  and  C_5
REMARK    5  A    between atoms: C_8  and  C_9
REMARK    6  A    between atoms: C_11  and  C_12
REMARK    7  A    between atoms: C_12  and  O_13
REMARK    8  A    between atoms: O_13  and  C_14
REMARK    9  A    between atoms: C_17  and  C_18
REMARK   10  A    between atoms: C_18  and  C_19
REMARK   11  A    between atoms: C_19  and  O_20
REMARK   12  A    between atoms: C_19  and  C_24
REMARK   13  A    between atoms: O_20  and  C_21
REMARK   14  A    between atoms: C_21  and  C_22
REMARK   15  A    between atoms: C_21  and  C_23
REMARK   16  A    between atoms: C_24  and  O_26
REMARK                            x       y       z     vdW  Elec       q    Type
REMARK                         _______ _______ _______ _____ _____    ______ ____
ROOT
ATOM      1  O   UNL     1       1.230   7.002  20.300  0.00  0.00    +0.000 OA
ENDROOT
BRANCH   1   2
ATOM      2  C   UNL     1       2.196   6.452  19.499  0.00  0.00    +0.000 A 
ATOM      3  C   UNL     1       2.730   7.280  18.514  0.00  0.00    +0.000 A 
ATOM      4  C   UNL     1       3.657   6.779  17.588  0.00  0.00    +0.000 A 
ATOM      5  C   UNL     1       4.078   5.444  17.654  0.00  0.00    +0.000 A 
ATOM      6  C   UNL     1       3.592   4.646  18.699  0.00  0.00    +0.000 A 
ATOM      7  C   UNL     1       2.667   5.147  19.620  0.00  0.00    +0.000 A 
BRANCH   5   8
ATOM      8  C   UNL     1       4.857   4.783  16.533  0.00  0.00    +0.000 C 
BRANCH   8   9
ATOM      9  C   UNL     1       6.338   5.156  16.350  0.00  0.00    +0.000 C 
BRANCH   9  10
ATOM     10  C   UNL     1       6.838   4.701  14.968  0.00  0.00    +0.000 C 
ATOM     11  O   UNL     1       7.661   5.283  14.279  0.00  0.00    +0.000 OA
BRANCH  10  12
ATOM     12  O   UNL     1       6.234   3.551  14.572  0.00  0.00    +0.000 OA
ATOM     13  H   UNL     1       6.876   2.805  14.629  0.00  0.00    +0.000 HD
ENDBRANCH  10  12
ENDBRANCH   9  10
BRANCH   9  14
ATOM     14  O   UNL     1       7.268   4.756  17.373  0.00  0.00    +0.000 OA
BRANCH  14  15
ATOM     15  C   UNL     1       7.796   5.756  18.256  0.00  0.00    +0.000 C 
ATOM     16  C   UNL     1       7.538   7.184  17.778  0.00  0.00    +0.000 C 
ATOM     17  C   UNL     1       7.099   5.577  19.607  0.00  0.00    +0.000 C 
ENDBRANCH  14  15
ENDBRANCH   9  14
ENDBRANCH   8   9
ENDBRANCH   5   8
ENDBRANCH   1   2
BRANCH   1  18
ATOM     18  C   UNL     1       1.706   8.053  21.158  0.00  0.00    +0.000 C 
BRANCH  18  21
ATOM     19  C   UNL     1      -0.508  10.796  21.294  0.00  0.00    +0.000 A 
ATOM     20  N   UNL     1      -0.069   9.682  21.837  0.00  0.00    +0.000 NA
ATOM     21  C   UNL     1       0.937   9.314  20.976  0.00  0.00    +0.000 A 
ATOM     22  N   UNL     1       1.109  10.131  19.927  0.00  0.00    +0.000 NA
ATOM     23  O   UNL     1       0.150  11.126  20.143  0.00  0.00    +0.000 OA
BRANCH  19  27
ATOM     24  C   UNL     1      -3.690  13.394  22.502  0.00  0.00    +0.000 A 
ATOM     25  C   UNL     1      -3.432  13.153  21.148  0.00  0.00    +0.000 A 
ATOM     26  C   UNL     1      -2.396  12.298  20.766  0.00  0.00    +0.000 A 
ATOM     27  C   UNL     1      -1.582  11.679  21.727  0.00  0.00    +0.000 A 
ATOM     28  C   UNL     1      -1.833  11.936  23.080  0.00  0.00    +0.000 A 
ATOM     29  C   UNL     1      -2.875  12.785  23.464  0.00  0.00    +0.000 A 
BRANCH  24  30
ATOM     30  C   UNL     1      -4.834  14.282  22.930  0.00  0.00    +0.000 C 
BRANCH  30  32
ATOM     31  C   UNL     1      -3.441  16.415  22.989  0.00  0.00    +0.000 C 
ATOM     32  C   UNL     1      -4.399  15.504  23.762  0.00  0.00    +0.000 C 
ATOM     33  C   UNL     1      -5.631  16.298  24.201  0.00  0.00    +0.000 C 
ENDBRANCH  30  32
ENDBRANCH  24  30
ENDBRANCH  19  27
ENDBRANCH  18  21
ENDBRANCH   1  18
TORSDOF 12
ENDMDL
