MODEL 1
REMARK VINA RESULT:      -8.4      0.000      0.000
REMARK  Name = 
REMARK  12 active torsions:
REMARK  status: ('A' for Active; 'I' for Inactive)
REMARK    1  A    between atoms: C_1  and  C_2
REMARK    2  A    between atoms: N_4  and  C_5
REMARK    3  A    between atoms: C_5  and  C_6
REMARK    4  A    between atoms: C_6  and  C_7
REMARK    5  A    between atoms: C_7  and  N_8
REMARK    6  A    between atoms: N_8  and  C_9
REMARK    7  A    between atoms: N_8  and  C_16
REMARK    8  A    between atoms: C_24  and  C_25
REMARK    9  A    between atoms: N_26  and  C_27
REMARK   10  A    between atoms: C_27  and  C_28
REMARK   11  A    between atoms: C_28  and  C_29
REMARK   12  A    between atoms: C_29  and  C_30
REMARK                            x       y       z     vdW  Elec       q    Type
REMARK                         _______ _______ _______ _____ _____    ______ ____
ROOT
ATOM      1  C   UNL     1       1.907   9.295  17.825  0.00  0.00    +0.000 C 
ENDROOT
BRANCH   1   5
ATOM      2  C   UNL     1      -1.617  11.709  19.039  0.00  0.00    +0.000 C 
ATOM      3  C   UNL     1      -0.269  11.791  19.786  0.00  0.00    +0.000 C 
ATOM      4  C   UNL     1       0.874  11.270  18.845  0.00  0.00    +0.000 C 
ATOM      5  N   UNL     1       0.833   9.801  18.691  0.00  0.00    +0.000 NA
ATOM      6  C   UNL     1       0.913   9.230  20.040  0.00  0.00    +0.000 C 
ATOM      7  C   UNL     1      -0.265   9.646  20.958  0.00  0.00    +0.000 C 
ATOM      8  C   UNL     1      -0.109   8.785  22.220  0.00  0.00    +0.000 C 
ATOM      9  N   UNL     1      -0.249  11.121  21.131  0.00  0.00    +0.000 NA
BRANCH   9  10
ATOM     10  C   UNL     1      -1.274  11.681  22.025  0.00  0.00    +0.000 C 
BRANCH  10  11
ATOM     11  C   UNL     1      -0.976  13.042  22.676  0.00  0.00    +0.000 C 
BRANCH  11  12
ATOM     12  C   UNL     1      -2.098  14.077  22.526  0.00  0.00    +0.000 C 
BRANCH  12  13
ATOM     13  C   UNL     1      -3.438  13.546  22.998  0.00  0.00    +0.000 A 
ATOM     14  C   UNL     1      -3.585  13.049  24.302  0.00  0.00    +0.000 A 
ATOM     15  C   UNL     1      -4.816  12.561  24.744  0.00  0.00    +0.000 A 
ATOM     16  C   UNL     1      -5.917  12.567  23.890  0.00  0.00    +0.000 A 
ATOM     17  C   UNL     1      -5.785  13.062  22.594  0.00  0.00    +0.000 A 
ATOM     18  C   UNL     1      -4.555  13.551  22.152  0.00  0.00    +0.000 A 
ENDBRANCH  12  13
ENDBRANCH  11  12
ENDBRANCH  10  11
ENDBRANCH   9  10
ENDBRANCH   1   5
BRANCH   1  19
ATOM     19  C   UNL     1       2.606   8.025  18.357  0.00  0.00    +0.000 C 
BRANCH  19  20
ATOM     20  C   UNL     1       2.248   6.760  17.557  0.00  0.00    +0.000 C 
BRANCH  20  21
ATOM     21  N   UNL     1       3.050   5.582  17.990  0.00  0.00    +0.000 N 
BRANCH  21  22
ATOM     22  C   UNL     1       2.480   4.777  19.015  0.00  0.00    +0.000 A 
ATOM     23  C   UNL     1       2.854   4.940  20.363  0.00  0.00    +0.000 A 
ATOM     24  C   UNL     1       2.278   4.174  21.386  0.00  0.00    +0.000 A 
ATOM     25  C   UNL     1       1.338   3.207  21.072  0.00  0.00    +0.000 A 
ATOM     26  F   UNL     1       0.792   2.470  22.047  0.00  0.00    +0.000 F 
ATOM     27  C   UNL     1       0.949   3.007  19.763  0.00  0.00    +0.000 A 
ATOM     28  C   UNL     1       1.508   3.797  18.753  0.00  0.00    +0.000 A 
ENDBRANCH  21  22
BRANCH  21  29
ATOM     29  C   UNL     1       4.283   5.336  17.332  0.00  0.00    +0.000 A 
ATOM     30  C   UNL     1       4.388   4.274  16.409  0.00  0.00    +0.000 A 
ATOM     31  C   UNL     1       5.570   4.019  15.706  0.00  0.00    +0.000 A 
ATOM     32  C   UNL     1       6.679   4.815  15.932  0.00  0.00    +0.000 A 
ATOM     33  F   UNL     1       7.813   4.581  15.259  0.00  0.00    +0.000 F 
ATOM     34  C   UNL     1       6.628   5.855  16.846  0.00  0.00    +0.000 A 
ATOM     35  C   UNL     1       5.438   6.112  17.538  0.00  0.00    +0.000 A 
ENDBRANCH  21  29
ENDBRANCH  20  21
ENDBRANCH  19  20
ENDBRANCH   1  19
TORSDOF 10
ENDMDL
MODEL 2
REMARK VINA RESULT:      -8.2      0.897      1.303
REMARK  Name = 
REMARK  12 active torsions:
REMARK  status: ('A' for Active; 'I' for Inactive)
REMARK    1  A    between atoms: C_1  and  C_2
REMARK    2  A    between atoms: N_4  and  C_5
REMARK    3  A    between atoms: C_5  and  C_6
REMARK    4  A    between atoms: C_6  and  C_7
REMARK    5  A    between atoms: C_7  and  N_8
REMARK    6  A    between atoms: N_8  and  C_9
REMARK    7  A    between atoms: N_8  and  C_16
REMARK    8  A    between atoms: C_24  and  C_25
REMARK    9  A    between atoms: N_26  and  C_27
REMARK   10  A    between atoms: C_27  and  C_28
REMARK   11  A    between atoms: C_28  and  C_29
REMARK   12  A    between atoms: C_29  and  C_30
REMARK                            x       y       z     vdW  Elec       q    Type
REMARK                         _______ _______ _______ _____ _____    ______ ____
ROOT
ATOM      1  C   UNL     1       1.959   9.424  18.051  0.00  0.00    +0.000 C 
ENDROOT
BRANCH   1   5
ATOM      2  C   UNL     1      -1.955  11.328  18.933  0.00  0.00    +0.000 C 
ATOM      3  C   UNL     1      -0.661  11.736  19.666  0.00  0.00    +0.000 C 
ATOM      4  C   UNL     1       0.579  11.305  18.804  0.00  0.00    +0.000 C 
ATOM      5  N   UNL     1       0.793   9.844  18.841  0.00  0.00    +0.000 NA
ATOM      6  C   UNL     1       0.934   9.471  20.253  0.00  0.00    +0.000 C 
ATOM      7  C   UNL     1      -0.320   9.791  21.106  0.00  0.00    +0.000 C 
ATOM      8  C   UNL     1      -0.050   9.137  22.470  0.00  0.00    +0.000 C 
ATOM      9  N   UNL     1      -0.560  11.256  21.086  0.00  0.00    +0.000 NA
BRANCH   9  10
ATOM     10  C   UNL     1      -1.688  11.741  21.898  0.00  0.00    +0.000 C 
BRANCH  10  11
ATOM     11  C   UNL     1      -1.733  13.244  22.219  0.00  0.00    +0.000 C 
BRANCH  11  12
ATOM     12  C   UNL     1      -2.877  14.005  21.537  0.00  0.00    +0.000 C 
BRANCH  12  13
ATOM     13  C   UNL     1      -4.241  13.495  21.962  0.00  0.00    +0.000 A 
ATOM     14  C   UNL     1      -4.640  13.574  23.305  0.00  0.00    +0.000 A 
ATOM     15  C   UNL     1      -5.895  13.110  23.703  0.00  0.00    +0.000 A 
ATOM     16  C   UNL     1      -6.768  12.565  22.764  0.00  0.00    +0.000 A 
ATOM     17  C   UNL     1      -6.386  12.485  21.426  0.00  0.00    +0.000 A 
ATOM     18  C   UNL     1      -5.132  12.950  21.027  0.00  0.00    +0.000 A 
ENDBRANCH  12  13
ENDBRANCH  11  12
ENDBRANCH  10  11
ENDBRANCH   9  10
ENDBRANCH   1   5
BRANCH   1  19
ATOM     19  C   UNL     1       2.104   7.894  17.897  0.00  0.00    +0.000 C 
BRANCH  19  20
ATOM     20  C   UNL     1       3.557   7.410  18.032  0.00  0.00    +0.000 C 
BRANCH  20  21
ATOM     21  N   UNL     1       3.668   5.932  17.888  0.00  0.00    +0.000 N 
BRANCH  21  22
ATOM     22  C   UNL     1       2.886   5.153  18.787  0.00  0.00    +0.000 A 
ATOM     23  C   UNL     1       1.868   4.302  18.317  0.00  0.00    +0.000 A 
ATOM     24  C   UNL     1       1.111   3.506  19.188  0.00  0.00    +0.000 A 
ATOM     25  C   UNL     1       1.340   3.574  20.552  0.00  0.00    +0.000 A 
ATOM     26  F   UNL     1       0.613   2.821  21.386  0.00  0.00    +0.000 F 
ATOM     27  C   UNL     1       2.323   4.402  21.057  0.00  0.00    +0.000 A 
ATOM     28  C   UNL     1       3.092   5.170  20.176  0.00  0.00    +0.000 A 
ENDBRANCH  21  22
BRANCH  21  29
ATOM     29  C   UNL     1       4.502   5.423  16.860  0.00  0.00    +0.000 A 
ATOM     30  C   UNL     1       4.815   4.047  16.824  0.00  0.00    +0.000 A 
ATOM     31  C   UNL     1       5.598   3.493  15.807  0.00  0.00    +0.000 A 
ATOM     32  C   UNL     1       6.102   4.314  14.813  0.00  0.00    +0.000 A 
ATOM     33  F   UNL     1       6.849   3.790  13.834  0.00  0.00    +0.000 F 
ATOM     34  C   UNL     1       5.840   5.675  14.822  0.00  0.00    +0.000 A 
ATOM     35  C   UNL     1       5.045   6.222  15.837  0.00  0.00    +0.000 A 
ENDBRANCH  21  29
ENDBRANCH  20  21
ENDBRANCH  19  20
ENDBRANCH   1  19
TORSDOF 10
ENDMDL
MODEL 3
REMARK VINA RESULT:      -8.2      0.953      4.179
REMARK  Name = 
REMARK  12 active torsions:
REMARK  status: ('A' for Active; 'I' for Inactive)
REMARK    1  A    between atoms: C_1  and  C_2
REMARK    2  A    between atoms: N_4  and  C_5
REMARK    3  A    between atoms: C_5  and  C_6
REMARK    4  A    between atoms: C_6  and  C_7
REMARK    5  A    between atoms: C_7  and  N_8
REMARK    6  A    between atoms: N_8  and  C_9
REMARK    7  A    between atoms: N_8  and  C_16
REMARK    8  A    between atoms: C_24  and  C_25
REMARK    9  A    between atoms: N_26  and  C_27
REMARK   10  A    between atoms: C_27  and  C_28
REMARK   11  A    between atoms: C_28  and  C_29
REMARK   12  A    between atoms: C_29  and  C_30
REMARK                            x       y       z     vdW  Elec       q    Type
REMARK                         _______ _______ _______ _____ _____    ______ ____
ROOT
ATOM      1  C   UNL     1       1.671   9.065  17.728  0.00  0.00    +0.000 C 
ENDROOT
BRANCH   1   5
ATOM      2  C   UNL     1      -0.546  12.768  18.773  0.00  0.00    +0.000 C 
ATOM      3  C   UNL     1       0.735  12.340  19.518  0.00  0.00    +0.000 C 
ATOM      4  C   UNL     1       1.549  11.345  18.618  0.00  0.00    +0.000 C 
ATOM      5  N   UNL     1       0.913  10.014  18.556  0.00  0.00    +0.000 NA
ATOM      6  C   UNL     1       0.783   9.540  19.938  0.00  0.00    +0.000 C 
ATOM      7  C   UNL     1      -0.105  10.452  20.823  0.00  0.00    +0.000 C 
ATOM      8  C   UNL     1      -0.283   9.678  22.138  0.00  0.00    +0.000 C 
ATOM      9  N   UNL     1       0.511  11.801  20.903  0.00  0.00    +0.000 NA
BRANCH   9  10
ATOM     10  C   UNL     1      -0.180  12.781  21.756  0.00  0.00    +0.000 C 
BRANCH  10  11
ATOM     11  C   UNL     1      -1.717  12.755  21.761  0.00  0.00    +0.000 C 
BRANCH  11  12
ATOM     12  C   UNL     1      -2.345  12.585  23.150  0.00  0.00    +0.000 C 
BRANCH  12  13
ATOM     13  C   UNL     1      -3.858  12.667  23.112  0.00  0.00    +0.000 A 
ATOM     14  C   UNL     1      -4.599  12.675  24.304  0.00  0.00    +0.000 A 
ATOM     15  C   UNL     1      -5.992  12.753  24.277  0.00  0.00    +0.000 A 
ATOM     16  C   UNL     1      -6.664  12.828  23.059  0.00  0.00    +0.000 A 
ATOM     17  C   UNL     1      -5.941  12.825  21.868  0.00  0.00    +0.000 A 
ATOM     18  C   UNL     1      -4.547  12.749  21.894  0.00  0.00    +0.000 A 
ENDBRANCH  12  13
ENDBRANCH  11  12
ENDBRANCH  10  11
ENDBRANCH   9  10
ENDBRANCH   1   5
BRANCH   1  19
ATOM     19  C   UNL     1       2.101   7.779  18.469  0.00  0.00    +0.000 C 
BRANCH  19  20
ATOM     20  C   UNL     1       3.521   7.318  18.100  0.00  0.00    +0.000 C 
BRANCH  20  21
ATOM     21  N   UNL     1       3.601   5.841  17.931  0.00  0.00    +0.000 N 
BRANCH  21  22
ATOM     22  C   UNL     1       4.470   5.372  16.906  0.00  0.00    +0.000 A 
ATOM     23  C   UNL     1       4.794   4.007  16.792  0.00  0.00    +0.000 A 
ATOM     24  C   UNL     1       5.623   3.527  15.770  0.00  0.00    +0.000 A 
ATOM     25  C   UNL     1       6.171   4.415  14.859  0.00  0.00    +0.000 A 
ATOM     26  F   UNL     1       6.969   3.960  13.886  0.00  0.00    +0.000 F 
ATOM     27  C   UNL     1       5.888   5.764  14.938  0.00  0.00    +0.000 A 
ATOM     28  C   UNL     1       5.036   6.228  15.946  0.00  0.00    +0.000 A 
ENDBRANCH  21  22
BRANCH  21  29
ATOM     29  C   UNL     1       2.846   5.027  18.814  0.00  0.00    +0.000 A 
ATOM     30  C   UNL     1       3.194   4.959  20.180  0.00  0.00    +0.000 A 
ATOM     31  C   UNL     1       2.455   4.203  21.095  0.00  0.00    +0.000 A 
ATOM     32  C   UNL     1       1.360   3.481  20.652  0.00  0.00    +0.000 A 
ATOM     33  F   UNL     1       0.645   2.759  21.522  0.00  0.00    +0.000 F 
ATOM     34  C   UNL     1       0.996   3.500  19.315  0.00  0.00    +0.000 A 
ATOM     35  C   UNL     1       1.733   4.268  18.406  0.00  0.00    +0.000 A 
ENDBRANCH  21  29
ENDBRANCH  20  21
ENDBRANCH  19  20
ENDBRANCH   1  19
TORSDOF 10
ENDMDL
MODEL 4
REMARK VINA RESULT:      -8.1      0.687      1.312
REMARK  Name = 
REMARK  12 active torsions:
REMARK  status: ('A' for Active; 'I' for Inactive)
REMARK    1  A    between atoms: C_1  and  C_2
REMARK    2  A    between atoms: N_4  and  C_5
REMARK    3  A    between atoms: C_5  and  C_6
REMARK    4  A    between atoms: C_6  and  C_7
REMARK    5  A    between atoms: C_7  and  N_8
REMARK    6  A    between atoms: N_8  and  C_9
REMARK    7  A    between atoms: N_8  and  C_16
REMARK    8  A    between atoms: C_24  and  C_25
REMARK    9  A    between atoms: N_26  and  C_27
REMARK   10  A    between atoms: C_27  and  C_28
REMARK   11  A    between atoms: C_28  and  C_29
REMARK   12  A    between atoms: C_29  and  C_30
REMARK                            x       y       z     vdW  Elec       q    Type
REMARK                         _______ _______ _______ _____ _____    ______ ____
ROOT
ATOM      1  C   UNL     1       1.987   9.018  17.996  0.00  0.00    +0.000 C 
ENDROOT
BRANCH   1   5
ATOM      2  C   UNL     1      -1.516  11.598  18.890  0.00  0.00    +0.000 C 
ATOM      3  C   UNL     1      -0.177  11.742  19.643  0.00  0.00    +0.000 C 
ATOM      4  C   UNL     1       0.971  11.106  18.781  0.00  0.00    +0.000 C 
ATOM      5  N   UNL     1       0.909   9.630  18.786  0.00  0.00    +0.000 NA
ATOM      6  C   UNL     1       0.962   9.207  20.190  0.00  0.00    +0.000 C 
ATOM      7  C   UNL     1      -0.221   9.737  21.040  0.00  0.00    +0.000 C 
ATOM      8  C   UNL     1      -0.094   9.016  22.391  0.00  0.00    +0.000 C 
ATOM      9  N   UNL     1      -0.185  11.221  21.053  0.00  0.00    +0.000 NA
BRANCH   9  10
ATOM     10  C   UNL     1      -1.213  11.890  21.866  0.00  0.00    +0.000 C 
BRANCH  10  11
ATOM     11  C   UNL     1      -0.930  13.334  22.314  0.00  0.00    +0.000 C 
BRANCH  11  12
ATOM     12  C   UNL     1      -1.622  13.739  23.622  0.00  0.00    +0.000 C 
BRANCH  12  13
ATOM     13  C   UNL     1      -3.128  13.583  23.549  0.00  0.00    +0.000 A 
ATOM     14  C   UNL     1      -3.872  14.310  22.607  0.00  0.00    +0.000 A 
ATOM     15  C   UNL     1      -5.259  14.170  22.532  0.00  0.00    +0.000 A 
ATOM     16  C   UNL     1      -5.920  13.298  23.395  0.00  0.00    +0.000 A 
ATOM     17  C   UNL     1      -5.193  12.567  24.332  0.00  0.00    +0.000 A 
ATOM     18  C   UNL     1      -3.806  12.705  24.407  0.00  0.00    +0.000 A 
ENDBRANCH  12  13
ENDBRANCH  11  12
ENDBRANCH  10  11
ENDBRANCH   9  10
ENDBRANCH   1   5
BRANCH   1  19
ATOM     19  C   UNL     1       2.556   7.716  18.602  0.00  0.00    +0.000 C 
BRANCH  19  20
ATOM     20  C   UNL     1       2.220   6.467  17.769  0.00  0.00    +0.000 C 
BRANCH  20  21
ATOM     21  N   UNL     1       3.142   5.336  18.064  0.00  0.00    +0.000 N 
BRANCH  21  22
ATOM     22  C   UNL     1       2.752   4.465  19.119  0.00  0.00    +0.000 A 
ATOM     23  C   UNL     1       3.669   3.572  19.705  0.00  0.00    +0.000 A 
ATOM     24  C   UNL     1       3.306   2.731  20.766  0.00  0.00    +0.000 A 
ATOM     25  C   UNL     1       2.005   2.746  21.238  0.00  0.00    +0.000 A 
ATOM     26  F   UNL     1       1.654   1.939  22.246  0.00  0.00    +0.000 F 
ATOM     27  C   UNL     1       1.069   3.600  20.687  0.00  0.00    +0.000 A 
ATOM     28  C   UNL     1       1.450   4.456  19.648  0.00  0.00    +0.000 A 
ENDBRANCH  21  22
BRANCH  21  29
ATOM     29  C   UNL     1       4.302   5.194  17.258  0.00  0.00    +0.000 A 
ATOM     30  C   UNL     1       5.382   6.089  17.416  0.00  0.00    +0.000 A 
ATOM     31  C   UNL     1       6.561   5.964  16.674  0.00  0.00    +0.000 A 
ATOM     32  C   UNL     1       6.672   4.946  15.742  0.00  0.00    +0.000 A 
ATOM     33  F   UNL     1       7.799   4.817  15.032  0.00  0.00    +0.000 F 
ATOM     34  C   UNL     1       5.628   4.059  15.538  0.00  0.00    +0.000 A 
ATOM     35  C   UNL     1       4.454   4.183  16.292  0.00  0.00    +0.000 A 
ENDBRANCH  21  29
ENDBRANCH  20  21
ENDBRANCH  19  20
ENDBRANCH   1  19
TORSDOF 10
ENDMDL
MODEL 5
REMARK VINA RESULT:      -8.1      1.008      1.942
REMARK  Name = 
REMARK  12 active torsions:
REMARK  status: ('A' for Active; 'I' for Inactive)
REMARK    1  A    between atoms: C_1  and  C_2
REMARK    2  A    between atoms: N_4  and  C_5
REMARK    3  A    between atoms: C_5  and  C_6
REMARK    4  A    between atoms: C_6  and  C_7
REMARK    5  A    between atoms: C_7  and  N_8
REMARK    6  A    between atoms: N_8  and  C_9
REMARK    7  A    between atoms: N_8  and  C_16
REMARK    8  A    between atoms: C_24  and  C_25
REMARK    9  A    between atoms: N_26  and  C_27
REMARK   10  A    between atoms: C_27  and  C_28
REMARK   11  A    between atoms: C_28  and  C_29
REMARK   12  A    between atoms: C_29  and  C_30
REMARK                            x       y       z     vdW  Elec       q    Type
REMARK                         _______ _______ _______ _____ _____    ______ ____
ROOT
ATOM      1  C   UNL     1       1.602   9.294  18.355  0.00  0.00    +0.000 C 
ENDROOT
BRANCH   1   5
ATOM      2  C   UNL     1      -0.193   9.545  22.410  0.00  0.00    +0.000 C 
ATOM      3  C   UNL     1      -0.830  10.235  21.186  0.00  0.00    +0.000 C 
ATOM      4  C   UNL     1      -0.304   9.550  19.875  0.00  0.00    +0.000 C 
ATOM      5  N   UNL     1       1.098   9.915  19.588  0.00  0.00    +0.000 NA
ATOM      6  C   UNL     1       1.149  11.380  19.515  0.00  0.00    +0.000 C 
ATOM      7  C   UNL     1       0.734  12.080  20.835  0.00  0.00    +0.000 C 
ATOM      8  C   UNL     1       1.061  13.565  20.616  0.00  0.00    +0.000 C 
ATOM      9  N   UNL     1      -0.674  11.729  21.149  0.00  0.00    +0.000 NA
BRANCH   9  10
ATOM     10  C   UNL     1      -1.248  12.359  22.349  0.00  0.00    +0.000 C 
BRANCH  10  11
ATOM     11  C   UNL     1      -2.767  12.601  22.361  0.00  0.00    +0.000 C 
BRANCH  11  12
ATOM     12  C   UNL     1      -3.416  12.490  23.746  0.00  0.00    +0.000 C 
BRANCH  12  13
ATOM     13  C   UNL     1      -4.731  13.240  23.827  0.00  0.00    +0.000 A 
ATOM     14  C   UNL     1      -5.930  12.548  24.061  0.00  0.00    +0.000 A 
ATOM     15  C   UNL     1      -7.144  13.232  24.141  0.00  0.00    +0.000 A 
ATOM     16  C   UNL     1      -7.176  14.616  23.990  0.00  0.00    +0.000 A 
ATOM     17  C   UNL     1      -5.993  15.316  23.762  0.00  0.00    +0.000 A 
ATOM     18  C   UNL     1      -4.778  14.633  23.684  0.00  0.00    +0.000 A 
ENDBRANCH  12  13
ENDBRANCH  11  12
ENDBRANCH  10  11
ENDBRANCH   9  10
ENDBRANCH   1   5
BRANCH   1  19
ATOM     19  C   UNL     1       2.502   8.061  18.588  0.00  0.00    +0.000 C 
BRANCH  19  20
ATOM     20  C   UNL     1       2.138   6.870  17.685  0.00  0.00    +0.000 C 
BRANCH  20  21
ATOM     21  N   UNL     1       2.927   5.653  18.022  0.00  0.00    +0.000 N 
BRANCH  21  22
ATOM     22  C   UNL     1       2.394   4.823  19.048  0.00  0.00    +0.000 A 
ATOM     23  C   UNL     1       2.841   4.930  20.379  0.00  0.00    +0.000 A 
ATOM     24  C   UNL     1       2.304   4.140  21.404  0.00  0.00    +0.000 A 
ATOM     25  C   UNL     1       1.328   3.203  21.107  0.00  0.00    +0.000 A 
ATOM     26  F   UNL     1       0.818   2.443  22.083  0.00  0.00    +0.000 F 
ATOM     27  C   UNL     1       0.867   3.058  19.813  0.00  0.00    +0.000 A 
ATOM     28  C   UNL     1       1.390   3.872  18.803  0.00  0.00    +0.000 A 
ENDBRANCH  21  22
BRANCH  21  29
ATOM     29  C   UNL     1       4.111   5.400  17.282  0.00  0.00    +0.000 A 
ATOM     30  C   UNL     1       5.141   6.365  17.249  0.00  0.00    +0.000 A 
ATOM     31  C   UNL     1       6.341   6.143  16.568  0.00  0.00    +0.000 A 
ATOM     32  C   UNL     1       6.525   4.952  15.887  0.00  0.00    +0.000 A 
ATOM     33  F   UNL     1       7.674   4.730  15.236  0.00  0.00    +0.000 F 
ATOM     34  C   UNL     1       5.532   3.986  15.873  0.00  0.00    +0.000 A 
ATOM     35  C   UNL     1       4.336   4.210  16.566  0.00  0.00    +0.000 A 
ENDBRANCH  21  29
ENDBRANCH  20  21
ENDBRANCH  19  20
ENDBRANCH   1  19
TORSDOF 10
ENDMDL
MODEL 6
REMARK VINA RESULT:      -8.1      2.191      5.260
REMARK  Name = 
REMARK  12 active torsions:
REMARK  status: ('A' for Active; 'I' for Inactive)
REMARK    1  A    between atoms: C_1  and  C_2
REMARK    2  A    between atoms: N_4  and  C_5
REMARK    3  A    between atoms: C_5  and  C_6
REMARK    4  A    between atoms: C_6  and  C_7
REMARK    5  A    between atoms: C_7  and  N_8
REMARK    6  A    between atoms: N_8  and  C_9
REMARK    7  A    between atoms: N_8  and  C_16
REMARK    8  A    between atoms: C_24  and  C_25
REMARK    9  A    between atoms: N_26  and  C_27
REMARK   10  A    between atoms: C_27  and  C_28
REMARK   11  A    between atoms: C_28  and  C_29
REMARK   12  A    between atoms: C_29  and  C_30
REMARK                            x       y       z     vdW  Elec       q    Type
REMARK                         _______ _______ _______ _____ _____    ______ ____
ROOT
ATOM      1  C   UNL     1       1.983   9.308  17.833  0.00  0.00    +0.000 C 
ENDROOT
BRANCH   1   5
ATOM      2  C   UNL     1      -0.523  12.847  18.790  0.00  0.00    +0.000 C 
ATOM      3  C   UNL     1       0.753  12.506  19.586  0.00  0.00    +0.000 C 
ATOM      4  C   UNL     1       1.669  11.572  18.718  0.00  0.00    +0.000 C 
ATOM      5  N   UNL     1       1.129  10.200  18.630  0.00  0.00    +0.000 NA
ATOM      6  C   UNL     1       0.977   9.714  20.006  0.00  0.00    +0.000 C 
ATOM      7  C   UNL     1      -0.006  10.560  20.855  0.00  0.00    +0.000 C 
ATOM      8  C   UNL     1      -0.183   9.772  22.161  0.00  0.00    +0.000 C 
ATOM      9  N   UNL     1       0.512  11.948  20.960  0.00  0.00    +0.000 NA
BRANCH   9  10
ATOM     10  C   UNL     1      -0.278  12.876  21.785  0.00  0.00    +0.000 C 
BRANCH  10  11
ATOM     11  C   UNL     1       0.275  14.298  21.974  0.00  0.00    +0.000 C 
BRANCH  11  12
ATOM     12  C   UNL     1      -0.679  15.414  21.529  0.00  0.00    +0.000 C 
BRANCH  12  13
ATOM     13  C   UNL     1      -0.197  16.119  20.277  0.00  0.00    +0.000 A 
ATOM     14  C   UNL     1      -1.117  16.707  19.395  0.00  0.00    +0.000 A 
ATOM     15  C   UNL     1      -0.681  17.360  18.241  0.00  0.00    +0.000 A 
ATOM     16  C   UNL     1       0.681  17.437  17.955  0.00  0.00    +0.000 A 
ATOM     17  C   UNL     1       1.605  16.861  18.824  0.00  0.00    +0.000 A 
ATOM     18  C   UNL     1       1.170  16.209  19.979  0.00  0.00    +0.000 A 
ENDBRANCH  12  13
ENDBRANCH  11  12
ENDBRANCH  10  11
ENDBRANCH   9  10
ENDBRANCH   1   5
BRANCH   1  19
ATOM     19  C   UNL     1       2.287   7.951  18.507  0.00  0.00    +0.000 C 
BRANCH  19  20
ATOM     20  C   UNL     1       2.147   6.757  17.548  0.00  0.00    +0.000 C 
BRANCH  20  21
ATOM     21  N   UNL     1       2.929   5.577  18.009  0.00  0.00    +0.000 N 
BRANCH  21  22
ATOM     22  C   UNL     1       4.166   5.345  17.345  0.00  0.00    +0.000 A 
ATOM     23  C   UNL     1       4.381   4.175  16.592  0.00  0.00    +0.000 A 
ATOM     24  C   UNL     1       5.583   3.948  15.908  0.00  0.00    +0.000 A 
ATOM     25  C   UNL     1       6.606   4.877  15.994  0.00  0.00    +0.000 A 
ATOM     26  F   UNL     1       7.758   4.659  15.347  0.00  0.00    +0.000 F 
ATOM     27  C   UNL     1       6.442   6.034  16.729  0.00  0.00    +0.000 A 
ATOM     28  C   UNL     1       5.227   6.265  17.384  0.00  0.00    +0.000 A 
ENDBRANCH  21  22
BRANCH  21  29
ATOM     29  C   UNL     1       2.407   4.809  19.082  0.00  0.00    +0.000 A 
ATOM     30  C   UNL     1       1.381   3.870  18.842  0.00  0.00    +0.000 A 
ATOM     31  C   UNL     1       0.865   3.062  19.859  0.00  0.00    +0.000 A 
ATOM     32  C   UNL     1       1.355   3.195  21.147  0.00  0.00    +0.000 A 
ATOM     33  F   UNL     1       0.870   2.421  22.125  0.00  0.00    +0.000 F 
ATOM     34  C   UNL     1       2.346   4.120  21.433  0.00  0.00    +0.000 A 
ATOM     35  C   UNL     1       2.867   4.919  20.407  0.00  0.00    +0.000 A 
ENDBRANCH  21  29
ENDBRANCH  20  21
ENDBRANCH  19  20
ENDBRANCH   1  19
TORSDOF 10
ENDMDL
MODEL 7
REMARK VINA RESULT:      -8.0      1.140      4.211
REMARK  Name = 
REMARK  12 active torsions:
REMARK  status: ('A' for Active; 'I' for Inactive)
REMARK    1  A    between atoms: C_1  and  C_2
REMARK    2  A    between atoms: N_4  and  C_5
REMARK    3  A    between atoms: C_5  and  C_6
REMARK    4  A    between atoms: C_6  and  C_7
REMARK    5  A    between atoms: C_7  and  N_8
REMARK    6  A    between atoms: N_8  and  C_9
REMARK    7  A    between atoms: N_8  and  C_16
REMARK    8  A    between atoms: C_24  and  C_25
REMARK    9  A    between atoms: N_26  and  C_27
REMARK   10  A    between atoms: C_27  and  C_28
REMARK   11  A    between atoms: C_28  and  C_29
REMARK   12  A    between atoms: C_29  and  C_30
REMARK                            x       y       z     vdW  Elec       q    Type
REMARK                         _______ _______ _______ _____ _____    ______ ____
ROOT
ATOM      1  C   UNL     1       1.917   8.505  19.469  0.00  0.00    +0.000 C 
ENDROOT
BRANCH   1   5
ATOM      2  C   UNL     1      -1.869  10.395  18.120  0.00  0.00    +0.000 C 
ATOM      3  C   UNL     1      -0.601  11.221  18.421  0.00  0.00    +0.000 C 
ATOM      4  C   UNL     1       0.655  10.283  18.348  0.00  0.00    +0.000 C 
ATOM      5  N   UNL     1       0.737   9.380  19.515  0.00  0.00    +0.000 NA
ATOM      6  C   UNL     1       0.740  10.231  20.710  0.00  0.00    +0.000 C 
ATOM      7  C   UNL     1      -0.541  11.091  20.861  0.00  0.00    +0.000 C 
ATOM      8  C   UNL     1      -0.431  11.725  22.256  0.00  0.00    +0.000 C 
ATOM      9  N   UNL     1      -0.649  12.009  19.700  0.00  0.00    +0.000 NA
BRANCH   9  10
ATOM     10  C   UNL     1      -1.787  12.942  19.713  0.00  0.00    +0.000 C 
BRANCH  10  11
ATOM     11  C   UNL     1      -3.126  12.416  20.255  0.00  0.00    +0.000 C 
BRANCH  11  12
ATOM     12  C   UNL     1      -4.049  13.499  20.829  0.00  0.00    +0.000 C 
BRANCH  12  13
ATOM     13  C   UNL     1      -4.612  13.116  22.184  0.00  0.00    +0.000 A 
ATOM     14  C   UNL     1      -3.751  12.790  23.243  0.00  0.00    +0.000 A 
ATOM     15  C   UNL     1      -4.262  12.439  24.494  0.00  0.00    +0.000 A 
ATOM     16  C   UNL     1      -5.640  12.414  24.703  0.00  0.00    +0.000 A 
ATOM     17  C   UNL     1      -6.505  12.740  23.661  0.00  0.00    +0.000 A 
ATOM     18  C   UNL     1      -5.995  13.092  22.410  0.00  0.00    +0.000 A 
ENDBRANCH  12  13
ENDBRANCH  11  12
ENDBRANCH  10  11
ENDBRANCH   9  10
ENDBRANCH   1   5
BRANCH   1  19
ATOM     19  C   UNL     1       2.071   7.716  18.150  0.00  0.00    +0.000 C 
BRANCH  19  20
ATOM     20  C   UNL     1       3.512   7.240  17.899  0.00  0.00    +0.000 C 
BRANCH  20  21
ATOM     21  N   UNL     1       3.603   5.756  17.826  0.00  0.00    +0.000 N 
BRANCH  21  22
ATOM     22  C   UNL     1       4.464   5.228  16.823  0.00  0.00    +0.000 A 
ATOM     23  C   UNL     1       5.103   6.070  15.894  0.00  0.00    +0.000 A 
ATOM     24  C   UNL     1       5.978   5.567  14.921  0.00  0.00    +0.000 A 
ATOM     25  C   UNL     1       6.203   4.203  14.841  0.00  0.00    +0.000 A 
ATOM     26  F   UNL     1       7.032   3.720  13.909  0.00  0.00    +0.000 F 
ATOM     27  C   UNL     1       5.590   3.339  15.727  0.00  0.00    +0.000 A 
ATOM     28  C   UNL     1       4.742   3.855  16.713  0.00  0.00    +0.000 A 
ENDBRANCH  21  22
BRANCH  21  29
ATOM     29  C   UNL     1       2.865   4.995  18.769  0.00  0.00    +0.000 A 
ATOM     30  C   UNL     1       1.814   4.161  18.332  0.00  0.00    +0.000 A 
ATOM     31  C   UNL     1       1.086   3.362  19.219  0.00  0.00    +0.000 A 
ATOM     32  C   UNL     1       1.387   3.399  20.570  0.00  0.00    +0.000 A 
ATOM     33  F   UNL     1       0.698   2.633  21.425  0.00  0.00    +0.000 F 
ATOM     34  C   UNL     1       2.396   4.220  21.046  0.00  0.00    +0.000 A 
ATOM     35  C   UNL     1       3.128   5.010  20.151  0.00  0.00    +0.000 A 
ENDBRANCH  21  29
ENDBRANCH  20  21
ENDBRANCH  19  20
ENDBRANCH   1  19
TORSDOF 10
ENDMDL
MODEL 8
REMARK VINA RESULT:      -7.9      0.969      1.568
REMARK  Name = 
REMARK  12 active torsions:
REMARK  status: ('A' for Active; 'I' for Inactive)
REMARK    1  A    between atoms: C_1  and  C_2
REMARK    2  A    between atoms: N_4  and  C_5
REMARK    3  A    between atoms: C_5  and  C_6
REMARK    4  A    between atoms: C_6  and  C_7
REMARK    5  A    between atoms: C_7  and  N_8
REMARK    6  A    between atoms: N_8  and  C_9
REMARK    7  A    between atoms: N_8  and  C_16
REMARK    8  A    between atoms: C_24  and  C_25
REMARK    9  A    between atoms: N_26  and  C_27
REMARK   10  A    between atoms: C_27  and  C_28
REMARK   11  A    between atoms: C_28  and  C_29
REMARK   12  A    between atoms: C_29  and  C_30
REMARK                            x       y       z     vdW  Elec       q    Type
REMARK                         _______ _______ _______ _____ _____    ______ ____
ROOT
ATOM      1  C   UNL     1       1.804   8.210  19.827  0.00  0.00    +0.000 C 
ENDROOT
BRANCH   1   5
ATOM      2  C   UNL     1      -1.548  10.458  17.974  0.00  0.00    +0.000 C 
ATOM      3  C   UNL     1      -0.302  11.165  18.544  0.00  0.00    +0.000 C 
ATOM      4  C   UNL     1       0.882  10.138  18.626  0.00  0.00    +0.000 C 
ATOM      5  N   UNL     1       0.695   9.170  19.726  0.00  0.00    +0.000 NA
ATOM      6  C   UNL     1       0.544   9.951  20.959  0.00  0.00    +0.000 C 
ATOM      7  C   UNL     1      -0.683  10.899  20.944  0.00  0.00    +0.000 C 
ATOM      8  C   UNL     1      -0.779  11.446  22.376  0.00  0.00    +0.000 C 
ATOM      9  N   UNL     1      -0.522  11.884  19.845  0.00  0.00    +0.000 NA
BRANCH   9  10
ATOM     10  C   UNL     1      -1.579  12.901  19.724  0.00  0.00    +0.000 C 
BRANCH  10  11
ATOM     11  C   UNL     1      -1.293  14.292  20.313  0.00  0.00    +0.000 C 
BRANCH  11  12
ATOM     12  C   UNL     1      -2.527  15.011  20.873  0.00  0.00    +0.000 C 
BRANCH  12  13
ATOM     13  C   UNL     1      -3.039  14.367  22.147  0.00  0.00    +0.000 A 
ATOM     14  C   UNL     1      -2.502  14.732  23.392  0.00  0.00    +0.000 A 
ATOM     15  C   UNL     1      -2.970  14.147  24.569  0.00  0.00    +0.000 A 
ATOM     16  C   UNL     1      -3.984  13.192  24.519  0.00  0.00    +0.000 A 
ATOM     17  C   UNL     1      -4.528  12.823  23.290  0.00  0.00    +0.000 A 
ATOM     18  C   UNL     1      -4.062  13.410  22.112  0.00  0.00    +0.000 A 
ENDBRANCH  12  13
ENDBRANCH  11  12
ENDBRANCH  10  11
ENDBRANCH   9  10
ENDBRANCH   1   5
BRANCH   1  19
ATOM     19  C   UNL     1       2.583   7.999  18.509  0.00  0.00    +0.000 C 
BRANCH  19  20
ATOM     20  C   UNL     1       2.114   6.763  17.723  0.00  0.00    +0.000 C 
BRANCH  20  21
ATOM     21  N   UNL     1       2.913   5.553  18.059  0.00  0.00    +0.000 N 
BRANCH  21  22
ATOM     22  C   UNL     1       2.391   4.722  19.089  0.00  0.00    +0.000 A 
ATOM     23  C   UNL     1       2.885   4.795  20.406  0.00  0.00    +0.000 A 
ATOM     24  C   UNL     1       2.359   4.004  21.437  0.00  0.00    +0.000 A 
ATOM     25  C   UNL     1       1.349   3.099  21.159  0.00  0.00    +0.000 A 
ATOM     26  F   UNL     1       0.850   2.338  22.140  0.00  0.00    +0.000 F 
ATOM     27  C   UNL     1       0.841   2.988  19.880  0.00  0.00    +0.000 A 
ATOM     28  C   UNL     1       1.353   3.803  18.864  0.00  0.00    +0.000 A 
ENDBRANCH  21  22
BRANCH  21  29
ATOM     29  C   UNL     1       4.095   5.306  17.314  0.00  0.00    +0.000 A 
ATOM     30  C   UNL     1       5.092   6.302  17.224  0.00  0.00    +0.000 A 
ATOM     31  C   UNL     1       6.290   6.089  16.536  0.00  0.00    +0.000 A 
ATOM     32  C   UNL     1       6.504   4.876  15.904  0.00  0.00    +0.000 A 
ATOM     33  F   UNL     1       7.651   4.663  15.247  0.00  0.00    +0.000 F 
ATOM     34  C   UNL     1       5.544   3.878  15.947  0.00  0.00    +0.000 A 
ATOM     35  C   UNL     1       4.350   4.094  16.647  0.00  0.00    +0.000 A 
ENDBRANCH  21  29
ENDBRANCH  20  21
ENDBRANCH  19  20
ENDBRANCH   1  19
TORSDOF 10
ENDMDL
MODEL 9
REMARK VINA RESULT:      -7.9      0.861      4.300
REMARK  Name = 
REMARK  12 active torsions:
REMARK  status: ('A' for Active; 'I' for Inactive)
REMARK    1  A    between atoms: C_1  and  C_2
REMARK    2  A    between atoms: N_4  and  C_5
REMARK    3  A    between atoms: C_5  and  C_6
REMARK    4  A    between atoms: C_6  and  C_7
REMARK    5  A    between atoms: C_7  and  N_8
REMARK    6  A    between atoms: N_8  and  C_9
REMARK    7  A    between atoms: N_8  and  C_16
REMARK    8  A    between atoms: C_24  and  C_25
REMARK    9  A    between atoms: N_26  and  C_27
REMARK   10  A    between atoms: C_27  and  C_28
REMARK   11  A    between atoms: C_28  and  C_29
REMARK   12  A    between atoms: C_29  and  C_30
REMARK                            x       y       z     vdW  Elec       q    Type
REMARK                         _______ _______ _______ _____ _____    ______ ____
ROOT
ATOM      1  C   UNL     1       1.235   9.202  17.969  0.00  0.00    +0.000 C 
ENDROOT
BRANCH   1   5
ATOM      2  C   UNL     1      -1.638  12.211  19.523  0.00  0.00    +0.000 C 
ATOM      3  C   UNL     1      -0.166  12.168  19.982  0.00  0.00    +0.000 C 
ATOM      4  C   UNL     1       0.686  11.397  18.913  0.00  0.00    +0.000 C 
ATOM      5  N   UNL     1       0.434   9.942  18.954  0.00  0.00    +0.000 NA
ATOM      6  C   UNL     1       0.719   9.500  20.324  0.00  0.00    +0.000 C 
ATOM      7  C   UNL     1      -0.184  10.171  21.390  0.00  0.00    +0.000 C 
ATOM      8  C   UNL     1       0.123   9.424  22.697  0.00  0.00    +0.000 C 
ATOM      9  N   UNL     1       0.049  11.637  21.371  0.00  0.00    +0.000 NA
BRANCH   9  10
ATOM     10  C   UNL     1      -0.693  12.427  22.368  0.00  0.00    +0.000 C 
BRANCH  10  11
ATOM     11  C   UNL     1      -1.970  11.803  22.954  0.00  0.00    +0.000 C 
BRANCH  11  12
ATOM     12  C   UNL     1      -2.855  12.784  23.734  0.00  0.00    +0.000 C 
BRANCH  12  13
ATOM     13  C   UNL     1      -4.289  12.784  23.240  0.00  0.00    +0.000 A 
ATOM     14  C   UNL     1      -4.566  12.755  21.865  0.00  0.00    +0.000 A 
ATOM     15  C   UNL     1      -5.883  12.751  21.403  0.00  0.00    +0.000 A 
ATOM     16  C   UNL     1      -6.940  12.772  22.310  0.00  0.00    +0.000 A 
ATOM     17  C   UNL     1      -6.680  12.797  23.678  0.00  0.00    +0.000 A 
ATOM     18  C   UNL     1      -5.363  12.799  24.141  0.00  0.00    +0.000 A 
ENDBRANCH  12  13
ENDBRANCH  11  12
ENDBRANCH  10  11
ENDBRANCH   9  10
ENDBRANCH   1   5
BRANCH   1  19
ATOM     19  C   UNL     1       1.969   7.970  18.545  0.00  0.00    +0.000 C 
BRANCH  19  20
ATOM     20  C   UNL     1       3.313   7.691  17.851  0.00  0.00    +0.000 C 
BRANCH  20  21
ATOM     21  N   UNL     1       3.658   6.243  17.867  0.00  0.00    +0.000 N 
BRANCH  21  22
ATOM     22  C   UNL     1       4.767   5.853  17.065  0.00  0.00    +0.000 A 
ATOM     23  C   UNL     1       4.585   5.122  15.875  0.00  0.00    +0.000 A 
ATOM     24  C   UNL     1       5.665   4.758  15.060  0.00  0.00    +0.000 A 
ATOM     25  C   UNL     1       6.954   5.092  15.441  0.00  0.00    +0.000 A 
ATOM     26  F   UNL     1       7.988   4.739  14.668  0.00  0.00    +0.000 F 
ATOM     27  C   UNL     1       7.179   5.800  16.604  0.00  0.00    +0.000 A 
ATOM     28  C   UNL     1       6.091   6.184  17.395  0.00  0.00    +0.000 A 
ENDBRANCH  21  22
BRANCH  21  29
ATOM     29  C   UNL     1       2.891   5.384  18.695  0.00  0.00    +0.000 A 
ATOM     30  C   UNL     1       3.069   5.411  20.094  0.00  0.00    +0.000 A 
ATOM     31  C   UNL     1       2.307   4.612  20.953  0.00  0.00    +0.000 A 
ATOM     32  C   UNL     1       1.362   3.753  20.421  0.00  0.00    +0.000 A 
ATOM     33  F   UNL     1       0.626   2.988  21.236  0.00  0.00    +0.000 F 
ATOM     34  C   UNL     1       1.169   3.676  19.051  0.00  0.00    +0.000 A 
ATOM     35  C   UNL     1       1.927   4.487  18.197  0.00  0.00    +0.000 A 
ENDBRANCH  21  29
ENDBRANCH  20  21
ENDBRANCH  19  20
ENDBRANCH   1  19
TORSDOF 10
ENDMDL
