MODEL 1
REMARK VINA RESULT:      -8.4      0.000      0.000
REMARK  Name = 
REMARK  7 active torsions:
REMARK  status: ('A' for Active; 'I' for Inactive)
REMARK    1  A    between atoms: C_1  and  O_2
REMARK    2  A    between atoms: O_2  and  C_3
REMARK    3  A    between atoms: C_8  and  O_9
REMARK    4  A    between atoms: O_9  and  C_10
REMARK    5  A    between atoms: C_10  and  C_11
REMARK    6  A    between atoms: C_22  and  C_23
REMARK    7  A    between atoms: C_26  and  C_27
REMARK                            x       y       z     vdW  Elec       q    Type
REMARK                         _______ _______ _______ _____ _____    ______ ____
ROOT
ATOM      1  C   UNL     1       0.199   9.851  21.004  0.00  0.00    +0.000 A 
ATOM      2  C   UNL     1       0.842   8.596  21.124  0.00  0.00    +0.000 A 
ATOM      3  C   UNL     1       1.571   8.140  20.042  0.00  0.00    +0.000 A 
ATOM      4  C   UNL     1       1.687   8.909  18.858  0.00  0.00    +0.000 A 
ATOM      5  C   UNL     1       1.110  10.162  18.763  0.00  0.00    +0.000 A 
ATOM      6  C   UNL     1       0.396  10.664  19.848  0.00  0.00    +0.000 A 
ATOM      7  C   UNL     1       2.475   8.231  17.745  0.00  0.00    +0.000 C 
ATOM      8  C   UNL     1       2.818   6.987  18.478  0.00  0.00    +0.000 A 
ATOM      9  C   UNL     1       2.300   6.939  19.784  0.00  0.00    +0.000 A 
ATOM     10  N   UNL     1       2.598   5.811  20.416  0.00  0.00    +0.000 NA
ATOM     11  N   UNL     1       3.336   5.145  19.483  0.00  0.00    +0.000 N 
ATOM     12  C   UNL     1       3.503   5.813  18.277  0.00  0.00    +0.000 A 
ATOM     13  H   UNL     1       3.712   4.240  19.739  0.00  0.00    +0.000 HD
ENDROOT
BRANCH  12  14
ATOM     14  C   UNL     1       4.258   5.323  17.120  0.00  0.00    +0.000 A 
ATOM     15  C   UNL     1       4.341   3.962  16.798  0.00  0.00    +0.000 A 
ATOM     16  C   UNL     1       5.032   3.536  15.649  0.00  0.00    +0.000 A 
ATOM     17  C   UNL     1       5.656   4.465  14.806  0.00  0.00    +0.000 A 
ATOM     18  C   UNL     1       5.587   5.819  15.125  0.00  0.00    +0.000 A 
ATOM     19  C   UNL     1       4.900   6.238  16.270  0.00  0.00    +0.000 A 
BRANCH  17  20
ATOM     20  C   UNL     1       6.342   4.031  13.618  0.00  0.00    +0.000 C 
ATOM     21  N   UNL     1       6.884   3.694  12.658  0.00  0.00    +0.000 NA
ENDBRANCH  17  20
ENDBRANCH  12  14
BRANCH   1  23
ATOM     22  C   UNL     1      -0.260   9.530  23.317  0.00  0.00    +0.000 C 
ATOM     23  O   UNL     1      -0.556  10.208  22.098  0.00  0.00    +0.000 OA
ENDBRANCH   1  23
BRANCH   6  24
ATOM     24  O   UNL     1      -0.137  11.928  19.794  0.00  0.00    +0.000 OA
BRANCH  24  25
ATOM     25  C   UNL     1      -0.630  12.403  18.538  0.00  0.00    +0.000 C 
BRANCH  25  26
ATOM     26  C   UNL     1      -1.971  11.784  18.206  0.00  0.00    +0.000 A 
ATOM     27  C   UNL     1      -2.102  10.794  17.228  0.00  0.00    +0.000 A 
ATOM     28  C   UNL     1      -3.349  10.221  17.019  0.00  0.00    +0.000 A 
ATOM     29  N   UNL     1      -4.456  10.549  17.717  0.00  0.00    +0.000 NA
ATOM     30  C   UNL     1      -4.311  11.494  18.668  0.00  0.00    +0.000 A 
ATOM     31  C   UNL     1      -3.108  12.126  18.949  0.00  0.00    +0.000 A 
ENDBRANCH  25  26
ENDBRANCH  24  25
ENDBRANCH   6  24
TORSDOF 6
ENDMDL
MODEL 2
REMARK VINA RESULT:      -8.3      3.254      8.949
REMARK  Name = 
REMARK  7 active torsions:
REMARK  status: ('A' for Active; 'I' for Inactive)
REMARK    1  A    between atoms: C_1  and  O_2
REMARK    2  A    between atoms: O_2  and  C_3
REMARK    3  A    between atoms: C_8  and  O_9
REMARK    4  A    between atoms: O_9  and  C_10
REMARK    5  A    between atoms: C_10  and  C_11
REMARK    6  A    between atoms: C_22  and  C_23
REMARK    7  A    between atoms: C_26  and  C_27
REMARK                            x       y       z     vdW  Elec       q    Type
REMARK                         _______ _______ _______ _____ _____    ______ ____
ROOT
ATOM      1  C   UNL     1       2.553   4.711  19.731  0.00  0.00    +0.000 A 
ATOM      2  C   UNL     1       2.055   5.676  20.637  0.00  0.00    +0.000 A 
ATOM      3  C   UNL     1       1.815   6.950  20.155  0.00  0.00    +0.000 A 
ATOM      4  C   UNL     1       2.043   7.274  18.795  0.00  0.00    +0.000 A 
ATOM      5  C   UNL     1       2.471   6.315  17.896  0.00  0.00    +0.000 A 
ATOM      6  C   UNL     1       2.691   5.015  18.344  0.00  0.00    +0.000 A 
ATOM      7  C   UNL     1       1.784   8.734  18.447  0.00  0.00    +0.000 C 
ATOM      8  C   UNL     1       1.345   9.180  19.793  0.00  0.00    +0.000 A 
ATOM      9  C   UNL     1       1.365   8.162  20.761  0.00  0.00    +0.000 A 
ATOM     10  N   UNL     1       0.990   8.584  21.962  0.00  0.00    +0.000 NA
ATOM     11  N   UNL     1       0.712   9.899  21.730  0.00  0.00    +0.000 N 
ATOM     12  C   UNL     1       0.912  10.322  20.423  0.00  0.00    +0.000 A 
ATOM     13  H   UNL     1       0.374  10.452  22.508  0.00  0.00    +0.000 HD
ENDROOT
BRANCH  12  14
ATOM     14  C   UNL     1       0.679  11.676  19.912  0.00  0.00    +0.000 A 
ATOM     15  C   UNL     1      -0.159  11.933  18.819  0.00  0.00    +0.000 A 
ATOM     16  C   UNL     1      -0.400  13.251  18.392  0.00  0.00    +0.000 A 
ATOM     17  C   UNL     1       0.200  14.334  19.047  0.00  0.00    +0.000 A 
ATOM     18  C   UNL     1       1.043  14.087  20.128  0.00  0.00    +0.000 A 
ATOM     19  C   UNL     1       1.280  12.774  20.548  0.00  0.00    +0.000 A 
BRANCH  17  20
ATOM     20  C   UNL     1      -0.065  15.685  18.625  0.00  0.00    +0.000 C 
ATOM     21  N   UNL     1      -0.265  16.766  18.279  0.00  0.00    +0.000 NA
ENDBRANCH  17  20
ENDBRANCH  12  14
BRANCH   1  23
ATOM     22  C   UNL     1       2.244   3.243  21.578  0.00  0.00    +0.000 C 
ATOM     23  O   UNL     1       2.824   3.487  20.299  0.00  0.00    +0.000 OA
ENDBRANCH   1  23
BRANCH   6  24
ATOM     24  O   UNL     1       3.063   4.036  17.456  0.00  0.00    +0.000 OA
BRANCH  24  25
ATOM     25  C   UNL     1       4.365   3.460  17.588  0.00  0.00    +0.000 C 
BRANCH  25  26
ATOM     26  C   UNL     1       5.411   4.301  16.886  0.00  0.00    +0.000 A 
ATOM     27  C   UNL     1       6.183   5.241  17.574  0.00  0.00    +0.000 A 
ATOM     28  C   UNL     1       7.170   5.931  16.885  0.00  0.00    +0.000 A 
ATOM     29  N   UNL     1       7.447   5.744  15.578  0.00  0.00    +0.000 NA
ATOM     30  C   UNL     1       6.705   4.822  14.930  0.00  0.00    +0.000 A 
ATOM     31  C   UNL     1       5.696   4.085  15.532  0.00  0.00    +0.000 A 
ENDBRANCH  25  26
ENDBRANCH  24  25
ENDBRANCH   6  24
TORSDOF 6
ENDMDL
MODEL 3
REMARK VINA RESULT:      -8.1      3.670      9.089
REMARK  Name = 
REMARK  7 active torsions:
REMARK  status: ('A' for Active; 'I' for Inactive)
REMARK    1  A    between atoms: C_1  and  O_2
REMARK    2  A    between atoms: O_2  and  C_3
REMARK    3  A    between atoms: C_8  and  O_9
REMARK    4  A    between atoms: O_9  and  C_10
REMARK    5  A    between atoms: C_10  and  C_11
REMARK    6  A    between atoms: C_22  and  C_23
REMARK    7  A    between atoms: C_26  and  C_27
REMARK                            x       y       z     vdW  Elec       q    Type
REMARK                         _______ _______ _______ _____ _____    ______ ____
ROOT
ATOM      1  C   UNL     1       4.664   5.329  17.634  0.00  0.00    +0.000 A 
ATOM      2  C   UNL     1       4.062   6.548  17.244  0.00  0.00    +0.000 A 
ATOM      3  C   UNL     1       3.244   7.185  18.158  0.00  0.00    +0.000 A 
ATOM      4  C   UNL     1       3.027   6.645  19.449  0.00  0.00    +0.000 A 
ATOM      5  C   UNL     1       3.663   5.485  19.853  0.00  0.00    +0.000 A 
ATOM      6  C   UNL     1       4.519   4.838  18.966  0.00  0.00    +0.000 A 
ATOM      7  C   UNL     1       2.052   7.441  20.307  0.00  0.00    +0.000 C 
ATOM      8  C   UNL     1       1.776   8.525  19.331  0.00  0.00    +0.000 A 
ATOM      9  C   UNL     1       2.455   8.375  18.110  0.00  0.00    +0.000 A 
ATOM     10  N   UNL     1       2.179   9.340  17.243  0.00  0.00    +0.000 NA
ATOM     11  N   UNL     1       1.317  10.124  17.952  0.00  0.00    +0.000 N 
ATOM     12  C   UNL     1       1.030   9.675  19.234  0.00  0.00    +0.000 A 
ATOM     13  H   UNL     1       0.970  10.964  17.505  0.00  0.00    +0.000 HD
ENDROOT
BRANCH  12  14
ATOM     14  C   UNL     1       0.146  10.336  20.199  0.00  0.00    +0.000 A 
ATOM     15  C   UNL     1      -0.786  11.311  19.819  0.00  0.00    +0.000 A 
ATOM     16  C   UNL     1      -1.653  11.884  20.767  0.00  0.00    +0.000 A 
ATOM     17  C   UNL     1      -1.597  11.496  22.112  0.00  0.00    +0.000 A 
ATOM     18  C   UNL     1      -0.666  10.535  22.500  0.00  0.00    +0.000 A 
ATOM     19  C   UNL     1       0.195   9.969  21.553  0.00  0.00    +0.000 A 
BRANCH  17  20
ATOM     20  C   UNL     1      -2.501  12.064  23.078  0.00  0.00    +0.000 C 
ATOM     21  N   UNL     1      -3.234  12.511  23.845  0.00  0.00    +0.000 NA
ENDBRANCH  17  20
ENDBRANCH  12  14
BRANCH   1  23
ATOM     22  C   UNL     1       5.465   5.400  15.395  0.00  0.00    +0.000 C 
ATOM     23  O   UNL     1       5.414   4.726  16.650  0.00  0.00    +0.000 OA
ENDBRANCH   1  23
BRANCH   6  24
ATOM     24  O   UNL     1       5.203   3.716  19.366  0.00  0.00    +0.000 OA
BRANCH  24  25
ATOM     25  C   UNL     1       4.577   2.442  19.192  0.00  0.00    +0.000 C 
BRANCH  25  26
ATOM     26  C   UNL     1       3.102   2.504  19.531  0.00  0.00    +0.000 A 
ATOM     27  C   UNL     1       2.656   2.677  20.843  0.00  0.00    +0.000 A 
ATOM     28  C   UNL     1       1.293   2.792  21.077  0.00  0.00    +0.000 A 
ATOM     29  N   UNL     1       0.356   2.763  20.106  0.00  0.00    +0.000 NA
ATOM     30  C   UNL     1       0.803   2.613  18.843  0.00  0.00    +0.000 A 
ATOM     31  C   UNL     1       2.144   2.486  18.510  0.00  0.00    +0.000 A 
ENDBRANCH  25  26
ENDBRANCH  24  25
ENDBRANCH   6  24
TORSDOF 6
ENDMDL
MODEL 4
REMARK VINA RESULT:      -8.1      2.111      2.861
REMARK  Name = 
REMARK  7 active torsions:
REMARK  status: ('A' for Active; 'I' for Inactive)
REMARK    1  A    between atoms: C_1  and  O_2
REMARK    2  A    between atoms: O_2  and  C_3
REMARK    3  A    between atoms: C_8  and  O_9
REMARK    4  A    between atoms: O_9  and  C_10
REMARK    5  A    between atoms: C_10  and  C_11
REMARK    6  A    between atoms: C_22  and  C_23
REMARK    7  A    between atoms: C_26  and  C_27
REMARK                            x       y       z     vdW  Elec       q    Type
REMARK                         _______ _______ _______ _____ _____    ______ ____
ROOT
ATOM      1  C   UNL     1       0.124   9.841  21.057  0.00  0.00    +0.000 A 
ATOM      2  C   UNL     1       0.795   8.601  21.180  0.00  0.00    +0.000 A 
ATOM      3  C   UNL     1       1.525   8.153  20.095  0.00  0.00    +0.000 A 
ATOM      4  C   UNL     1       1.613   8.916  18.905  0.00  0.00    +0.000 A 
ATOM      5  C   UNL     1       1.008  10.156  18.806  0.00  0.00    +0.000 A 
ATOM      6  C   UNL     1       0.293  10.649  19.894  0.00  0.00    +0.000 A 
ATOM      7  C   UNL     1       2.406   8.248  17.789  0.00  0.00    +0.000 C 
ATOM      8  C   UNL     1       2.782   7.016  18.528  0.00  0.00    +0.000 A 
ATOM      9  C   UNL     1       2.278   6.966  19.839  0.00  0.00    +0.000 A 
ATOM     10  N   UNL     1       2.605   5.850  20.476  0.00  0.00    +0.000 NA
ATOM     11  N   UNL     1       3.350   5.194  19.541  0.00  0.00    +0.000 N 
ATOM     12  C   UNL     1       3.491   5.856  18.329  0.00  0.00    +0.000 A 
ATOM     13  H   UNL     1       3.748   4.299  19.800  0.00  0.00    +0.000 HD
ENDROOT
BRANCH  12  14
ATOM     14  C   UNL     1       4.247   5.375  17.168  0.00  0.00    +0.000 A 
ATOM     15  C   UNL     1       4.360   4.013  16.858  0.00  0.00    +0.000 A 
ATOM     16  C   UNL     1       5.049   3.594  15.706  0.00  0.00    +0.000 A 
ATOM     17  C   UNL     1       5.642   4.530  14.849  0.00  0.00    +0.000 A 
ATOM     18  C   UNL     1       5.543   5.885  15.156  0.00  0.00    +0.000 A 
ATOM     19  C   UNL     1       4.857   6.297  16.304  0.00  0.00    +0.000 A 
BRANCH  17  20
ATOM     20  C   UNL     1       6.327   4.102  13.657  0.00  0.00    +0.000 C 
ATOM     21  N   UNL     1       6.888   3.760  12.710  0.00  0.00    +0.000 NA
ENDBRANCH  17  20
ENDBRANCH  12  14
BRANCH   1  23
ATOM     22  C   UNL     1      -0.196   9.666  23.409  0.00  0.00    +0.000 C 
ATOM     23  O   UNL     1      -0.629  10.189  22.155  0.00  0.00    +0.000 OA
ENDBRANCH   1  23
BRANCH   6  24
ATOM     24  O   UNL     1      -0.268  11.901  19.835  0.00  0.00    +0.000 OA
BRANCH  24  25
ATOM     25  C   UNL     1      -0.254  12.593  18.584  0.00  0.00    +0.000 C 
BRANCH  25  26
ATOM     26  C   UNL     1       0.673  13.789  18.628  0.00  0.00    +0.000 A 
ATOM     27  C   UNL     1       2.022  13.689  18.277  0.00  0.00    +0.000 A 
ATOM     28  C   UNL     1       2.802  14.837  18.276  0.00  0.00    +0.000 A 
ATOM     29  N   UNL     1       2.334  16.065  18.581  0.00  0.00    +0.000 NA
ATOM     30  C   UNL     1       1.027  16.150  18.901  0.00  0.00    +0.000 A 
ATOM     31  C   UNL     1       0.169  15.060  18.934  0.00  0.00    +0.000 A 
ENDBRANCH  25  26
ENDBRANCH  24  25
ENDBRANCH   6  24
TORSDOF 6
ENDMDL
MODEL 5
REMARK VINA RESULT:      -8.0      3.663      9.147
REMARK  Name = 
REMARK  7 active torsions:
REMARK  status: ('A' for Active; 'I' for Inactive)
REMARK    1  A    between atoms: C_1  and  O_2
REMARK    2  A    between atoms: O_2  and  C_3
REMARK    3  A    between atoms: C_8  and  O_9
REMARK    4  A    between atoms: O_9  and  C_10
REMARK    5  A    between atoms: C_10  and  C_11
REMARK    6  A    between atoms: C_22  and  C_23
REMARK    7  A    between atoms: C_26  and  C_27
REMARK                            x       y       z     vdW  Elec       q    Type
REMARK                         _______ _______ _______ _____ _____    ______ ____
ROOT
ATOM      1  C   UNL     1       4.425   5.891  17.546  0.00  0.00    +0.000 A 
ATOM      2  C   UNL     1       3.784   7.114  17.240  0.00  0.00    +0.000 A 
ATOM      3  C   UNL     1       2.957   7.667  18.200  0.00  0.00    +0.000 A 
ATOM      4  C   UNL     1       2.770   7.040  19.456  0.00  0.00    +0.000 A 
ATOM      5  C   UNL     1       3.444   5.877  19.779  0.00  0.00    +0.000 A 
ATOM      6  C   UNL     1       4.309   5.313  18.846  0.00  0.00    +0.000 A 
ATOM      7  C   UNL     1       1.781   7.751  20.371  0.00  0.00    +0.000 C 
ATOM      8  C   UNL     1       1.463   8.886  19.468  0.00  0.00    +0.000 A 
ATOM      9  C   UNL     1       2.133   8.834  18.234  0.00  0.00    +0.000 A 
ATOM     10  N   UNL     1       1.820   9.843  17.433  0.00  0.00    +0.000 NA
ATOM     11  N   UNL     1       0.943  10.555  18.197  0.00  0.00    +0.000 N 
ATOM     12  C   UNL     1       0.683  10.017  19.451  0.00  0.00    +0.000 A 
ATOM     13  H   UNL     1       0.566  11.410  17.807  0.00  0.00    +0.000 HD
ENDROOT
BRANCH  12  14
ATOM     14  C   UNL     1      -0.209  10.589  20.464  0.00  0.00    +0.000 A 
ATOM     15  C   UNL     1      -0.128  10.242  21.819  0.00  0.00    +0.000 A 
ATOM     16  C   UNL     1      -0.967  10.853  22.769  0.00  0.00    +0.000 A 
ATOM     17  C   UNL     1      -1.906  11.816  22.377  0.00  0.00    +0.000 A 
ATOM     18  C   UNL     1      -2.001  12.159  21.030  0.00  0.00    +0.000 A 
ATOM     19  C   UNL     1      -1.164  11.547  20.089  0.00  0.00    +0.000 A 
BRANCH  17  20
ATOM     20  C   UNL     1      -2.748  12.458  23.352  0.00  0.00    +0.000 C 
ATOM     21  N   UNL     1      -3.433  12.969  24.124  0.00  0.00    +0.000 NA
ENDBRANCH  17  20
ENDBRANCH  12  14
BRANCH   1  23
ATOM     22  C   UNL     1       6.514   5.868  16.408  0.00  0.00    +0.000 C 
ATOM     23  O   UNL     1       5.182   5.374  16.519  0.00  0.00    +0.000 OA
ENDBRANCH   1  23
BRANCH   6  24
ATOM     24  O   UNL     1       5.030   4.189  19.168  0.00  0.00    +0.000 OA
BRANCH  24  25
ATOM     25  C   UNL     1       4.498   2.914  18.798  0.00  0.00    +0.000 C 
BRANCH  25  26
ATOM     26  C   UNL     1       3.068   2.758  19.270  0.00  0.00    +0.000 A 
ATOM     27  C   UNL     1       2.737   2.763  20.628  0.00  0.00    +0.000 A 
ATOM     28  C   UNL     1       1.400   2.682  20.991  0.00  0.00    +0.000 A 
ATOM     29  N   UNL     1       0.382   2.612  20.108  0.00  0.00    +0.000 NA
ATOM     30  C   UNL     1       0.715   2.625  18.802  0.00  0.00    +0.000 A 
ATOM     31  C   UNL     1       2.022   2.700  18.341  0.00  0.00    +0.000 A 
ENDBRANCH  25  26
ENDBRANCH  24  25
ENDBRANCH   6  24
TORSDOF 6
ENDMDL
MODEL 6
REMARK VINA RESULT:      -8.0      2.920      3.807
REMARK  Name = 
REMARK  7 active torsions:
REMARK  status: ('A' for Active; 'I' for Inactive)
REMARK    1  A    between atoms: C_1  and  O_2
REMARK    2  A    between atoms: O_2  and  C_3
REMARK    3  A    between atoms: C_8  and  O_9
REMARK    4  A    between atoms: O_9  and  C_10
REMARK    5  A    between atoms: C_10  and  C_11
REMARK    6  A    between atoms: C_22  and  C_23
REMARK    7  A    between atoms: C_26  and  C_27
REMARK                            x       y       z     vdW  Elec       q    Type
REMARK                         _______ _______ _______ _____ _____    ______ ____
ROOT
ATOM      1  C   UNL     1      -0.571  11.847  20.578  0.00  0.00    +0.000 A 
ATOM      2  C   UNL     1      -0.109  10.570  20.974  0.00  0.00    +0.000 A 
ATOM      3  C   UNL     1       0.700   9.875  20.095  0.00  0.00    +0.000 A 
ATOM      4  C   UNL     1       1.070  10.429  18.845  0.00  0.00    +0.000 A 
ATOM      5  C   UNL     1       0.669  11.702  18.483  0.00  0.00    +0.000 A 
ATOM      6  C   UNL     1      -0.120  12.440  19.361  0.00  0.00    +0.000 A 
ATOM      7  C   UNL     1       1.914   9.507  17.975  0.00  0.00    +0.000 C 
ATOM      8  C   UNL     1       1.998   8.368  18.924  0.00  0.00    +0.000 A 
ATOM      9  C   UNL     1       1.306   8.582  20.128  0.00  0.00    +0.000 A 
ATOM     10  N   UNL     1       1.374   7.546  20.954  0.00  0.00    +0.000 NA
ATOM     11  N   UNL     1       2.146   6.669  20.252  0.00  0.00    +0.000 N 
ATOM     12  C   UNL     1       2.556   7.115  19.002  0.00  0.00    +0.000 A 
ATOM     13  H   UNL     1       2.369   5.784  20.690  0.00  0.00    +0.000 HD
ENDROOT
BRANCH  12  14
ATOM     14  C   UNL     1       3.397   6.373  18.057  0.00  0.00    +0.000 A 
ATOM     15  C   UNL     1       3.306   4.983  17.902  0.00  0.00    +0.000 A 
ATOM     16  C   UNL     1       4.093   4.315  16.947  0.00  0.00    +0.000 A 
ATOM     17  C   UNL     1       4.989   5.024  16.136  0.00  0.00    +0.000 A 
ATOM     18  C   UNL     1       5.093   6.405  16.292  0.00  0.00    +0.000 A 
ATOM     19  C   UNL     1       4.308   7.065  17.245  0.00  0.00    +0.000 A 
BRANCH  17  20
ATOM     20  C   UNL     1       5.777   4.343  15.143  0.00  0.00    +0.000 C 
ATOM     21  N   UNL     1       6.419   3.805  14.352  0.00  0.00    +0.000 NA
ENDBRANCH  17  20
ENDBRANCH  12  14
BRANCH   1  23
ATOM     22  C   UNL     1      -0.994  12.452  22.840  0.00  0.00    +0.000 C 
ATOM     23  O   UNL     1      -1.420  12.449  21.479  0.00  0.00    +0.000 OA
ENDBRANCH   1  23
BRANCH   6  24
ATOM     24  O   UNL     1      -0.482  13.726  19.044  0.00  0.00    +0.000 OA
BRANCH  24  25
ATOM     25  C   UNL     1       0.050  14.794  19.833  0.00  0.00    +0.000 C 
BRANCH  25  26
ATOM     26  C   UNL     1       0.955  15.686  19.011  0.00  0.00    +0.000 A 
ATOM     27  C   UNL     1       2.244  15.289  18.644  0.00  0.00    +0.000 A 
ATOM     28  C   UNL     1       2.998  16.127  17.834  0.00  0.00    +0.000 A 
ATOM     29  N   UNL     1       2.558  17.309  17.356  0.00  0.00    +0.000 NA
ATOM     30  C   UNL     1       1.306  17.672  17.704  0.00  0.00    +0.000 A 
ATOM     31  C   UNL     1       0.478  16.905  18.512  0.00  0.00    +0.000 A 
ENDBRANCH  25  26
ENDBRANCH  24  25
ENDBRANCH   6  24
TORSDOF 6
ENDMDL
MODEL 7
REMARK VINA RESULT:      -7.9      2.362      3.118
REMARK  Name = 
REMARK  7 active torsions:
REMARK  status: ('A' for Active; 'I' for Inactive)
REMARK    1  A    between atoms: C_1  and  O_2
REMARK    2  A    between atoms: O_2  and  C_3
REMARK    3  A    between atoms: C_8  and  O_9
REMARK    4  A    between atoms: O_9  and  C_10
REMARK    5  A    between atoms: C_10  and  C_11
REMARK    6  A    between atoms: C_22  and  C_23
REMARK    7  A    between atoms: C_26  and  C_27
REMARK                            x       y       z     vdW  Elec       q    Type
REMARK                         _______ _______ _______ _____ _____    ______ ____
ROOT
ATOM      1  C   UNL     1      -0.317  10.508  20.919  0.00  0.00    +0.000 A 
ATOM      2  C   UNL     1       0.401   9.320  21.188  0.00  0.00    +0.000 A 
ATOM      3  C   UNL     1       1.145   8.770  20.161  0.00  0.00    +0.000 A 
ATOM      4  C   UNL     1       1.201   9.384  18.886  0.00  0.00    +0.000 A 
ATOM      5  C   UNL     1       0.548  10.578  18.640  0.00  0.00    +0.000 A 
ATOM      6  C   UNL     1      -0.183  11.174  19.664  0.00  0.00    +0.000 A 
ATOM      7  C   UNL     1       2.017   8.615  17.855  0.00  0.00    +0.000 C 
ATOM      8  C   UNL     1       2.442   7.499  18.736  0.00  0.00    +0.000 A 
ATOM      9  C   UNL     1       1.943   7.591  20.046  0.00  0.00    +0.000 A 
ATOM     10  N   UNL     1       2.315   6.575  20.814  0.00  0.00    +0.000 NA
ATOM     11  N   UNL     1       3.083   5.838  19.961  0.00  0.00    +0.000 N 
ATOM     12  C   UNL     1       3.195   6.351  18.675  0.00  0.00    +0.000 A 
ATOM     13  H   UNL     1       3.515   4.998  20.324  0.00  0.00    +0.000 HD
ENDROOT
BRANCH  12  14
ATOM     14  C   UNL     1       3.966   5.761  17.577  0.00  0.00    +0.000 A 
ATOM     15  C   UNL     1       4.077   4.375  17.397  0.00  0.00    +0.000 A 
ATOM     16  C   UNL     1       4.782   3.848  16.300  0.00  0.00    +0.000 A 
ATOM     17  C   UNL     1       5.393   4.697  15.369  0.00  0.00    +0.000 A 
ATOM     18  C   UNL     1       5.296   6.075  15.547  0.00  0.00    +0.000 A 
ATOM     19  C   UNL     1       4.595   6.595  16.640  0.00  0.00    +0.000 A 
BRANCH  17  20
ATOM     20  C   UNL     1       6.094   4.157  14.233  0.00  0.00    +0.000 C 
ATOM     21  N   UNL     1       6.645   3.731  13.316  0.00  0.00    +0.000 NA
ENDBRANCH  17  20
ENDBRANCH  12  14
BRANCH   1  23
ATOM     22  C   UNL     1      -0.942  10.252  23.201  0.00  0.00    +0.000 C 
ATOM     23  O   UNL     1      -1.081  10.960  21.972  0.00  0.00    +0.000 OA
ENDBRANCH   1  23
BRANCH   6  24
ATOM     24  O   UNL     1      -0.792  12.387  19.457  0.00  0.00    +0.000 OA
BRANCH  24  25
ATOM     25  C   UNL     1      -0.207  13.287  18.513  0.00  0.00    +0.000 C 
BRANCH  25  26
ATOM     26  C   UNL     1       0.373  14.505  19.202  0.00  0.00    +0.000 A 
ATOM     27  C   UNL     1       1.250  14.390  20.284  0.00  0.00    +0.000 A 
ATOM     28  C   UNL     1       1.797  15.543  20.828  0.00  0.00    +0.000 A 
ATOM     29  N   UNL     1       1.547  16.786  20.366  0.00  0.00    +0.000 NA
ATOM     30  C   UNL     1       0.713  16.881  19.311  0.00  0.00    +0.000 A 
ATOM     31  C   UNL     1       0.114  15.787  18.702  0.00  0.00    +0.000 A 
ENDBRANCH  25  26
ENDBRANCH  24  25
ENDBRANCH   6  24
TORSDOF 6
ENDMDL
MODEL 8
REMARK VINA RESULT:      -7.9      3.341      9.279
REMARK  Name = 
REMARK  7 active torsions:
REMARK  status: ('A' for Active; 'I' for Inactive)
REMARK    1  A    between atoms: C_1  and  O_2
REMARK    2  A    between atoms: O_2  and  C_3
REMARK    3  A    between atoms: C_8  and  O_9
REMARK    4  A    between atoms: O_9  and  C_10
REMARK    5  A    between atoms: C_10  and  C_11
REMARK    6  A    between atoms: C_22  and  C_23
REMARK    7  A    between atoms: C_26  and  C_27
REMARK                            x       y       z     vdW  Elec       q    Type
REMARK                         _______ _______ _______ _____ _____    ______ ____
ROOT
ATOM      1  C   UNL     1       3.997   4.335  18.648  0.00  0.00    +0.000 A 
ATOM      2  C   UNL     1       3.153   4.998  19.569  0.00  0.00    +0.000 A 
ATOM      3  C   UNL     1       2.762   6.290  19.271  0.00  0.00    +0.000 A 
ATOM      4  C   UNL     1       3.177   6.924  18.074  0.00  0.00    +0.000 A 
ATOM      5  C   UNL     1       3.952   6.255  17.145  0.00  0.00    +0.000 A 
ATOM      6  C   UNL     1       4.335   4.942  17.401  0.00  0.00    +0.000 A 
ATOM      7  C   UNL     1       2.705   8.366  17.932  0.00  0.00    +0.000 C 
ATOM      8  C   UNL     1       1.936   8.445  19.200  0.00  0.00    +0.000 A 
ATOM      9  C   UNL     1       1.972   7.263  19.958  0.00  0.00    +0.000 A 
ATOM     10  N   UNL     1       1.298   7.358  21.097  0.00  0.00    +0.000 NA
ATOM     11  N   UNL     1       0.814   8.632  21.037  0.00  0.00    +0.000 N 
ATOM     12  C   UNL     1       1.173   9.346  19.902  0.00  0.00    +0.000 A 
ATOM     13  H   UNL     1       0.230   8.949  21.801  0.00  0.00    +0.000 HD
ENDROOT
BRANCH  12  14
ATOM     14  C   UNL     1       0.778  10.723  19.591  0.00  0.00    +0.000 A 
ATOM     15  C   UNL     1      -0.389  11.305  20.106  0.00  0.00    +0.000 A 
ATOM     16  C   UNL     1      -0.706  12.646  19.827  0.00  0.00    +0.000 A 
ATOM     17  C   UNL     1       0.134  13.427  19.024  0.00  0.00    +0.000 A 
ATOM     18  C   UNL     1       1.291  12.853  18.499  0.00  0.00    +0.000 A 
ATOM     19  C   UNL     1       1.601  11.518  18.778  0.00  0.00    +0.000 A 
BRANCH  17  20
ATOM     20  C   UNL     1      -0.178  14.806  18.758  0.00  0.00    +0.000 C 
ATOM     21  N   UNL     1      -0.419  15.911  18.535  0.00  0.00    +0.000 NA
ENDBRANCH  17  20
ENDBRANCH  12  14
BRANCH   1  23
ATOM     22  C   UNL     1       3.420   2.042  18.914  0.00  0.00    +0.000 C 
ATOM     23  O   UNL     1       4.392   3.078  19.044  0.00  0.00    +0.000 OA
ENDBRANCH   1  23
BRANCH   6  24
ATOM     24  O   UNL     1       5.057   4.242  16.467  0.00  0.00    +0.000 OA
BRANCH  24  25
ATOM     25  C   UNL     1       6.350   4.734  16.101  0.00  0.00    +0.000 C 
BRANCH  25  26
ATOM     26  C   UNL     1       6.593   4.586  14.614  0.00  0.00    +0.000 A 
ATOM     27  C   UNL     1       7.590   5.310  13.956  0.00  0.00    +0.000 A 
ATOM     28  C   UNL     1       7.805   5.079  12.605  0.00  0.00    +0.000 A 
ATOM     29  N   UNL     1       7.115   4.177  11.876  0.00  0.00    +0.000 NA
ATOM     30  C   UNL     1       6.168   3.473  12.528  0.00  0.00    +0.000 A 
ATOM     31  C   UNL     1       5.878   3.635  13.875  0.00  0.00    +0.000 A 
ENDBRANCH  25  26
ENDBRANCH  24  25
ENDBRANCH   6  24
TORSDOF 6
ENDMDL
MODEL 9
REMARK VINA RESULT:      -7.8      3.414      8.941
REMARK  Name = 
REMARK  7 active torsions:
REMARK  status: ('A' for Active; 'I' for Inactive)
REMARK    1  A    between atoms: C_1  and  O_2
REMARK    2  A    between atoms: O_2  and  C_3
REMARK    3  A    between atoms: C_8  and  O_9
REMARK    4  A    between atoms: O_9  and  C_10
REMARK    5  A    between atoms: C_10  and  C_11
REMARK    6  A    between atoms: C_22  and  C_23
REMARK    7  A    between atoms: C_26  and  C_27
REMARK                            x       y       z     vdW  Elec       q    Type
REMARK                         _______ _______ _______ _____ _____    ______ ____
ROOT
ATOM      1  C   UNL     1       3.114   4.854  19.445  0.00  0.00    +0.000 A 
ATOM      2  C   UNL     1       2.408   5.704  20.328  0.00  0.00    +0.000 A 
ATOM      3  C   UNL     1       2.108   6.981  19.891  0.00  0.00    +0.000 A 
ATOM      4  C   UNL     1       2.479   7.419  18.596  0.00  0.00    +0.000 A 
ATOM      5  C   UNL     1       3.115   6.568  17.711  0.00  0.00    +0.000 A 
ATOM      6  C   UNL     1       3.402   5.266  18.110  0.00  0.00    +0.000 A 
ATOM      7  C   UNL     1       2.124   8.870  18.300  0.00  0.00    +0.000 C 
ATOM      8  C   UNL     1       1.470   9.179  19.596  0.00  0.00    +0.000 A 
ATOM      9  C   UNL     1       1.464   8.103  20.498  0.00  0.00    +0.000 A 
ATOM     10  N   UNL     1       0.895   8.403  21.658  0.00  0.00    +0.000 NA
ATOM     11  N   UNL     1       0.521   9.700  21.466  0.00  0.00    +0.000 N 
ATOM     12  C   UNL     1       0.848  10.231  20.225  0.00  0.00    +0.000 A 
ATOM     13  H   UNL     1       0.030  10.164  22.220  0.00  0.00    +0.000 HD
ENDROOT
BRANCH  12  14
ATOM     14  C   UNL     1       0.550  11.590  19.765  0.00  0.00    +0.000 A 
ATOM     15  C   UNL     1      -0.593  11.896  19.014  0.00  0.00    +0.000 A 
ATOM     16  C   UNL     1      -0.871  13.222  18.637  0.00  0.00    +0.000 A 
ATOM     17  C   UNL     1      -0.007  14.263  18.999  0.00  0.00    +0.000 A 
ATOM     18  C   UNL     1       1.137  13.967  19.736  0.00  0.00    +0.000 A 
ATOM     19  C   UNL     1       1.410  12.645  20.108  0.00  0.00    +0.000 A 
BRANCH  17  20
ATOM     20  C   UNL     1      -0.304  15.624  18.633  0.00  0.00    +0.000 C 
ATOM     21  N   UNL     1      -0.529  16.716  18.345  0.00  0.00    +0.000 NA
ENDBRANCH  17  20
ENDBRANCH  12  14
BRANCH   1  23
ATOM     22  C   UNL     1       2.402   2.635  19.927  0.00  0.00    +0.000 C 
ATOM     23  O   UNL     1       3.429   3.623  19.974  0.00  0.00    +0.000 OA
ENDBRANCH   1  23
BRANCH   6  24
ATOM     24  O   UNL     1       3.983   4.389  17.227  0.00  0.00    +0.000 OA
BRANCH  24  25
ATOM     25  C   UNL     1       5.056   4.862  16.409  0.00  0.00    +0.000 C 
BRANCH  25  26
ATOM     26  C   UNL     1       6.113   5.558  17.239  0.00  0.00    +0.000 A 
ATOM     27  C   UNL     1       6.745   4.921  18.311  0.00  0.00    +0.000 A 
ATOM     28  C   UNL     1       7.752   5.592  18.990  0.00  0.00    +0.000 A 
ATOM     29  N   UNL     1       8.179   6.832  18.671  0.00  0.00    +0.000 NA
ATOM     30  C   UNL     1       7.573   7.428  17.624  0.00  0.00    +0.000 A 
ATOM     31  C   UNL     1       6.555   6.840  16.887  0.00  0.00    +0.000 A 
ENDBRANCH  25  26
ENDBRANCH  24  25
ENDBRANCH   6  24
TORSDOF 6
ENDMDL
