MODEL 1
REMARK VINA RESULT:      -7.9      0.000      0.000
REMARK  Name = 
REMARK  6 active torsions:
REMARK  status: ('A' for Active; 'I' for Inactive)
REMARK    1  A    between atoms: C_1  and  C_2
REMARK    2  A    between atoms: C_2  and  C_4
REMARK    3  A    between atoms: C_7  and  N_8
REMARK    4  A    between atoms: N_8  and  S_9
REMARK    5  A    between atoms: S_9  and  C_12
REMARK    6  A    between atoms: C_16  and  C_17
REMARK                            x       y       z     vdW  Elec       q    Type
REMARK                         _______ _______ _______ _____ _____    ______ ____
ROOT
ATOM      1  N   UNL     1       5.526   3.479  16.501  0.00  0.00    +0.000 N 
ATOM      2  H   UNL     1       5.391   2.855  15.707  0.00  0.00    +0.000 HD
ENDROOT
BRANCH   1   6
ATOM      3  C   UNL     1       2.508   3.758  19.439  0.00  0.00    +0.000 A 
ATOM      4  C   UNL     1       2.162   3.523  18.101  0.00  0.00    +0.000 A 
ATOM      5  C   UNL     1       3.158   3.435  17.120  0.00  0.00    +0.000 A 
ATOM      6  C   UNL     1       4.498   3.580  17.474  0.00  0.00    +0.000 A 
ATOM      7  C   UNL     1       4.850   3.817  18.800  0.00  0.00    +0.000 A 
ATOM      8  C   UNL     1       3.860   3.911  19.780  0.00  0.00    +0.000 A 
BRANCH   3  10
ATOM      9  C   UNL     1       1.358   2.709  21.503  0.00  0.00    +0.000 C 
ATOM     10  C   UNL     1       1.487   3.848  20.527  0.00  0.00    +0.000 C 
ATOM     11  O   UNL     1       0.776   4.847  20.617  0.00  0.00    +0.000 OA
ENDBRANCH   3  10
ENDBRANCH   1   6
BRANCH   1  12
ATOM     12  S   UNL     1       6.427   4.849  16.105  0.00  0.00    +0.000 S 
ATOM     13  O   UNL     1       5.523   5.973  16.245  0.00  0.00    +0.000 OA
ATOM     14  O   UNL     1       7.686   4.815  16.816  0.00  0.00    +0.000 OA
BRANCH  12  15
ATOM     15  C   UNL     1       6.738   4.610  14.375  0.00  0.00    +0.000 A 
ATOM     16  C   UNL     1       7.699   5.383  13.719  0.00  0.00    +0.000 A 
ATOM     17  C   UNL     1       7.886   5.213  12.347  0.00  0.00    +0.000 A 
ATOM     18  C   UNL     1       7.119   4.280  11.642  0.00  0.00    +0.000 A 
ATOM     19  C   UNL     1       6.170   3.490  12.304  0.00  0.00    +0.000 A 
ATOM     20  C   UNL     1       5.321   2.502  11.561  0.00  0.00    +0.000 C 
ATOM     21  C   UNL     1       6.000   3.646  13.683  0.00  0.00    +0.000 A 
ENDBRANCH  12  15
ENDBRANCH   1  12
TORSDOF 4
ENDMDL
MODEL 2
REMARK VINA RESULT:      -7.8      1.387      1.621
REMARK  Name = 
REMARK  6 active torsions:
REMARK  status: ('A' for Active; 'I' for Inactive)
REMARK    1  A    between atoms: C_1  and  C_2
REMARK    2  A    between atoms: C_2  and  C_4
REMARK    3  A    between atoms: C_7  and  N_8
REMARK    4  A    between atoms: N_8  and  S_9
REMARK    5  A    between atoms: S_9  and  C_12
REMARK    6  A    between atoms: C_16  and  C_17
REMARK                            x       y       z     vdW  Elec       q    Type
REMARK                         _______ _______ _______ _____ _____    ______ ____
ROOT
ATOM      1  N   UNL     1       5.099   5.891  16.249  0.00  0.00    +0.000 N 
ATOM      2  H   UNL     1       5.045   6.907  16.197  0.00  0.00    +0.000 HD
ENDROOT
BRANCH   1   6
ATOM      3  C   UNL     1       2.187   3.773  18.451  0.00  0.00    +0.000 A 
ATOM      4  C   UNL     1       2.418   5.129  18.720  0.00  0.00    +0.000 A 
ATOM      5  C   UNL     1       3.386   5.836  17.997  0.00  0.00    +0.000 A 
ATOM      6  C   UNL     1       4.124   5.192  17.006  0.00  0.00    +0.000 A 
ATOM      7  C   UNL     1       3.904   3.844  16.734  0.00  0.00    +0.000 A 
ATOM      8  C   UNL     1       2.942   3.134  17.456  0.00  0.00    +0.000 A 
BRANCH   3  10
ATOM      9  C   UNL     1       1.178   2.960  20.688  0.00  0.00    +0.000 C 
ATOM     10  C   UNL     1       1.158   2.974  19.183  0.00  0.00    +0.000 C 
ATOM     11  O   UNL     1       0.307   2.349  18.553  0.00  0.00    +0.000 OA
ENDBRANCH   3  10
ENDBRANCH   1   6
BRANCH   1  12
ATOM     12  S   UNL     1       6.687   5.322  16.220  0.00  0.00    +0.000 S 
ATOM     13  O   UNL     1       7.524   6.465  16.519  0.00  0.00    +0.000 OA
ATOM     14  O   UNL     1       6.775   4.110  17.005  0.00  0.00    +0.000 OA
BRANCH  12  15
ATOM     15  C   UNL     1       6.911   4.912  14.508  0.00  0.00    +0.000 A 
ATOM     16  C   UNL     1       7.867   5.583  13.743  0.00  0.00    +0.000 A 
ATOM     17  C   UNL     1       7.985   5.281  12.386  0.00  0.00    +0.000 A 
ATOM     18  C   UNL     1       7.154   4.318  11.805  0.00  0.00    +0.000 A 
ATOM     19  C   UNL     1       6.209   3.630  12.577  0.00  0.00    +0.000 A 
ATOM     20  C   UNL     1       5.292   2.612  11.966  0.00  0.00    +0.000 C 
ATOM     21  C   UNL     1       6.108   3.919  13.941  0.00  0.00    +0.000 A 
ENDBRANCH  12  15
ENDBRANCH   1  12
TORSDOF 4
ENDMDL
MODEL 3
REMARK VINA RESULT:      -7.7      1.370      1.482
REMARK  Name = 
REMARK  6 active torsions:
REMARK  status: ('A' for Active; 'I' for Inactive)
REMARK    1  A    between atoms: C_1  and  C_2
REMARK    2  A    between atoms: C_2  and  C_4
REMARK    3  A    between atoms: C_7  and  N_8
REMARK    4  A    between atoms: N_8  and  S_9
REMARK    5  A    between atoms: S_9  and  C_12
REMARK    6  A    between atoms: C_16  and  C_17
REMARK                            x       y       z     vdW  Elec       q    Type
REMARK                         _______ _______ _______ _____ _____    ______ ____
ROOT
ATOM      1  N   UNL     1       5.095   5.898  16.297  0.00  0.00    +0.000 N 
ATOM      2  H   UNL     1       5.041   6.915  16.290  0.00  0.00    +0.000 HD
ENDROOT
BRANCH   1   6
ATOM      3  C   UNL     1       2.177   3.758  18.469  0.00  0.00    +0.000 A 
ATOM      4  C   UNL     1       2.939   3.105  17.491  0.00  0.00    +0.000 A 
ATOM      5  C   UNL     1       3.905   3.810  16.763  0.00  0.00    +0.000 A 
ATOM      6  C   UNL     1       4.112   5.166  17.010  0.00  0.00    +0.000 A 
ATOM      7  C   UNL     1       3.356   5.824  17.978  0.00  0.00    +0.000 A 
ATOM      8  C   UNL     1       2.389   5.125  18.703  0.00  0.00    +0.000 A 
BRANCH   3  10
ATOM      9  C   UNL     1       1.113   3.266  20.774  0.00  0.00    +0.000 C 
ATOM     10  C   UNL     1       1.143   3.051  19.284  0.00  0.00    +0.000 C 
ATOM     11  O   UNL     1       0.329   2.313  18.732  0.00  0.00    +0.000 OA
ENDBRANCH   3  10
ENDBRANCH   1   6
BRANCH   1  12
ATOM     12  S   UNL     1       6.684   5.332  16.262  0.00  0.00    +0.000 S 
ATOM     13  O   UNL     1       7.521   6.477  16.558  0.00  0.00    +0.000 OA
ATOM     14  O   UNL     1       6.777   4.120  17.047  0.00  0.00    +0.000 OA
BRANCH  12  15
ATOM     15  C   UNL     1       6.902   4.923  14.550  0.00  0.00    +0.000 A 
ATOM     16  C   UNL     1       7.867   5.581  13.786  0.00  0.00    +0.000 A 
ATOM     17  C   UNL     1       7.981   5.280  12.428  0.00  0.00    +0.000 A 
ATOM     18  C   UNL     1       7.137   4.330  11.845  0.00  0.00    +0.000 A 
ATOM     19  C   UNL     1       6.181   3.654  12.615  0.00  0.00    +0.000 A 
ATOM     20  C   UNL     1       5.250   2.651  12.003  0.00  0.00    +0.000 C 
ATOM     21  C   UNL     1       6.084   3.942  13.980  0.00  0.00    +0.000 A 
ENDBRANCH  12  15
ENDBRANCH   1  12
TORSDOF 4
ENDMDL
MODEL 4
REMARK VINA RESULT:      -7.7      0.290      1.114
REMARK  Name = 
REMARK  6 active torsions:
REMARK  status: ('A' for Active; 'I' for Inactive)
REMARK    1  A    between atoms: C_1  and  C_2
REMARK    2  A    between atoms: C_2  and  C_4
REMARK    3  A    between atoms: C_7  and  N_8
REMARK    4  A    between atoms: N_8  and  S_9
REMARK    5  A    between atoms: S_9  and  C_12
REMARK    6  A    between atoms: C_16  and  C_17
REMARK                            x       y       z     vdW  Elec       q    Type
REMARK                         _______ _______ _______ _____ _____    ______ ____
ROOT
ATOM      1  N   UNL     1       5.560   3.493  16.504  0.00  0.00    +0.000 N 
ATOM      2  H   UNL     1       5.286   2.985  15.665  0.00  0.00    +0.000 HD
ENDROOT
BRANCH   1   6
ATOM      3  C   UNL     1       2.695   3.983  19.564  0.00  0.00    +0.000 A 
ATOM      4  C   UNL     1       4.047   4.248  19.823  0.00  0.00    +0.000 A 
ATOM      5  C   UNL     1       5.003   4.082  18.814  0.00  0.00    +0.000 A 
ATOM      6  C   UNL     1       4.612   3.653  17.547  0.00  0.00    +0.000 A 
ATOM      7  C   UNL     1       3.271   3.384  17.282  0.00  0.00    +0.000 A 
ATOM      8  C   UNL     1       2.315   3.543  18.287  0.00  0.00    +0.000 A 
BRANCH   3  10
ATOM      9  C   UNL     1       1.159   2.951  21.370  0.00  0.00    +0.000 C 
ATOM     10  C   UNL     1       1.632   4.156  20.600  0.00  0.00    +0.000 C 
ATOM     11  O   UNL     1       1.164   5.272  20.816  0.00  0.00    +0.000 OA
ENDBRANCH   3  10
ENDBRANCH   1   6
BRANCH   1  12
ATOM     12  S   UNL     1       6.654   4.736  16.183  0.00  0.00    +0.000 S 
ATOM     13  O   UNL     1       5.938   5.970  16.435  0.00  0.00    +0.000 OA
ATOM     14  O   UNL     1       7.907   4.455  16.849  0.00  0.00    +0.000 OA
BRANCH  12  15
ATOM     15  C   UNL     1       6.891   4.589  14.431  0.00  0.00    +0.000 A 
ATOM     16  C   UNL     1       7.770   5.445  13.765  0.00  0.00    +0.000 A 
ATOM     17  C   UNL     1       7.896   5.344  12.379  0.00  0.00    +0.000 A 
ATOM     18  C   UNL     1       7.151   4.397  11.671  0.00  0.00    +0.000 A 
ATOM     19  C   UNL     1       6.284   3.524  12.341  0.00  0.00    +0.000 A 
ATOM     20  C   UNL     1       5.457   2.518  11.598  0.00  0.00    +0.000 C 
ATOM     21  C   UNL     1       6.176   3.612  13.733  0.00  0.00    +0.000 A 
ENDBRANCH  12  15
ENDBRANCH   1  12
TORSDOF 4
ENDMDL
MODEL 5
REMARK VINA RESULT:      -7.6      0.942      1.413
REMARK  Name = 
REMARK  6 active torsions:
REMARK  status: ('A' for Active; 'I' for Inactive)
REMARK    1  A    between atoms: C_1  and  C_2
REMARK    2  A    between atoms: C_2  and  C_4
REMARK    3  A    between atoms: C_7  and  N_8
REMARK    4  A    between atoms: N_8  and  S_9
REMARK    5  A    between atoms: S_9  and  C_12
REMARK    6  A    between atoms: C_16  and  C_17
REMARK                            x       y       z     vdW  Elec       q    Type
REMARK                         _______ _______ _______ _____ _____    ______ ____
ROOT
ATOM      1  N   UNL     1       6.156   3.960  16.882  0.00  0.00    +0.000 N 
ATOM      2  H   UNL     1       6.642   3.202  16.405  0.00  0.00    +0.000 HD
ENDROOT
BRANCH   1   6
ATOM      3  C   UNL     1       2.544   3.113  18.895  0.00  0.00    +0.000 A 
ATOM      4  C   UNL     1       3.651   3.583  19.613  0.00  0.00    +0.000 A 
ATOM      5  C   UNL     1       4.854   3.862  18.953  0.00  0.00    +0.000 A 
ATOM      6  C   UNL     1       4.953   3.670  17.576  0.00  0.00    +0.000 A 
ATOM      7  C   UNL     1       3.858   3.199  16.855  0.00  0.00    +0.000 A 
ATOM      8  C   UNL     1       2.659   2.916  17.511  0.00  0.00    +0.000 A 
BRANCH   3  10
ATOM      9  C   UNL     1       1.100   2.990  21.037  0.00  0.00    +0.000 C 
ATOM     10  C   UNL     1       1.233   2.813  19.547  0.00  0.00    +0.000 C 
ATOM     11  O   UNL     1       0.283   2.435  18.865  0.00  0.00    +0.000 OA
ENDBRANCH   3  10
ENDBRANCH   1   6
BRANCH   1  12
ATOM     12  S   UNL     1       6.315   5.438  16.085  0.00  0.00    +0.000 S 
ATOM     13  O   UNL     1       4.995   6.037  16.091  0.00  0.00    +0.000 OA
ATOM     14  O   UNL     1       7.455   6.149  16.620  0.00  0.00    +0.000 OA
BRANCH  12  15
ATOM     15  C   UNL     1       6.680   4.935  14.424  0.00  0.00    +0.000 A 
ATOM     16  C   UNL     1       7.712   5.550  13.713  0.00  0.00    +0.000 A 
ATOM     17  C   UNL     1       7.944   5.174  12.389  0.00  0.00    +0.000 A 
ATOM     18  C   UNL     1       7.149   4.194  11.787  0.00  0.00    +0.000 A 
ATOM     19  C   UNL     1       6.126   3.562  12.506  0.00  0.00    +0.000 A 
ATOM     20  C   UNL     1       5.247   2.527  11.871  0.00  0.00    +0.000 C 
ATOM     21  C   UNL     1       5.911   3.925  13.840  0.00  0.00    +0.000 A 
ENDBRANCH  12  15
ENDBRANCH   1  12
TORSDOF 4
ENDMDL
MODEL 6
REMARK VINA RESULT:      -7.5      1.263      1.433
REMARK  Name = 
REMARK  6 active torsions:
REMARK  status: ('A' for Active; 'I' for Inactive)
REMARK    1  A    between atoms: C_1  and  C_2
REMARK    2  A    between atoms: C_2  and  C_4
REMARK    3  A    between atoms: C_7  and  N_8
REMARK    4  A    between atoms: N_8  and  S_9
REMARK    5  A    between atoms: S_9  and  C_12
REMARK    6  A    between atoms: C_16  and  C_17
REMARK                            x       y       z     vdW  Elec       q    Type
REMARK                         _______ _______ _______ _____ _____    ______ ____
ROOT
ATOM      1  N   UNL     1       4.649   4.503  16.213  0.00  0.00    +0.000 N 
ATOM      2  H   UNL     1       4.001   4.934  15.556  0.00  0.00    +0.000 HD
ENDROOT
BRANCH   1   6
ATOM      3  C   UNL     1       3.171   3.204  19.947  0.00  0.00    +0.000 A 
ATOM      4  C   UNL     1       3.358   4.572  19.707  0.00  0.00    +0.000 A 
ATOM      5  C   UNL     1       3.852   5.010  18.472  0.00  0.00    +0.000 A 
ATOM      6  C   UNL     1       4.161   4.084  17.478  0.00  0.00    +0.000 A 
ATOM      7  C   UNL     1       3.982   2.722  17.709  0.00  0.00    +0.000 A 
ATOM      8  C   UNL     1       3.493   2.282  18.941  0.00  0.00    +0.000 A 
BRANCH   3  10
ATOM      9  C   UNL     1       1.201   2.970  21.606  0.00  0.00    +0.000 C 
ATOM     10  C   UNL     1       2.634   2.684  21.241  0.00  0.00    +0.000 C 
ATOM     11  O   UNL     1       3.359   2.026  21.984  0.00  0.00    +0.000 OA
ENDBRANCH   3  10
ENDBRANCH   1   6
BRANCH   1  12
ATOM     12  S   UNL     1       6.209   5.134  16.097  0.00  0.00    +0.000 S 
ATOM     13  O   UNL     1       6.067   6.571  16.215  0.00  0.00    +0.000 OA
ATOM     14  O   UNL     1       7.089   4.400  16.980  0.00  0.00    +0.000 OA
BRANCH  12  15
ATOM     15  C   UNL     1       6.643   4.762  14.418  0.00  0.00    +0.000 A 
ATOM     16  C   UNL     1       7.666   5.469  13.782  0.00  0.00    +0.000 A 
ATOM     17  C   UNL     1       7.951   5.195  12.444  0.00  0.00    +0.000 A 
ATOM     18  C   UNL     1       7.218   4.224  11.753  0.00  0.00    +0.000 A 
ATOM     19  C   UNL     1       6.206   3.501  12.396  0.00  0.00    +0.000 A 
ATOM     20  C   UNL     1       5.392   2.475  11.665  0.00  0.00    +0.000 C 
ATOM     21  C   UNL     1       5.937   3.762  13.743  0.00  0.00    +0.000 A 
ENDBRANCH  12  15
ENDBRANCH   1  12
TORSDOF 4
ENDMDL
MODEL 7
REMARK VINA RESULT:      -7.4      2.504      6.620
REMARK  Name = 
REMARK  6 active torsions:
REMARK  status: ('A' for Active; 'I' for Inactive)
REMARK    1  A    between atoms: C_1  and  C_2
REMARK    2  A    between atoms: C_2  and  C_4
REMARK    3  A    between atoms: C_7  and  N_8
REMARK    4  A    between atoms: N_8  and  S_9
REMARK    5  A    between atoms: S_9  and  C_12
REMARK    6  A    between atoms: C_16  and  C_17
REMARK                            x       y       z     vdW  Elec       q    Type
REMARK                         _______ _______ _______ _____ _____    ______ ____
ROOT
ATOM      1  N   UNL     1       7.272   6.136  15.931  0.00  0.00    +0.000 N 
ATOM      2  H   UNL     1       7.082   7.135  15.872  0.00  0.00    +0.000 HD
ENDROOT
BRANCH   1   6
ATOM      3  C   UNL     1       5.787   3.628  12.877  0.00  0.00    +0.000 A 
ATOM      4  C   UNL     1       5.010   3.878  14.017  0.00  0.00    +0.000 A 
ATOM      5  C   UNL     1       5.498   4.705  15.036  0.00  0.00    +0.000 A 
ATOM      6  C   UNL     1       6.761   5.282  14.919  0.00  0.00    +0.000 A 
ATOM      7  C   UNL     1       7.542   5.036  13.792  0.00  0.00    +0.000 A 
ATOM      8  C   UNL     1       7.060   4.209  12.776  0.00  0.00    +0.000 A 
BRANCH   3  10
ATOM      9  C   UNL     1       4.013   3.108  11.070  0.00  0.00    +0.000 C 
ATOM     10  C   UNL     1       5.309   2.765  11.755  0.00  0.00    +0.000 C 
ATOM     11  O   UNL     1       5.979   1.796  11.401  0.00  0.00    +0.000 OA
ENDBRANCH   3  10
ENDBRANCH   1   6
BRANCH   1  12
ATOM     12  S   UNL     1       7.345   5.580  17.522  0.00  0.00    +0.000 S 
ATOM     13  O   UNL     1       7.906   4.246  17.451  0.00  0.00    +0.000 OA
ATOM     14  O   UNL     1       7.948   6.596  18.356  0.00  0.00    +0.000 OA
BRANCH  12  15
ATOM     15  C   UNL     1       5.630   5.431  17.949  0.00  0.00    +0.000 A 
ATOM     16  C   UNL     1       5.118   4.209  18.391  0.00  0.00    +0.000 A 
ATOM     17  C   UNL     1       3.754   4.105  18.668  0.00  0.00    +0.000 A 
ATOM     18  C   UNL     1       2.916   5.212  18.505  0.00  0.00    +0.000 A 
ATOM     19  C   UNL     1       3.432   6.443  18.081  0.00  0.00    +0.000 A 
ATOM     20  C   UNL     1       2.546   7.635  17.876  0.00  0.00    +0.000 C 
ATOM     21  C   UNL     1       4.803   6.552  17.825  0.00  0.00    +0.000 A 
ENDBRANCH  12  15
ENDBRANCH   1  12
TORSDOF 4
ENDMDL
MODEL 8
REMARK VINA RESULT:      -7.4      2.472      6.748
REMARK  Name = 
REMARK  6 active torsions:
REMARK  status: ('A' for Active; 'I' for Inactive)
REMARK    1  A    between atoms: C_1  and  C_2
REMARK    2  A    between atoms: C_2  and  C_4
REMARK    3  A    between atoms: C_7  and  N_8
REMARK    4  A    between atoms: N_8  and  S_9
REMARK    5  A    between atoms: S_9  and  C_12
REMARK    6  A    between atoms: C_16  and  C_17
REMARK                            x       y       z     vdW  Elec       q    Type
REMARK                         _______ _______ _______ _____ _____    ______ ____
ROOT
ATOM      1  N   UNL     1       7.070   6.187  15.933  0.00  0.00    +0.000 N 
ATOM      2  H   UNL     1       6.646   7.112  15.959  0.00  0.00    +0.000 HD
ENDROOT
BRANCH   1   6
ATOM      3  C   UNL     1       6.060   3.556  12.790  0.00  0.00    +0.000 A 
ATOM      4  C   UNL     1       7.289   4.229  12.771  0.00  0.00    +0.000 A 
ATOM      5  C   UNL     1       7.629   5.107  13.808  0.00  0.00    +0.000 A 
ATOM      6  C   UNL     1       6.743   5.314  14.863  0.00  0.00    +0.000 A 
ATOM      7  C   UNL     1       5.518   4.652  14.889  0.00  0.00    +0.000 A 
ATOM      8  C   UNL     1       5.174   3.779  13.854  0.00  0.00    +0.000 A 
BRANCH   3  10
ATOM      9  C   UNL     1       6.658   1.596  11.214  0.00  0.00    +0.000 C 
ATOM     10  C   UNL     1       5.654   2.599  11.717  0.00  0.00    +0.000 C 
ATOM     11  O   UNL     1       4.510   2.635  11.267  0.00  0.00    +0.000 OA
ENDBRANCH   3  10
ENDBRANCH   1   6
BRANCH   1  12
ATOM     12  S   UNL     1       7.329   5.546  17.472  0.00  0.00    +0.000 S 
ATOM     13  O   UNL     1       7.922   4.241  17.265  0.00  0.00    +0.000 OA
ATOM     14  O   UNL     1       7.983   6.537  18.299  0.00  0.00    +0.000 OA
BRANCH  12  15
ATOM     15  C   UNL     1       5.674   5.308  18.065  0.00  0.00    +0.000 A 
ATOM     16  C   UNL     1       5.296   4.087  18.627  0.00  0.00    +0.000 A 
ATOM     17  C   UNL     1       3.974   3.907  19.036  0.00  0.00    +0.000 A 
ATOM     18  C   UNL     1       3.043   4.939  18.881  0.00  0.00    +0.000 A 
ATOM     19  C   UNL     1       3.426   6.171  18.336  0.00  0.00    +0.000 A 
ATOM     20  C   UNL     1       2.437   7.281  18.139  0.00  0.00    +0.000 C 
ATOM     21  C   UNL     1       4.757   6.357  17.948  0.00  0.00    +0.000 A 
ENDBRANCH  12  15
ENDBRANCH   1  12
TORSDOF 4
ENDMDL
MODEL 9
REMARK VINA RESULT:      -7.4      3.032      4.251
REMARK  Name = 
REMARK  6 active torsions:
REMARK  status: ('A' for Active; 'I' for Inactive)
REMARK    1  A    between atoms: C_1  and  C_2
REMARK    2  A    between atoms: C_2  and  C_4
REMARK    3  A    between atoms: C_7  and  N_8
REMARK    4  A    between atoms: N_8  and  S_9
REMARK    5  A    between atoms: S_9  and  C_12
REMARK    6  A    between atoms: C_16  and  C_17
REMARK                            x       y       z     vdW  Elec       q    Type
REMARK                         _______ _______ _______ _____ _____    ______ ____
ROOT
ATOM      1  N   UNL     1       4.652   5.068  15.954  0.00  0.00    +0.000 N 
ATOM      2  H   UNL     1       4.271   5.945  15.603  0.00  0.00    +0.000 HD
ENDROOT
BRANCH   1   6
ATOM      3  C   UNL     1       3.181   3.508  19.590  0.00  0.00    +0.000 A 
ATOM      4  C   UNL     1       3.581   4.849  19.515  0.00  0.00    +0.000 A 
ATOM      5  C   UNL     1       4.075   5.372  18.314  0.00  0.00    +0.000 A 
ATOM      6  C   UNL     1       4.170   4.558  17.187  0.00  0.00    +0.000 A 
ATOM      7  C   UNL     1       3.777   3.223  17.253  0.00  0.00    +0.000 A 
ATOM      8  C   UNL     1       3.289   2.697  18.450  0.00  0.00    +0.000 A 
BRANCH   3  10
ATOM      9  C   UNL     1       1.155   2.982  21.107  0.00  0.00    +0.000 C 
ATOM     10  C   UNL     1       2.635   2.903  20.842  0.00  0.00    +0.000 C 
ATOM     11  O   UNL     1       3.393   2.344  21.632  0.00  0.00    +0.000 OA
ENDBRANCH   3  10
ENDBRANCH   1   6
BRANCH   1  12
ATOM     12  S   UNL     1       6.276   4.857  15.551  0.00  0.00    +0.000 S 
ATOM     13  O   UNL     1       6.521   3.431  15.620  0.00  0.00    +0.000 OA
ATOM     14  O   UNL     1       6.571   5.604  14.348  0.00  0.00    +0.000 OA
BRANCH  12  15
ATOM     15  C   UNL     1       7.107   5.623  16.918  0.00  0.00    +0.000 A 
ATOM     16  C   UNL     1       7.510   4.858  18.015  0.00  0.00    +0.000 A 
ATOM     17  C   UNL     1       8.112   5.493  19.101  0.00  0.00    +0.000 A 
ATOM     18  C   UNL     1       8.308   6.877  19.088  0.00  0.00    +0.000 A 
ATOM     19  C   UNL     1       7.923   7.642  17.979  0.00  0.00    +0.000 A 
ATOM     20  C   UNL     1       8.102   9.131  17.956  0.00  0.00    +0.000 C 
ATOM     21  C   UNL     1       7.340   7.000  16.882  0.00  0.00    +0.000 A 
ENDBRANCH  12  15
ENDBRANCH   1  12
TORSDOF 4
ENDMDL
