MODEL 1
REMARK VINA RESULT:      -7.5      0.000      0.000
REMARK  Name = 
REMARK  4 active torsions:
REMARK  status: ('A' for Active; 'I' for Inactive)
REMARK    1  A    between atoms: C_1  and  C_2
REMARK    2  A    between atoms: C_2  and  C_3
REMARK    3  A    between atoms: C_15  and  N_16
REMARK    4  A    between atoms: C_18  and  C_19
REMARK                            x       y       z     vdW  Elec       q    Type
REMARK                         _______ _______ _______ _____ _____    ______ ____
ROOT
ATOM      1  C   UNL     1      -3.203  13.503  24.072  0.00  0.00    +0.000 C 
ATOM      2  C   UNL     1      -2.144  13.084  23.037  0.00  0.00    +0.000 C 
ATOM      3  C   UNL     1      -0.811  13.760  23.433  0.00  0.00    +0.000 C 
ATOM      4  C   UNL     1      -2.605  13.564  21.657  0.00  0.00    +0.000 C 
ATOM      5  C   UNL     1      -1.787  13.017  20.517  0.00  0.00    +0.000 C 
ATOM      6  O   UNL     1      -1.843  13.531  19.404  0.00  0.00    +0.000 OA
ATOM      7  C   UNL     1      -0.965  11.792  20.745  0.00  0.00    +0.000 C 
ATOM      8  C   UNL     1      -1.102  11.069  21.872  0.00  0.00    +0.000 C 
ATOM      9  C   UNL     1      -1.987  11.541  23.008  0.00  0.00    +0.000 C 
ATOM     10  N   UNL     1      -0.393   9.889  22.022  0.00  0.00    +0.000 N 
ATOM     11  C   UNL     1       0.392   9.314  21.013  0.00  0.00    +0.000 A 
ATOM     12  N   UNL     1       0.932   8.096  21.240  0.00  0.00    +0.000 NA
ATOM     13  C   UNL     1       1.695   7.522  20.262  0.00  0.00    +0.000 A 
ATOM     14  C   UNL     1       1.935   8.131  19.035  0.00  0.00    +0.000 A 
ATOM     15  C   UNL     1       1.390   9.410  18.813  0.00  0.00    +0.000 A 
ATOM     16  C   UNL     1       0.594  10.003  19.813  0.00  0.00    +0.000 A 
ATOM     17  C   UNL     1       0.003  11.403  19.654  0.00  0.00    +0.000 C 
ATOM     18  C   UNL     1       2.814   7.506  17.989  0.00  0.00    +0.000 C 
ATOM     19  C   UNL     1       3.279   6.075  18.200  0.00  0.00    +0.000 C 
ATOM     20  C   UNL     1       3.245   5.542  19.620  0.00  0.00    +0.000 C 
ATOM     21  C   UNL     1       2.211   6.143  20.570  0.00  0.00    +0.000 C 
ATOM     22  H   UNL     1      -0.531   9.300  22.836  0.00  0.00    +0.000 HD
ENDROOT
BRANCH  17  23
ATOM     23  C   UNL     1       1.114  12.458  19.540  0.00  0.00    +0.000 A 
ATOM     24  C   UNL     1       1.887  12.785  20.660  0.00  0.00    +0.000 A 
ATOM     25  C   UNL     1       2.854  13.769  20.540  0.00  0.00    +0.000 A 
ATOM     26  N   UNL     1       3.116  14.428  19.393  0.00  0.00    +0.000 NA
ATOM     27  C   UNL     1       2.385  14.077  18.313  0.00  0.00    +0.000 A 
ATOM     28  C   UNL     1       1.385  13.117  18.334  0.00  0.00    +0.000 A 
ENDBRANCH  17  23
BRANCH  15  29
ATOM     29  N   UNL     1       1.459   9.971  17.518  0.00  0.00    +0.000 N 
ATOM     30  H   UNL     1       1.952   9.395  16.840  0.00  0.00    +0.000 HD
ATOM     31  H   UNL     1       1.811  10.918  17.482  0.00  0.00    +0.000 HD
ENDBRANCH  15  29
TORSDOF 2
ENDMDL
MODEL 2
REMARK VINA RESULT:      -7.1      0.570      1.053
REMARK  Name = 
REMARK  4 active torsions:
REMARK  status: ('A' for Active; 'I' for Inactive)
REMARK    1  A    between atoms: C_1  and  C_2
REMARK    2  A    between atoms: C_2  and  C_3
REMARK    3  A    between atoms: C_15  and  N_16
REMARK    4  A    between atoms: C_18  and  C_19
REMARK                            x       y       z     vdW  Elec       q    Type
REMARK                         _______ _______ _______ _____ _____    ______ ____
ROOT
ATOM      1  C   UNL     1      -3.107  14.285  23.556  0.00  0.00    +0.000 C 
ATOM      2  C   UNL     1      -2.002  13.748  22.630  0.00  0.00    +0.000 C 
ATOM      3  C   UNL     1      -0.653  14.299  23.143  0.00  0.00    +0.000 C 
ATOM      4  C   UNL     1      -2.284  14.245  21.209  0.00  0.00    +0.000 C 
ATOM      5  C   UNL     1      -1.421  13.602  20.156  0.00  0.00    +0.000 C 
ATOM      6  O   UNL     1      -1.323  14.100  19.038  0.00  0.00    +0.000 OA
ATOM      7  C   UNL     1      -0.747  12.308  20.470  0.00  0.00    +0.000 C 
ATOM      8  C   UNL     1      -1.058  11.622  21.586  0.00  0.00    +0.000 C 
ATOM      9  C   UNL     1      -1.995  12.197  22.629  0.00  0.00    +0.000 C 
ATOM     10  N   UNL     1      -0.485  10.381  21.812  0.00  0.00    +0.000 N 
ATOM     11  C   UNL     1       0.330   9.716  20.886  0.00  0.00    +0.000 A 
ATOM     12  N   UNL     1       0.725   8.456  21.174  0.00  0.00    +0.000 NA
ATOM     13  C   UNL     1       1.517   7.793  20.277  0.00  0.00    +0.000 A 
ATOM     14  C   UNL     1       1.928   8.355  19.073  0.00  0.00    +0.000 A 
ATOM     15  C   UNL     1       1.534   9.676  18.789  0.00  0.00    +0.000 A 
ATOM     16  C   UNL     1       0.709  10.361  19.705  0.00  0.00    +0.000 A 
ATOM     17  C   UNL     1       0.275  11.809  19.479  0.00  0.00    +0.000 C 
ATOM     18  C   UNL     1       2.835   7.630  18.119  0.00  0.00    +0.000 C 
ATOM     19  C   UNL     1       3.137   6.164  18.386  0.00  0.00    +0.000 C 
ATOM     20  C   UNL     1       2.919   5.662  19.801  0.00  0.00    +0.000 C 
ATOM     21  C   UNL     1       1.864   6.377  20.643  0.00  0.00    +0.000 C 
ATOM     22  H   UNL     1      -0.754   9.823  22.614  0.00  0.00    +0.000 HD
ENDROOT
BRANCH  17  23
ATOM     23  C   UNL     1       1.490  12.749  19.461  0.00  0.00    +0.000 A 
ATOM     24  C   UNL     1       1.931  13.301  18.253  0.00  0.00    +0.000 A 
ATOM     25  C   UNL     1       3.053  14.112  18.259  0.00  0.00    +0.000 A 
ATOM     26  N   UNL     1       3.746  14.426  19.373  0.00  0.00    +0.000 NA
ATOM     27  C   UNL     1       3.287  13.914  20.535  0.00  0.00    +0.000 A 
ATOM     28  C   UNL     1       2.184  13.081  20.632  0.00  0.00    +0.000 A 
ENDBRANCH  17  23
BRANCH  15  29
ATOM     29  N   UNL     1       1.777  10.205  17.501  0.00  0.00    +0.000 N 
ATOM     30  H   UNL     1       2.640   9.879  17.074  0.00  0.00    +0.000 HD
ATOM     31  H   UNL     1       1.723  11.212  17.437  0.00  0.00    +0.000 HD
ENDBRANCH  15  29
TORSDOF 2
ENDMDL
MODEL 3
REMARK VINA RESULT:      -6.9      1.058      1.514
REMARK  Name = 
REMARK  4 active torsions:
REMARK  status: ('A' for Active; 'I' for Inactive)
REMARK    1  A    between atoms: C_1  and  C_2
REMARK    2  A    between atoms: C_2  and  C_3
REMARK    3  A    between atoms: C_15  and  N_16
REMARK    4  A    between atoms: C_18  and  C_19
REMARK                            x       y       z     vdW  Elec       q    Type
REMARK                         _______ _______ _______ _____ _____    ______ ____
ROOT
ATOM      1  C   UNL     1      -3.690  14.140  24.890  0.00  0.00    +0.000 C 
ATOM      2  C   UNL     1      -2.667  13.796  23.795  0.00  0.00    +0.000 C 
ATOM      3  C   UNL     1      -1.322  14.446  24.191  0.00  0.00    +0.000 C 
ATOM      4  C   UNL     1      -3.174  14.367  22.467  0.00  0.00    +0.000 C 
ATOM      5  C   UNL     1      -2.394  13.902  21.265  0.00  0.00    +0.000 C 
ATOM      6  O   UNL     1      -2.488  14.491  20.193  0.00  0.00    +0.000 OA
ATOM      7  C   UNL     1      -1.564  12.667  21.381  0.00  0.00    +0.000 C 
ATOM      8  C   UNL     1      -1.663  11.868  22.461  0.00  0.00    +0.000 C 
ATOM      9  C   UNL     1      -2.511  12.259  23.655  0.00  0.00    +0.000 C 
ATOM     10  N   UNL     1      -0.950  10.682  22.505  0.00  0.00    +0.000 N 
ATOM     11  C   UNL     1      -0.199  10.180  21.434  0.00  0.00    +0.000 A 
ATOM     12  N   UNL     1       0.349   8.951  21.559  0.00  0.00    +0.000 NA
ATOM     13  C   UNL     1       1.080   8.446  20.519  0.00  0.00    +0.000 A 
ATOM     14  C   UNL     1       1.278   9.138  19.330  0.00  0.00    +0.000 A 
ATOM     15  C   UNL     1       0.726  10.428  19.213  0.00  0.00    +0.000 A 
ATOM     16  C   UNL     1      -0.037  10.950  20.278  0.00  0.00    +0.000 A 
ATOM     17  C   UNL     1      -0.634  12.356  20.235  0.00  0.00    +0.000 C 
ATOM     18  C   UNL     1       2.121   8.589  18.214  0.00  0.00    +0.000 C 
ATOM     19  C   UNL     1       2.594   7.148  18.311  0.00  0.00    +0.000 C 
ATOM     20  C   UNL     1       2.608   6.519  19.692  0.00  0.00    +0.000 C 
ATOM     21  C   UNL     1       1.606   7.051  20.714  0.00  0.00    +0.000 C 
ATOM     22  H   UNL     1      -1.059  10.039  23.282  0.00  0.00    +0.000 HD
ENDROOT
BRANCH  17  23
ATOM     23  C   UNL     1       0.473  13.419  20.156  0.00  0.00    +0.000 A 
ATOM     24  C   UNL     1       0.622  14.190  18.998  0.00  0.00    +0.000 A 
ATOM     25  C   UNL     1       1.653  15.112  18.938  0.00  0.00    +0.000 A 
ATOM     26  N   UNL     1       2.523  15.333  19.945  0.00  0.00    +0.000 NA
ATOM     27  C   UNL     1       2.344  14.606  21.069  0.00  0.00    +0.000 A 
ATOM     28  C   UNL     1       1.353  13.649  21.222  0.00  0.00    +0.000 A 
ENDBRANCH  17  23
BRANCH  15  29
ATOM     29  N   UNL     1       0.751  11.076  17.958  0.00  0.00    +0.000 N 
ATOM     30  H   UNL     1       1.574  10.868  17.398  0.00  0.00    +0.000 HD
ATOM     31  H   UNL     1       0.605  12.076  17.992  0.00  0.00    +0.000 HD
ENDBRANCH  15  29
TORSDOF 2
ENDMDL
MODEL 4
REMARK VINA RESULT:      -6.8      7.919     10.259
REMARK  Name = 
REMARK  4 active torsions:
REMARK  status: ('A' for Active; 'I' for Inactive)
REMARK    1  A    between atoms: C_1  and  C_2
REMARK    2  A    between atoms: C_2  and  C_3
REMARK    3  A    between atoms: C_15  and  N_16
REMARK    4  A    between atoms: C_18  and  C_19
REMARK                            x       y       z     vdW  Elec       q    Type
REMARK                         _______ _______ _______ _____ _____    ______ ____
ROOT
ATOM      1  C   UNL     1      11.833  11.542  18.064  0.00  0.00    +0.000 C 
ATOM      2  C   UNL     1      10.877  12.312  18.990  0.00  0.00    +0.000 C 
ATOM      3  C   UNL     1       9.620  12.675  18.168  0.00  0.00    +0.000 C 
ATOM      4  C   UNL     1      11.593  13.578  19.473  0.00  0.00    +0.000 C 
ATOM      5  C   UNL     1      10.867  14.305  20.575  0.00  0.00    +0.000 C 
ATOM      6  O   UNL     1      11.155  15.466  20.852  0.00  0.00    +0.000 OA
ATOM      7  C   UNL     1       9.846  13.566  21.373  0.00  0.00    +0.000 C 
ATOM      8  C   UNL     1       9.714  12.231  21.258  0.00  0.00    +0.000 C 
ATOM      9  C   UNL     1      10.495  11.449  20.221  0.00  0.00    +0.000 C 
ATOM     10  N   UNL     1       8.822  11.556  22.074  0.00  0.00    +0.000 N 
ATOM     11  C   UNL     1       8.106  12.159  23.118  0.00  0.00    +0.000 A 
ATOM     12  N   UNL     1       7.362  11.367  23.922  0.00  0.00    +0.000 NA
ATOM     13  C   UNL     1       6.664  11.940  24.948  0.00  0.00    +0.000 A 
ATOM     14  C   UNL     1       6.692  13.306  25.210  0.00  0.00    +0.000 A 
ATOM     15  C   UNL     1       7.449  14.130  24.355  0.00  0.00    +0.000 A 
ATOM     16  C   UNL     1       8.179  13.543  23.302  0.00  0.00    +0.000 A 
ATOM     17  C   UNL     1       8.991  14.379  22.314  0.00  0.00    +0.000 C 
ATOM     18  C   UNL     1       5.882  13.926  26.313  0.00  0.00    +0.000 C 
ATOM     19  C   UNL     1       5.181  13.005  27.298  0.00  0.00    +0.000 C 
ATOM     20  C   UNL     1       4.937  11.576  26.850  0.00  0.00    +0.000 C 
ATOM     21  C   UNL     1       5.908  10.986  25.830  0.00  0.00    +0.000 C 
ATOM     22  H   UNL     1       8.754  10.545  22.045  0.00  0.00    +0.000 HD
ENDROOT
BRANCH  17  23
ATOM     23  C   UNL     1       8.079  15.320  21.512  0.00  0.00    +0.000 A 
ATOM     24  C   UNL     1       7.145  14.792  20.613  0.00  0.00    +0.000 A 
ATOM     25  C   UNL     1       6.364  15.663  19.873  0.00  0.00    +0.000 A 
ATOM     26  N   UNL     1       6.433  17.006  19.977  0.00  0.00    +0.000 NA
ATOM     27  C   UNL     1       7.315  17.499  20.873  0.00  0.00    +0.000 A 
ATOM     28  C   UNL     1       8.150  16.712  21.650  0.00  0.00    +0.000 A 
ENDBRANCH  17  23
BRANCH  15  29
ATOM     29  N   UNL     1       7.646  15.485  24.703  0.00  0.00    +0.000 N 
ATOM     30  H   UNL     1       7.585  16.129  23.919  0.00  0.00    +0.000 HD
ATOM     31  H   UNL     1       8.485  15.671  25.235  0.00  0.00    +0.000 HD
ENDBRANCH  15  29
TORSDOF 2
ENDMDL
MODEL 5
REMARK VINA RESULT:      -6.7      7.910      9.032
REMARK  Name = 
REMARK  4 active torsions:
REMARK  status: ('A' for Active; 'I' for Inactive)
REMARK    1  A    between atoms: C_1  and  C_2
REMARK    2  A    between atoms: C_2  and  C_3
REMARK    3  A    between atoms: C_15  and  N_16
REMARK    4  A    between atoms: C_18  and  C_19
REMARK                            x       y       z     vdW  Elec       q    Type
REMARK                         _______ _______ _______ _____ _____    ______ ____
ROOT
ATOM      1  C   UNL     1       6.601  11.600  27.611  0.00  0.00    +0.000 C 
ATOM      2  C   UNL     1       6.937  12.406  26.345  0.00  0.00    +0.000 C 
ATOM      3  C   UNL     1       7.858  13.574  26.764  0.00  0.00    +0.000 C 
ATOM      4  C   UNL     1       5.628  12.935  25.751  0.00  0.00    +0.000 C 
ATOM      5  C   UNL     1       5.781  13.539  24.379  0.00  0.00    +0.000 C 
ATOM      6  O   UNL     1       4.903  14.256  23.911  0.00  0.00    +0.000 OA
ATOM      7  C   UNL     1       6.985  13.188  23.570  0.00  0.00    +0.000 C 
ATOM      8  C   UNL     1       7.814  12.201  23.959  0.00  0.00    +0.000 C 
ATOM      9  C   UNL     1       7.640  11.506  25.294  0.00  0.00    +0.000 C 
ATOM     10  N   UNL     1       8.874  11.834  23.146  0.00  0.00    +0.000 N 
ATOM     11  C   UNL     1       9.089  12.348  21.861  0.00  0.00    +0.000 A 
ATOM     12  N   UNL     1      10.086  11.817  21.119  0.00  0.00    +0.000 NA
ATOM     13  C   UNL     1      10.303  12.306  19.861  0.00  0.00    +0.000 A 
ATOM     14  C   UNL     1       9.536  13.321  19.302  0.00  0.00    +0.000 A 
ATOM     15  C   UNL     1       8.513  13.888  20.087  0.00  0.00    +0.000 A 
ATOM     16  C   UNL     1       8.278  13.382  21.382  0.00  0.00    +0.000 A 
ATOM     17  C   UNL     1       7.211  13.974  22.302  0.00  0.00    +0.000 C 
ATOM     18  C   UNL     1       9.816  13.878  17.935  0.00  0.00    +0.000 C 
ATOM     19  C   UNL     1      10.835  13.164  17.062  0.00  0.00    +0.000 C 
ATOM     20  C   UNL     1      11.831  12.261  17.763  0.00  0.00    +0.000 C 
ATOM     21  C   UNL     1      11.392  11.623  19.080  0.00  0.00    +0.000 C 
ATOM     22  H   UNL     1       9.472  11.053  23.394  0.00  0.00    +0.000 HD
ENDROOT
BRANCH  17  23
ATOM     23  C   UNL     1       7.533  15.437  22.644  0.00  0.00    +0.000 A 
ATOM     24  C   UNL     1       8.678  15.747  23.387  0.00  0.00    +0.000 A 
ATOM     25  C   UNL     1       8.921  17.070  23.717  0.00  0.00    +0.000 A 
ATOM     26  N   UNL     1       8.126  18.094  23.347  0.00  0.00    +0.000 NA
ATOM     27  C   UNL     1       7.044  17.782  22.601  0.00  0.00    +0.000 A 
ATOM     28  C   UNL     1       6.706  16.490  22.232  0.00  0.00    +0.000 A 
ENDBRANCH  17  23
BRANCH  15  29
ATOM     29  N   UNL     1       7.603  14.786  19.487  0.00  0.00    +0.000 N 
ATOM     30  H   UNL     1       6.717  14.872  19.977  0.00  0.00    +0.000 HD
ATOM     31  H   UNL     1       7.435  14.628  18.502  0.00  0.00    +0.000 HD
ENDBRANCH  15  29
TORSDOF 2
ENDMDL
MODEL 6
REMARK VINA RESULT:      -6.6      3.409      7.115
REMARK  Name = 
REMARK  4 active torsions:
REMARK  status: ('A' for Active; 'I' for Inactive)
REMARK    1  A    between atoms: C_1  and  C_2
REMARK    2  A    between atoms: C_2  and  C_3
REMARK    3  A    between atoms: C_15  and  N_16
REMARK    4  A    between atoms: C_18  and  C_19
REMARK                            x       y       z     vdW  Elec       q    Type
REMARK                         _______ _______ _______ _____ _____    ______ ____
ROOT
ATOM      1  C   UNL     1       2.232   8.807  17.885  0.00  0.00    +0.000 C 
ATOM      2  C   UNL     1       1.258   9.839  18.478  0.00  0.00    +0.000 C 
ATOM      3  C   UNL     1       1.800  11.245  18.133  0.00  0.00    +0.000 C 
ATOM      4  C   UNL     1       1.207   9.636  19.995  0.00  0.00    +0.000 C 
ATOM      5  C   UNL     1       0.115  10.416  20.678  0.00  0.00    +0.000 C 
ATOM      6  O   UNL     1       0.135  10.587  21.894  0.00  0.00    +0.000 OA
ATOM      7  C   UNL     1      -1.032  10.914  19.862  0.00  0.00    +0.000 C 
ATOM      8  C   UNL     1      -1.201  10.508  18.590  0.00  0.00    +0.000 C 
ATOM      9  C   UNL     1      -0.167   9.645  17.895  0.00  0.00    +0.000 C 
ATOM     10  N   UNL     1      -2.320  10.912  17.883  0.00  0.00    +0.000 N 
ATOM     11  C   UNL     1      -3.378  11.642  18.442  0.00  0.00    +0.000 A 
ATOM     12  N   UNL     1      -4.471  11.867  17.680  0.00  0.00    +0.000 NA
ATOM     13  C   UNL     1      -5.513  12.573  18.216  0.00  0.00    +0.000 A 
ATOM     14  C   UNL     1      -5.504  13.063  19.517  0.00  0.00    +0.000 A 
ATOM     15  C   UNL     1      -4.353  12.846  20.299  0.00  0.00    +0.000 A 
ATOM     16  C   UNL     1      -3.280  12.111  19.756  0.00  0.00    +0.000 A 
ATOM     17  C   UNL     1      -1.987  11.870  20.534  0.00  0.00    +0.000 C 
ATOM     18  C   UNL     1      -6.638  13.875  20.075  0.00  0.00    +0.000 C 
ATOM     19  C   UNL     1      -7.916  13.982  19.261  0.00  0.00    +0.000 C 
ATOM     20  C   UNL     1      -7.813  13.690  17.776  0.00  0.00    +0.000 C 
ATOM     21  C   UNL     1      -6.714  12.730  17.325  0.00  0.00    +0.000 C 
ATOM     22  H   UNL     1      -2.495  10.567  16.946  0.00  0.00    +0.000 HD
ENDROOT
BRANCH  17  23
ATOM     23  C   UNL     1      -1.273  13.197  20.835  0.00  0.00    +0.000 A 
ATOM     24  C   UNL     1      -0.818  14.002  19.785  0.00  0.00    +0.000 A 
ATOM     25  C   UNL     1      -0.141  15.172  20.085  0.00  0.00    +0.000 A 
ATOM     26  N   UNL     1       0.094  15.602  21.341  0.00  0.00    +0.000 NA
ATOM     27  C   UNL     1      -0.381  14.831  22.344  0.00  0.00    +0.000 A 
ATOM     28  C   UNL     1      -1.057  13.637  22.147  0.00  0.00    +0.000 A 
ENDBRANCH  17  23
BRANCH  15  29
ATOM     29  N   UNL     1      -4.386  13.166  21.675  0.00  0.00    +0.000 N 
ATOM     30  H   UNL     1      -4.249  14.153  21.876  0.00  0.00    +0.000 HD
ATOM     31  H   UNL     1      -3.774  12.610  22.257  0.00  0.00    +0.000 HD
ENDBRANCH  15  29
TORSDOF 2
ENDMDL
MODEL 7
REMARK VINA RESULT:      -6.6      1.447      1.951
REMARK  Name = 
REMARK  4 active torsions:
REMARK  status: ('A' for Active; 'I' for Inactive)
REMARK    1  A    between atoms: C_1  and  C_2
REMARK    2  A    between atoms: C_2  and  C_3
REMARK    3  A    between atoms: C_15  and  N_16
REMARK    4  A    between atoms: C_18  and  C_19
REMARK                            x       y       z     vdW  Elec       q    Type
REMARK                         _______ _______ _______ _____ _____    ______ ____
ROOT
ATOM      1  C   UNL     1      -3.391  15.277  25.026  0.00  0.00    +0.000 C 
ATOM      2  C   UNL     1      -2.404  14.841  23.929  0.00  0.00    +0.000 C 
ATOM      3  C   UNL     1      -1.007  15.377  24.315  0.00  0.00    +0.000 C 
ATOM      4  C   UNL     1      -2.867  15.444  22.599  0.00  0.00    +0.000 C 
ATOM      5  C   UNL     1      -2.135  14.907  21.398  0.00  0.00    +0.000 C 
ATOM      6  O   UNL     1      -2.183  15.495  20.322  0.00  0.00    +0.000 OA
ATOM      7  C   UNL     1      -1.412  13.607  21.519  0.00  0.00    +0.000 C 
ATOM      8  C   UNL     1      -1.574  12.826  22.604  0.00  0.00    +0.000 C 
ATOM      9  C   UNL     1      -2.380  13.295  23.798  0.00  0.00    +0.000 C 
ATOM     10  N   UNL     1      -0.963  11.584  22.654  0.00  0.00    +0.000 N 
ATOM     11  C   UNL     1      -0.262  11.013  21.583  0.00  0.00    +0.000 A 
ATOM     12  N   UNL     1       0.180   9.743  21.714  0.00  0.00    +0.000 NA
ATOM     13  C   UNL     1       0.860   9.172  20.675  0.00  0.00    +0.000 A 
ATOM     14  C   UNL     1       1.111   9.837  19.480  0.00  0.00    +0.000 A 
ATOM     15  C   UNL     1       0.670  11.168  19.357  0.00  0.00    +0.000 A 
ATOM     16  C   UNL     1      -0.041  11.759  20.421  0.00  0.00    +0.000 A 
ATOM     17  C   UNL     1      -0.517  13.211  20.371  0.00  0.00    +0.000 C 
ATOM     18  C   UNL     1       1.900   9.211  18.365  0.00  0.00    +0.000 C 
ATOM     19  C   UNL     1       2.250   7.736  18.470  0.00  0.00    +0.000 C 
ATOM     20  C   UNL     1       2.216   7.117  19.854  0.00  0.00    +0.000 C 
ATOM     21  C   UNL     1       1.267   7.738  20.877  0.00  0.00    +0.000 C 
ATOM     22  H   UNL     1      -1.124  10.957  23.435  0.00  0.00    +0.000 HD
ENDROOT
BRANCH  17  23
ATOM     23  C   UNL     1       0.676  14.176  20.281  0.00  0.00    +0.000 A 
ATOM     24  C   UNL     1       1.578  14.276  21.346  0.00  0.00    +0.000 A 
ATOM     25  C   UNL     1       2.620  15.183  21.256  0.00  0.00    +0.000 A 
ATOM     26  N   UNL     1       2.836  15.974  20.185  0.00  0.00    +0.000 NA
ATOM     27  C   UNL     1       1.977  15.841  19.152  0.00  0.00    +0.000 A 
ATOM     28  C   UNL     1       0.896  14.973  19.151  0.00  0.00    +0.000 A 
ENDBRANCH  17  23
BRANCH  15  29
ATOM     29  N   UNL     1       0.745  11.804  18.097  0.00  0.00    +0.000 N 
ATOM     30  H   UNL     1      -0.079  11.676  17.516  0.00  0.00    +0.000 HD
ATOM     31  H   UNL     1       1.577  11.593  17.562  0.00  0.00    +0.000 HD
ENDBRANCH  15  29
TORSDOF 2
ENDMDL
MODEL 8
REMARK VINA RESULT:      -6.4      2.803      6.423
REMARK  Name = 
REMARK  4 active torsions:
REMARK  status: ('A' for Active; 'I' for Inactive)
REMARK    1  A    between atoms: C_1  and  C_2
REMARK    2  A    between atoms: C_2  and  C_3
REMARK    3  A    between atoms: C_15  and  N_16
REMARK    4  A    between atoms: C_18  and  C_19
REMARK                            x       y       z     vdW  Elec       q    Type
REMARK                         _______ _______ _______ _____ _____    ______ ____
ROOT
ATOM      1  C   UNL     1      -6.017  13.491  23.633  0.00  0.00    +0.000 C 
ATOM      2  C   UNL     1      -4.790  13.353  22.715  0.00  0.00    +0.000 C 
ATOM      3  C   UNL     1      -5.229  12.557  21.465  0.00  0.00    +0.000 C 
ATOM      4  C   UNL     1      -3.700  12.598  23.481  0.00  0.00    +0.000 C 
ATOM      5  C   UNL     1      -2.360  12.599  22.794  0.00  0.00    +0.000 C 
ATOM      6  O   UNL     1      -1.486  11.804  23.127  0.00  0.00    +0.000 OA
ATOM      7  C   UNL     1      -2.087  13.633  21.753  0.00  0.00    +0.000 C 
ATOM      8  C   UNL     1      -2.929  14.667  21.571  0.00  0.00    +0.000 C 
ATOM      9  C   UNL     1      -4.248  14.749  22.312  0.00  0.00    +0.000 C 
ATOM     10  N   UNL     1      -2.609  15.662  20.661  0.00  0.00    +0.000 N 
ATOM     11  C   UNL     1      -1.387  15.734  19.979  0.00  0.00    +0.000 A 
ATOM     12  N   UNL     1      -1.148  16.822  19.213  0.00  0.00    +0.000 NA
ATOM     13  C   UNL     1       0.042  16.908  18.546  0.00  0.00    +0.000 A 
ATOM     14  C   UNL     1       1.027  15.929  18.627  0.00  0.00    +0.000 A 
ATOM     15  C   UNL     1       0.763  14.787  19.407  0.00  0.00    +0.000 A 
ATOM     16  C   UNL     1      -0.459  14.697  20.105  0.00  0.00    +0.000 A 
ATOM     17  C   UNL     1      -0.827  13.470  20.939  0.00  0.00    +0.000 C 
ATOM     18  C   UNL     1       2.311  16.018  17.852  0.00  0.00    +0.000 C 
ATOM     19  C   UNL     1       2.626  17.315  17.126  0.00  0.00    +0.000 C 
ATOM     20  C   UNL     1       1.459  18.237  16.824  0.00  0.00    +0.000 C 
ATOM     21  C   UNL     1       0.256  18.175  17.764  0.00  0.00    +0.000 C 
ATOM     22  H   UNL     1      -3.201  16.479  20.556  0.00  0.00    +0.000 HD
ENDROOT
BRANCH  17  23
ATOM     23  C   UNL     1      -0.935  12.218  20.055  0.00  0.00    +0.000 A 
ATOM     24  C   UNL     1      -0.039  11.157  20.231  0.00  0.00    +0.000 A 
ATOM     25  C   UNL     1      -0.132  10.058  19.394  0.00  0.00    +0.000 A 
ATOM     26  N   UNL     1      -1.055   9.934  18.418  0.00  0.00    +0.000 NA
ATOM     27  C   UNL     1      -1.933  10.951  18.283  0.00  0.00    +0.000 A 
ATOM     28  C   UNL     1      -1.914  12.098  19.060  0.00  0.00    +0.000 A 
ENDBRANCH  17  23
BRANCH  15  29
ATOM     29  N   UNL     1       1.807  13.869  19.657  0.00  0.00    +0.000 N 
ATOM     30  H   UNL     1       2.630  14.005  19.076  0.00  0.00    +0.000 HD
ATOM     31  H   UNL     1       1.533  12.896  19.639  0.00  0.00    +0.000 HD
ENDBRANCH  15  29
TORSDOF 2
ENDMDL
MODEL 9
REMARK VINA RESULT:      -6.4      1.950      4.496
REMARK  Name = 
REMARK  4 active torsions:
REMARK  status: ('A' for Active; 'I' for Inactive)
REMARK    1  A    between atoms: C_1  and  C_2
REMARK    2  A    between atoms: C_2  and  C_3
REMARK    3  A    between atoms: C_15  and  N_16
REMARK    4  A    between atoms: C_18  and  C_19
REMARK                            x       y       z     vdW  Elec       q    Type
REMARK                         _______ _______ _______ _____ _____    ______ ____
ROOT
ATOM      1  C   UNL     1       1.483  17.502  18.312  0.00  0.00    +0.000 C 
ATOM      2  C   UNL     1       1.055  16.162  18.935  0.00  0.00    +0.000 C 
ATOM      3  C   UNL     1      -0.446  15.960  18.625  0.00  0.00    +0.000 C 
ATOM      4  C   UNL     1       1.288  16.239  20.447  0.00  0.00    +0.000 C 
ATOM      5  C   UNL     1       1.139  14.919  21.155  0.00  0.00    +0.000 C 
ATOM      6  O   UNL     1       1.005  14.875  22.375  0.00  0.00    +0.000 OA
ATOM      7  C   UNL     1       1.235  13.661  20.358  0.00  0.00    +0.000 C 
ATOM      8  C   UNL     1       1.647  13.686  19.077  0.00  0.00    +0.000 C 
ATOM      9  C   UNL     1       1.895  14.995  18.355  0.00  0.00    +0.000 C 
ATOM     10  N   UNL     1       1.813  12.497  18.385  0.00  0.00    +0.000 N 
ATOM     11  C   UNL     1       1.690  11.229  18.968  0.00  0.00    +0.000 A 
ATOM     12  N   UNL     1       2.000  10.149  18.217  0.00  0.00    +0.000 NA
ATOM     13  C   UNL     1       1.889   8.906  18.775  0.00  0.00    +0.000 A 
ATOM     14  C   UNL     1       1.481   8.701  20.088  0.00  0.00    +0.000 A 
ATOM     15  C   UNL     1       1.137   9.827  20.859  0.00  0.00    +0.000 A 
ATOM     16  C   UNL     1       1.258  11.112  20.293  0.00  0.00    +0.000 A 
ATOM     17  C   UNL     1       0.866  12.376  21.058  0.00  0.00    +0.000 C 
ATOM     18  C   UNL     1       1.322   7.325  20.672  0.00  0.00    +0.000 C 
ATOM     19  C   UNL     1       1.824   6.138  19.867  0.00  0.00    +0.000 C 
ATOM     20  C   UNL     1       2.001   6.344  18.374  0.00  0.00    +0.000 C 
ATOM     21  C   UNL     1       2.308   7.761  17.894  0.00  0.00    +0.000 C 
ATOM     22  H   UNL     1       2.181  12.494  17.440  0.00  0.00    +0.000 HD
ENDROOT
BRANCH  17  23
ATOM     23  C   UNL     1      -0.634  12.373  21.390  0.00  0.00    +0.000 A 
ATOM     24  C   UNL     1      -1.579  12.515  20.366  0.00  0.00    +0.000 A 
ATOM     25  C   UNL     1      -2.922  12.551  20.698  0.00  0.00    +0.000 A 
ATOM     26  N   UNL     1      -3.388  12.436  21.958  0.00  0.00    +0.000 NA
ATOM     27  C   UNL     1      -2.466  12.265  22.931  0.00  0.00    +0.000 A 
ATOM     28  C   UNL     1      -1.099  12.230  22.703  0.00  0.00    +0.000 A 
ENDBRANCH  17  23
BRANCH  15  29
ATOM     29  N   UNL     1       0.899   9.667  22.243  0.00  0.00    +0.000 N 
ATOM     30  H   UNL     1       0.917   8.702  22.560  0.00  0.00    +0.000 HD
ATOM     31  H   UNL     1       0.066  10.125  22.588  0.00  0.00    +0.000 HD
ENDBRANCH  15  29
TORSDOF 2
ENDMDL
