MODEL 1
REMARK VINA RESULT:      -7.4      0.000      0.000
REMARK  Name = 
REMARK  14 active torsions:
REMARK  status: ('A' for Active; 'I' for Inactive)
REMARK    1  A    between atoms: C_1  and  C_2
REMARK    2  A    between atoms: C_2  and  C_3
REMARK    3  A    between atoms: C_6  and  C_7
REMARK    4  A    between atoms: C_7  and  C_8
REMARK    5  A    between atoms: C_10  and  C_11
REMARK    6  A    between atoms: C_13  and  C_14
REMARK    7  A    between atoms: C_14  and  O_15
REMARK    8  A    between atoms: C_16  and  O_17
REMARK    9  A    between atoms: C_18  and  O_19
REMARK   10  A    between atoms: C_20  and  O_21
REMARK   11  A    between atoms: C_22  and  C_23
REMARK   12  A    between atoms: C_23  and  O_24
REMARK   13  A    between atoms: O_24  and  C_25
REMARK   14  A    between atoms: C_25  and  C_26
REMARK                            x       y       z     vdW  Elec       q    Type
REMARK                         _______ _______ _______ _____ _____    ______ ____
ROOT
ATOM      1  C   UNL     1       1.403   9.137  18.875  0.00  0.00    +0.000 A 
ATOM      2  C   UNL     1       2.284   8.325  18.134  0.00  0.00    +0.000 A 
ATOM      3  C   UNL     1       2.747   7.087  18.625  0.00  0.00    +0.000 A 
ATOM      4  C   UNL     1       2.440   6.719  19.952  0.00  0.00    +0.000 A 
ATOM      5  C   UNL     1       1.529   7.506  20.673  0.00  0.00    +0.000 A 
ATOM      6  C   UNL     1       0.985   8.674  20.128  0.00  0.00    +0.000 A 
ATOM      7 CL   UNL     1      -0.212   9.500  21.062  0.00  0.00    +0.000 Cl
ENDROOT
BRANCH   3   8
ATOM      8  C   UNL     1       3.413   6.103  17.673  0.00  0.00    +0.000 C 
ATOM      9  O   UNL     1       3.092   4.746  18.002  0.00  0.00    +0.000 OA
ATOM     10  C   UNL     1       3.542   3.848  16.974  0.00  0.00    +0.000 C 
ATOM     11  C   UNL     1       5.078   3.894  16.852  0.00  0.00    +0.000 C 
ATOM     12  C   UNL     1       5.562   5.341  16.635  0.00  0.00    +0.000 C 
ATOM     13  C   UNL     1       4.952   6.293  17.674  0.00  0.00    +0.000 C 
BRANCH  11  14
ATOM     14  O   UNL     1       5.524   3.039  15.786  0.00  0.00    +0.000 OA
ATOM     15  H   UNL     1       5.762   2.172  16.165  0.00  0.00    +0.000 HD
ENDBRANCH  11  14
BRANCH  12  16
ATOM     16  O   UNL     1       6.992   5.400  16.656  0.00  0.00    +0.000 OA
ATOM     17  H   UNL     1       7.338   4.485  16.653  0.00  0.00    +0.000 HD
ENDBRANCH  12  16
BRANCH  13  18
ATOM     18  O   UNL     1       5.332   7.645  17.390  0.00  0.00    +0.000 OA
ATOM     19  H   UNL     1       4.954   7.912  16.537  0.00  0.00    +0.000 HD
ENDBRANCH  13  18
BRANCH  10  20
ATOM     20  C   UNL     1       3.039   2.430  17.286  0.00  0.00    +0.000 C 
BRANCH  20  21
ATOM     21  O   UNL     1       4.051   1.606  17.855  0.00  0.00    +0.000 OA
ATOM     22  H   UNL     1       3.967   0.719  17.451  0.00  0.00    +0.000 HD
ENDBRANCH  20  21
ENDBRANCH  10  20
ENDBRANCH   3   8
BRANCH   1  23
ATOM     23  C   UNL     1       0.949  10.461  18.296  0.00  0.00    +0.000 C 
BRANCH  23  27
ATOM     24  C   UNL     1      -3.353  10.866  17.883  0.00  0.00    +0.000 A 
ATOM     25  C   UNL     1      -2.675   9.801  17.282  0.00  0.00    +0.000 A 
ATOM     26  C   UNL     1      -1.284   9.687  17.394  0.00  0.00    +0.000 A 
ATOM     27  C   UNL     1      -0.543  10.636  18.116  0.00  0.00    +0.000 A 
ATOM     28  C   UNL     1      -1.229  11.696  18.719  0.00  0.00    +0.000 A 
ATOM     29  C   UNL     1      -2.615  11.810  18.609  0.00  0.00    +0.000 A 
BRANCH  24  31
ATOM     30  C   UNL     1      -5.403  12.105  18.647  0.00  0.00    +0.000 C 
ATOM     31  C   UNL     1      -4.852  10.987  17.776  0.00  0.00    +0.000 C 
ENDBRANCH  24  31
ENDBRANCH  23  27
ENDBRANCH   1  23
BRANCH   4  32
ATOM     32  C   UNL     1       3.017   5.490  20.617  0.00  0.00    +0.000 C 
BRANCH  32  33
ATOM     33  O   UNL     1       1.995   4.857  21.394  0.00  0.00    +0.000 OA
BRANCH  33  34
ATOM     34  C   UNL     1       2.160   3.436  21.446  0.00  0.00    +0.000 C 
BRANCH  34  35
ATOM     35  C   UNL     1       1.066   2.721  20.660  0.00  0.00    +0.000 C 
ATOM     36  F   UNL     1       0.551   3.576  19.737  0.00  0.00    +0.000 F 
ATOM     37  F   UNL     1       1.605   1.687  19.961  0.00  0.00    +0.000 F 
ENDBRANCH  34  35
ENDBRANCH  33  34
ENDBRANCH  32  33
ENDBRANCH   4  32
TORSDOF 13
ENDMDL
MODEL 2
REMARK VINA RESULT:      -7.3      1.166      2.395
REMARK  Name = 
REMARK  14 active torsions:
REMARK  status: ('A' for Active; 'I' for Inactive)
REMARK    1  A    between atoms: C_1  and  C_2
REMARK    2  A    between atoms: C_2  and  C_3
REMARK    3  A    between atoms: C_6  and  C_7
REMARK    4  A    between atoms: C_7  and  C_8
REMARK    5  A    between atoms: C_10  and  C_11
REMARK    6  A    between atoms: C_13  and  C_14
REMARK    7  A    between atoms: C_14  and  O_15
REMARK    8  A    between atoms: C_16  and  O_17
REMARK    9  A    between atoms: C_18  and  O_19
REMARK   10  A    between atoms: C_20  and  O_21
REMARK   11  A    between atoms: C_22  and  C_23
REMARK   12  A    between atoms: C_23  and  O_24
REMARK   13  A    between atoms: O_24  and  C_25
REMARK   14  A    between atoms: C_25  and  C_26
REMARK                            x       y       z     vdW  Elec       q    Type
REMARK                         _______ _______ _______ _____ _____    ______ ____
ROOT
ATOM      1  C   UNL     1       1.464   8.805  19.293  0.00  0.00    +0.000 A 
ATOM      2  C   UNL     1       2.419   7.894  18.804  0.00  0.00    +0.000 A 
ATOM      3  C   UNL     1       2.670   6.663  19.445  0.00  0.00    +0.000 A 
ATOM      4  C   UNL     1       2.057   6.401  20.689  0.00  0.00    +0.000 A 
ATOM      5  C   UNL     1       1.075   7.288  21.152  0.00  0.00    +0.000 A 
ATOM      6  C   UNL     1       0.751   8.451  20.445  0.00  0.00    +0.000 A 
ATOM      7 CL   UNL     1      -0.553   9.409  21.052  0.00  0.00    +0.000 Cl
ENDROOT
BRANCH   3   8
ATOM      8  C   UNL     1       3.451   5.580  18.712  0.00  0.00    +0.000 C 
ATOM      9  O   UNL     1       4.597   6.115  18.040  0.00  0.00    +0.000 OA
ATOM     10  C   UNL     1       5.439   5.063  17.541  0.00  0.00    +0.000 C 
ATOM     11  C   UNL     1       4.689   4.226  16.485  0.00  0.00    +0.000 C 
ATOM     12  C   UNL     1       3.354   3.705  17.052  0.00  0.00    +0.000 C 
ATOM     13  C   UNL     1       2.543   4.841  17.696  0.00  0.00    +0.000 C 
BRANCH  11  14
ATOM     14  O   UNL     1       5.511   3.139  16.029  0.00  0.00    +0.000 OA
ATOM     15  H   UNL     1       5.330   2.359  16.588  0.00  0.00    +0.000 HD
ENDBRANCH  11  14
BRANCH  12  16
ATOM     16  O   UNL     1       2.600   3.044  16.031  0.00  0.00    +0.000 OA
ATOM     17  H   UNL     1       2.845   3.431  15.167  0.00  0.00    +0.000 HD
ENDBRANCH  12  16
BRANCH  13  18
ATOM     18  O   UNL     1       1.358   4.316  18.307  0.00  0.00    +0.000 OA
ATOM     19  H   UNL     1       0.865   3.794  17.655  0.00  0.00    +0.000 HD
ENDBRANCH  13  18
BRANCH  10  20
ATOM     20  C   UNL     1       6.728   5.673  16.972  0.00  0.00    +0.000 C 
BRANCH  20  21
ATOM     21  O   UNL     1       7.759   4.706  16.796  0.00  0.00    +0.000 OA
ATOM     22  H   UNL     1       8.554   5.180  16.482  0.00  0.00    +0.000 HD
ENDBRANCH  20  21
ENDBRANCH  10  20
ENDBRANCH   3   8
BRANCH   1  23
ATOM     23  C   UNL     1       1.246  10.115  18.564  0.00  0.00    +0.000 C 
BRANCH  23  27
ATOM     24  C   UNL     1      -2.790  11.097  17.304  0.00  0.00    +0.000 A 
ATOM     25  C   UNL     1      -2.044  11.994  18.076  0.00  0.00    +0.000 A 
ATOM     26  C   UNL     1      -0.753  11.663  18.504  0.00  0.00    +0.000 A 
ATOM     27  C   UNL     1      -0.179  10.429  18.162  0.00  0.00    +0.000 A 
ATOM     28  C   UNL     1      -0.928   9.539  17.384  0.00  0.00    +0.000 A 
ATOM     29  C   UNL     1      -2.214   9.867  16.956  0.00  0.00    +0.000 A 
BRANCH  24  31
ATOM     30  C   UNL     1      -5.231  11.201  17.895  0.00  0.00    +0.000 C 
ATOM     31  C   UNL     1      -4.176  11.453  16.829  0.00  0.00    +0.000 C 
ENDBRANCH  24  31
ENDBRANCH  23  27
ENDBRANCH   1  23
BRANCH   4  32
ATOM     32  C   UNL     1       2.384   5.183  21.523  0.00  0.00    +0.000 C 
BRANCH  32  33
ATOM     33  O   UNL     1       1.514   4.111  21.142  0.00  0.00    +0.000 OA
BRANCH  33  34
ATOM     34  C   UNL     1       2.078   2.829  21.436  0.00  0.00    +0.000 C 
BRANCH  34  35
ATOM     35  C   UNL     1       3.320   2.562  20.590  0.00  0.00    +0.000 C 
ATOM     36  F   UNL     1       4.216   1.855  21.328  0.00  0.00    +0.000 F 
ATOM     37  F   UNL     1       2.993   1.775  19.532  0.00  0.00    +0.000 F 
ENDBRANCH  34  35
ENDBRANCH  33  34
ENDBRANCH  32  33
ENDBRANCH   4  32
TORSDOF 13
ENDMDL
MODEL 3
REMARK VINA RESULT:      -7.1      3.287      7.804
REMARK  Name = 
REMARK  14 active torsions:
REMARK  status: ('A' for Active; 'I' for Inactive)
REMARK    1  A    between atoms: C_1  and  C_2
REMARK    2  A    between atoms: C_2  and  C_3
REMARK    3  A    between atoms: C_6  and  C_7
REMARK    4  A    between atoms: C_7  and  C_8
REMARK    5  A    between atoms: C_10  and  C_11
REMARK    6  A    between atoms: C_13  and  C_14
REMARK    7  A    between atoms: C_14  and  O_15
REMARK    8  A    between atoms: C_16  and  O_17
REMARK    9  A    between atoms: C_18  and  O_19
REMARK   10  A    between atoms: C_20  and  O_21
REMARK   11  A    between atoms: C_22  and  C_23
REMARK   12  A    between atoms: C_23  and  O_24
REMARK   13  A    between atoms: O_24  and  C_25
REMARK   14  A    between atoms: C_25  and  C_26
REMARK                            x       y       z     vdW  Elec       q    Type
REMARK                         _______ _______ _______ _____ _____    ______ ____
ROOT
ATOM      1  C   UNL     1       4.962   6.455  17.868  0.00  0.00    +0.000 A 
ATOM      2  C   UNL     1       3.969   7.435  18.060  0.00  0.00    +0.000 A 
ATOM      3  C   UNL     1       2.936   7.272  19.007  0.00  0.00    +0.000 A 
ATOM      4  C   UNL     1       2.807   6.035  19.673  0.00  0.00    +0.000 A 
ATOM      5  C   UNL     1       3.820   5.078  19.513  0.00  0.00    +0.000 A 
ATOM      6  C   UNL     1       4.904   5.301  18.657  0.00  0.00    +0.000 A 
ATOM      7 CL   UNL     1       6.148   4.101  18.627  0.00  0.00    +0.000 Cl
ENDROOT
BRANCH   3   8
ATOM      8  C   UNL     1       2.095   8.474  19.416  0.00  0.00    +0.000 C 
ATOM      9  O   UNL     1       1.323   8.205  20.593  0.00  0.00    +0.000 OA
ATOM     10  C   UNL     1       0.711   9.407  21.091  0.00  0.00    +0.000 C 
ATOM     11  C   UNL     1      -0.285   9.972  20.058  0.00  0.00    +0.000 C 
ATOM     12  C   UNL     1       0.402  10.173  18.694  0.00  0.00    +0.000 C 
ATOM     13  C   UNL     1       1.158   8.908  18.261  0.00  0.00    +0.000 C 
BRANCH  11  14
ATOM     14  O   UNL     1      -0.855  11.204  20.532  0.00  0.00    +0.000 OA
ATOM     15  H   UNL     1      -0.596  11.324  21.465  0.00  0.00    +0.000 HD
ENDBRANCH  11  14
BRANCH  12  16
ATOM     16  O   UNL     1      -0.554  10.570  17.705  0.00  0.00    +0.000 OA
ATOM     17  H   UNL     1      -1.422  10.188  17.944  0.00  0.00    +0.000 HD
ENDBRANCH  12  16
BRANCH  13  18
ATOM     18  O   UNL     1       1.874   9.152  17.043  0.00  0.00    +0.000 OA
ATOM     19  H   UNL     1       1.346   8.837  16.292  0.00  0.00    +0.000 HD
ENDBRANCH  13  18
BRANCH  10  20
ATOM     20  C   UNL     1       0.028   9.107  22.434  0.00  0.00    +0.000 C 
BRANCH  20  21
ATOM     21  O   UNL     1      -0.062  10.257  23.268  0.00  0.00    +0.000 OA
ATOM     22  H   UNL     1      -0.949  10.647  23.134  0.00  0.00    +0.000 HD
ENDBRANCH  20  21
ENDBRANCH  10  20
ENDBRANCH   3   8
BRANCH   1  23
ATOM     23  C   UNL     1       6.040   6.686  16.829  0.00  0.00    +0.000 C 
BRANCH  23  27
ATOM     24  C   UNL     1       6.077   3.982  13.434  0.00  0.00    +0.000 A 
ATOM     25  C   UNL     1       4.934   4.114  14.230  0.00  0.00    +0.000 A 
ATOM     26  C   UNL     1       4.934   4.967  15.340  0.00  0.00    +0.000 A 
ATOM     27  C   UNL     1       6.077   5.710  15.674  0.00  0.00    +0.000 A 
ATOM     28  C   UNL     1       7.215   5.577  14.870  0.00  0.00    +0.000 A 
ATOM     29  C   UNL     1       7.217   4.728  13.763  0.00  0.00    +0.000 A 
BRANCH  24  31
ATOM     30  C   UNL     1       4.741   3.074  11.507  0.00  0.00    +0.000 C 
ATOM     31  C   UNL     1       6.079   3.075  12.230  0.00  0.00    +0.000 C 
ENDBRANCH  24  31
ENDBRANCH  23  27
ENDBRANCH   1  23
BRANCH   4  32
ATOM     32  C   UNL     1       1.646   5.712  20.586  0.00  0.00    +0.000 C 
BRANCH  32  33
ATOM     33  O   UNL     1       1.701   4.325  20.938  0.00  0.00    +0.000 OA
BRANCH  33  34
ATOM     34  C   UNL     1       0.652   3.571  20.323  0.00  0.00    +0.000 C 
BRANCH  34  35
ATOM     35  C   UNL     1       1.168   2.775  19.128  0.00  0.00    +0.000 C 
ATOM     36  F   UNL     1       2.067   1.853  19.563  0.00  0.00    +0.000 F 
ATOM     37  F   UNL     1       0.146   2.074  18.569  0.00  0.00    +0.000 F 
ENDBRANCH  34  35
ENDBRANCH  33  34
ENDBRANCH  32  33
ENDBRANCH   4  32
TORSDOF 13
ENDMDL
MODEL 4
REMARK VINA RESULT:      -6.9      3.322      7.787
REMARK  Name = 
REMARK  14 active torsions:
REMARK  status: ('A' for Active; 'I' for Inactive)
REMARK    1  A    between atoms: C_1  and  C_2
REMARK    2  A    between atoms: C_2  and  C_3
REMARK    3  A    between atoms: C_6  and  C_7
REMARK    4  A    between atoms: C_7  and  C_8
REMARK    5  A    between atoms: C_10  and  C_11
REMARK    6  A    between atoms: C_13  and  C_14
REMARK    7  A    between atoms: C_14  and  O_15
REMARK    8  A    between atoms: C_16  and  O_17
REMARK    9  A    between atoms: C_18  and  O_19
REMARK   10  A    between atoms: C_20  and  O_21
REMARK   11  A    between atoms: C_22  and  C_23
REMARK   12  A    between atoms: C_23  and  O_24
REMARK   13  A    between atoms: O_24  and  C_25
REMARK   14  A    between atoms: C_25  and  C_26
REMARK                            x       y       z     vdW  Elec       q    Type
REMARK                         _______ _______ _______ _____ _____    ______ ____
ROOT
ATOM      1  C   UNL     1       5.050   6.327  17.913  0.00  0.00    +0.000 A 
ATOM      2  C   UNL     1       4.046   7.295  18.108  0.00  0.00    +0.000 A 
ATOM      3  C   UNL     1       3.025   7.127  19.066  0.00  0.00    +0.000 A 
ATOM      4  C   UNL     1       2.919   5.893  19.743  0.00  0.00    +0.000 A 
ATOM      5  C   UNL     1       3.942   4.949  19.581  0.00  0.00    +0.000 A 
ATOM      6  C   UNL     1       5.015   5.178  18.711  0.00  0.00    +0.000 A 
ATOM      7 CL   UNL     1       6.274   3.995  18.678  0.00  0.00    +0.000 Cl
ENDROOT
BRANCH   3   8
ATOM      8  C   UNL     1       2.173   8.321  19.474  0.00  0.00    +0.000 C 
ATOM      9  O   UNL     1       1.385   8.038  20.636  0.00  0.00    +0.000 OA
ATOM     10  C   UNL     1       0.759   9.231  21.137  0.00  0.00    +0.000 C 
ATOM     11  C   UNL     1      -0.223   9.803  20.095  0.00  0.00    +0.000 C 
ATOM     12  C   UNL     1       0.484  10.021  18.744  0.00  0.00    +0.000 C 
ATOM     13  C   UNL     1       1.252   8.763  18.309  0.00  0.00    +0.000 C 
BRANCH  11  14
ATOM     14  O   UNL     1      -0.805  11.028  20.572  0.00  0.00    +0.000 OA
ATOM     15  H   UNL     1      -1.157  11.521  19.807  0.00  0.00    +0.000 HD
ENDBRANCH  11  14
BRANCH  12  16
ATOM     16  O   UNL     1      -0.458  10.423  17.744  0.00  0.00    +0.000 OA
ATOM     17  H   UNL     1      -1.337  10.509  18.165  0.00  0.00    +0.000 HD
ENDBRANCH  12  16
BRANCH  13  18
ATOM     18  O   UNL     1       1.985   9.022  17.105  0.00  0.00    +0.000 OA
ATOM     19  H   UNL     1       2.413   9.890  17.171  0.00  0.00    +0.000 HD
ENDBRANCH  13  18
BRANCH  10  20
ATOM     20  C   UNL     1       0.058   8.915  22.466  0.00  0.00    +0.000 C 
BRANCH  20  21
ATOM     21  O   UNL     1       0.065  10.022  23.363  0.00  0.00    +0.000 OA
ATOM     22  H   UNL     1      -0.803  10.037  23.815  0.00  0.00    +0.000 HD
ENDBRANCH  20  21
ENDBRANCH  10  20
ENDBRANCH   3   8
BRANCH   1  23
ATOM     23  C   UNL     1       6.115   6.564  16.862  0.00  0.00    +0.000 C 
BRANCH  23  27
ATOM     24  C   UNL     1       5.996   3.940  13.406  0.00  0.00    +0.000 A 
ATOM     25  C   UNL     1       7.144   4.684  13.699  0.00  0.00    +0.000 A 
ATOM     26  C   UNL     1       7.170   5.549  14.799  0.00  0.00    +0.000 A 
ATOM     27  C   UNL     1       6.048   5.685  15.632  0.00  0.00    +0.000 A 
ATOM     28  C   UNL     1       4.905   4.934  15.336  0.00  0.00    +0.000 A 
ATOM     29  C   UNL     1       4.878   4.070  14.240  0.00  0.00    +0.000 A 
BRANCH  24  31
ATOM     30  C   UNL     1       4.631   3.026  11.502  0.00  0.00    +0.000 C 
ATOM     31  C   UNL     1       5.966   2.997  12.230  0.00  0.00    +0.000 C 
ENDBRANCH  24  31
ENDBRANCH  23  27
ENDBRANCH   1  23
BRANCH   4  32
ATOM     32  C   UNL     1       1.771   5.563  20.670  0.00  0.00    +0.000 C 
BRANCH  32  33
ATOM     33  O   UNL     1       0.793   4.805  19.949  0.00  0.00    +0.000 OA
BRANCH  33  34
ATOM     34  C   UNL     1       0.950   3.396  20.148  0.00  0.00    +0.000 C 
BRANCH  34  35
ATOM     35  C   UNL     1       1.226   2.676  18.831  0.00  0.00    +0.000 C 
ATOM     36  F   UNL     1       0.185   1.849  18.552  0.00  0.00    +0.000 F 
ATOM     37  F   UNL     1       1.277   3.580  17.818  0.00  0.00    +0.000 F 
ENDBRANCH  34  35
ENDBRANCH  33  34
ENDBRANCH  32  33
ENDBRANCH   4  32
TORSDOF 13
ENDMDL
MODEL 5
REMARK VINA RESULT:      -6.8      2.180      3.371
REMARK  Name = 
REMARK  14 active torsions:
REMARK  status: ('A' for Active; 'I' for Inactive)
REMARK    1  A    between atoms: C_1  and  C_2
REMARK    2  A    between atoms: C_2  and  C_3
REMARK    3  A    between atoms: C_6  and  C_7
REMARK    4  A    between atoms: C_7  and  C_8
REMARK    5  A    between atoms: C_10  and  C_11
REMARK    6  A    between atoms: C_13  and  C_14
REMARK    7  A    between atoms: C_14  and  O_15
REMARK    8  A    between atoms: C_16  and  O_17
REMARK    9  A    between atoms: C_18  and  O_19
REMARK   10  A    between atoms: C_20  and  O_21
REMARK   11  A    between atoms: C_22  and  C_23
REMARK   12  A    between atoms: C_23  and  O_24
REMARK   13  A    between atoms: O_24  and  C_25
REMARK   14  A    between atoms: C_25  and  C_26
REMARK                            x       y       z     vdW  Elec       q    Type
REMARK                         _______ _______ _______ _____ _____    ______ ____
ROOT
ATOM      1  C   UNL     1       1.519   9.209  18.674  0.00  0.00    +0.000 A 
ATOM      2  C   UNL     1       2.443   8.400  17.986  0.00  0.00    +0.000 A 
ATOM      3  C   UNL     1       2.865   7.154  18.493  0.00  0.00    +0.000 A 
ATOM      4  C   UNL     1       2.468   6.774  19.792  0.00  0.00    +0.000 A 
ATOM      5  C   UNL     1       1.514   7.557  20.459  0.00  0.00    +0.000 A 
ATOM      6  C   UNL     1       1.014   8.735  19.891  0.00  0.00    +0.000 A 
ATOM      7 CL   UNL     1      -0.239   9.558  20.752  0.00  0.00    +0.000 Cl
ENDROOT
BRANCH   3   8
ATOM      8  C   UNL     1       3.590   6.176  17.577  0.00  0.00    +0.000 C 
ATOM      9  O   UNL     1       3.258   4.817  17.884  0.00  0.00    +0.000 OA
ATOM     10  C   UNL     1       3.770   3.924  16.880  0.00  0.00    +0.000 C 
ATOM     11  C   UNL     1       5.311   3.980  16.845  0.00  0.00    +0.000 C 
ATOM     12  C   UNL     1       5.799   5.429  16.660  0.00  0.00    +0.000 C 
ATOM     13  C   UNL     1       5.125   6.375  17.666  0.00  0.00    +0.000 C 
BRANCH  11  14
ATOM     14  O   UNL     1       5.821   3.130  15.804  0.00  0.00    +0.000 OA
ATOM     15  H   UNL     1       5.224   3.194  15.034  0.00  0.00    +0.000 HD
ENDBRANCH  11  14
BRANCH  12  16
ATOM     16  O   UNL     1       7.225   5.495  16.762  0.00  0.00    +0.000 OA
ATOM     17  H   UNL     1       7.477   5.308  17.688  0.00  0.00    +0.000 HD
ENDBRANCH  12  16
BRANCH  13  18
ATOM     18  O   UNL     1       5.513   7.730  17.407  0.00  0.00    +0.000 OA
ATOM     19  H   UNL     1       5.893   8.115  18.213  0.00  0.00    +0.000 HD
ENDBRANCH  13  18
BRANCH  10  20
ATOM     20  C   UNL     1       3.259   2.503  17.160  0.00  0.00    +0.000 C 
BRANCH  20  21
ATOM     21  O   UNL     1       4.164   1.744  17.956  0.00  0.00    +0.000 OA
ATOM     22  H   UNL     1       4.662   2.375  18.513  0.00  0.00    +0.000 HD
ENDBRANCH  20  21
ENDBRANCH  10  20
ENDBRANCH   3   8
BRANCH   1  23
ATOM     23  C   UNL     1       1.111  10.541  18.081  0.00  0.00    +0.000 C 
BRANCH  23  27
ATOM     24  C   UNL     1       2.926  14.141  19.689  0.00  0.00    +0.000 A 
ATOM     25  C   UNL     1       3.261  13.681  18.411  0.00  0.00    +0.000 A 
ATOM     26  C   UNL     1       2.694  12.506  17.906  0.00  0.00    +0.000 A 
ATOM     27  C   UNL     1       1.775  11.767  18.667  0.00  0.00    +0.000 A 
ATOM     28  C   UNL     1       1.440  12.236  19.942  0.00  0.00    +0.000 A 
ATOM     29  C   UNL     1       2.002  13.409  20.448  0.00  0.00    +0.000 A 
BRANCH  24  31
ATOM     30  C   UNL     1       3.205  16.619  19.362  0.00  0.00    +0.000 C 
ATOM     31  C   UNL     1       3.523  15.413  20.234  0.00  0.00    +0.000 C 
ENDBRANCH  24  31
ENDBRANCH  23  27
ENDBRANCH   1  23
BRANCH   4  32
ATOM     32  C   UNL     1       2.993   5.534  20.481  0.00  0.00    +0.000 C 
BRANCH  32  33
ATOM     33  O   UNL     1       1.946   4.962  21.273  0.00  0.00    +0.000 OA
BRANCH  33  34
ATOM     34  C   UNL     1       1.238   3.935  20.569  0.00  0.00    +0.000 C 
BRANCH  34  35
ATOM     35  C   UNL     1       1.931   2.583  20.717  0.00  0.00    +0.000 C 
ATOM     36  F   UNL     1       1.634   2.063  21.936  0.00  0.00    +0.000 F 
ATOM     37  F   UNL     1       1.434   1.712  19.800  0.00  0.00    +0.000 F 
ENDBRANCH  34  35
ENDBRANCH  33  34
ENDBRANCH  32  33
ENDBRANCH   4  32
TORSDOF 13
ENDMDL
MODEL 6
REMARK VINA RESULT:      -6.7      2.445      3.992
REMARK  Name = 
REMARK  14 active torsions:
REMARK  status: ('A' for Active; 'I' for Inactive)
REMARK    1  A    between atoms: C_1  and  C_2
REMARK    2  A    between atoms: C_2  and  C_3
REMARK    3  A    between atoms: C_6  and  C_7
REMARK    4  A    between atoms: C_7  and  C_8
REMARK    5  A    between atoms: C_10  and  C_11
REMARK    6  A    between atoms: C_13  and  C_14
REMARK    7  A    between atoms: C_14  and  O_15
REMARK    8  A    between atoms: C_16  and  O_17
REMARK    9  A    between atoms: C_18  and  O_19
REMARK   10  A    between atoms: C_20  and  O_21
REMARK   11  A    between atoms: C_22  and  C_23
REMARK   12  A    between atoms: C_23  and  O_24
REMARK   13  A    between atoms: O_24  and  C_25
REMARK   14  A    between atoms: C_25  and  C_26
REMARK                            x       y       z     vdW  Elec       q    Type
REMARK                         _______ _______ _______ _____ _____    ______ ____
ROOT
ATOM      1  C   UNL     1       1.320   9.177  19.090  0.00  0.00    +0.000 A 
ATOM      2  C   UNL     1       1.512   7.801  19.318  0.00  0.00    +0.000 A 
ATOM      3  C   UNL     1       2.543   7.077  18.684  0.00  0.00    +0.000 A 
ATOM      4  C   UNL     1       3.309   7.712  17.683  0.00  0.00    +0.000 A 
ATOM      5  C   UNL     1       3.147   9.091  17.488  0.00  0.00    +0.000 A 
ATOM      6  C   UNL     1       2.197   9.823  18.210  0.00  0.00    +0.000 A 
ATOM      7 CL   UNL     1       2.165  11.534  17.968  0.00  0.00    +0.000 Cl
ENDROOT
BRANCH   3   8
ATOM      8  C   UNL     1       2.921   5.696  19.203  0.00  0.00    +0.000 C 
ATOM      9  O   UNL     1       2.815   4.698  18.181  0.00  0.00    +0.000 OA
ATOM     10  C   UNL     1       3.381   3.451  18.620  0.00  0.00    +0.000 C 
ATOM     11  C   UNL     1       2.597   2.898  19.827  0.00  0.00    +0.000 C 
ATOM     12  C   UNL     1       2.519   3.948  20.952  0.00  0.00    +0.000 C 
ATOM     13  C   UNL     1       2.037   5.304  20.415  0.00  0.00    +0.000 C 
BRANCH  11  14
ATOM     14  O   UNL     1       3.197   1.682  20.301  0.00  0.00    +0.000 OA
ATOM     15  H   UNL     1       4.043   1.552  19.831  0.00  0.00    +0.000 HD
ENDBRANCH  11  14
BRANCH  12  16
ATOM     16  O   UNL     1       1.679   3.484  22.014  0.00  0.00    +0.000 OA
ATOM     17  H   UNL     1       2.069   3.771  22.863  0.00  0.00    +0.000 HD
ENDBRANCH  12  16
BRANCH  13  18
ATOM     18  O   UNL     1       2.073   6.289  21.455  0.00  0.00    +0.000 OA
ATOM     19  H   UNL     1       1.333   6.905  21.340  0.00  0.00    +0.000 HD
ENDBRANCH  13  18
BRANCH  10  20
ATOM     20  C   UNL     1       3.391   2.461  17.446  0.00  0.00    +0.000 C 
BRANCH  20  21
ATOM     21  O   UNL     1       2.198   1.687  17.375  0.00  0.00    +0.000 OA
ATOM     22  H   UNL     1       2.379   0.923  16.792  0.00  0.00    +0.000 HD
ENDBRANCH  20  21
ENDBRANCH  10  20
ENDBRANCH   3   8
BRANCH   1  23
ATOM     23  C   UNL     1       0.189   9.896  19.796  0.00  0.00    +0.000 C 
BRANCH  23  27
ATOM     24  C   UNL     1      -3.183  11.103  17.344  0.00  0.00    +0.000 A 
ATOM     25  C   UNL     1      -2.326  10.079  16.927  0.00  0.00    +0.000 A 
ATOM     26  C   UNL     1      -1.224   9.711  17.707  0.00  0.00    +0.000 A 
ATOM     27  C   UNL     1      -0.959  10.356  18.924  0.00  0.00    +0.000 A 
ATOM     28  C   UNL     1      -1.824  11.375  19.339  0.00  0.00    +0.000 A 
ATOM     29  C   UNL     1      -2.924  11.743  18.563  0.00  0.00    +0.000 A 
BRANCH  24  31
ATOM     30  C   UNL     1      -5.539  11.980  17.371  0.00  0.00    +0.000 C 
ATOM     31  C   UNL     1      -4.379  11.496  16.515  0.00  0.00    +0.000 C 
ENDBRANCH  24  31
ENDBRANCH  23  27
ENDBRANCH   1  23
BRANCH   4  32
ATOM     32  C   UNL     1       4.327   6.977  16.842  0.00  0.00    +0.000 C 
BRANCH  32  33
ATOM     33  O   UNL     1       5.603   7.045  17.490  0.00  0.00    +0.000 OA
BRANCH  33  34
ATOM     34  C   UNL     1       6.210   5.754  17.619  0.00  0.00    +0.000 C 
BRANCH  34  35
ATOM     35  C   UNL     1       7.398   5.793  18.576  0.00  0.00    +0.000 C 
ATOM     36  F   UNL     1       8.227   4.754  18.297  0.00  0.00    +0.000 F 
ATOM     37  F   UNL     1       8.121   6.924  18.362  0.00  0.00    +0.000 F 
ENDBRANCH  34  35
ENDBRANCH  33  34
ENDBRANCH  32  33
ENDBRANCH   4  32
TORSDOF 13
ENDMDL
MODEL 7
REMARK VINA RESULT:      -6.7      6.240     10.347
REMARK  Name = 
REMARK  14 active torsions:
REMARK  status: ('A' for Active; 'I' for Inactive)
REMARK    1  A    between atoms: C_1  and  C_2
REMARK    2  A    between atoms: C_2  and  C_3
REMARK    3  A    between atoms: C_6  and  C_7
REMARK    4  A    between atoms: C_7  and  C_8
REMARK    5  A    between atoms: C_10  and  C_11
REMARK    6  A    between atoms: C_13  and  C_14
REMARK    7  A    between atoms: C_14  and  O_15
REMARK    8  A    between atoms: C_16  and  O_17
REMARK    9  A    between atoms: C_18  and  O_19
REMARK   10  A    between atoms: C_20  and  O_21
REMARK   11  A    between atoms: C_22  and  C_23
REMARK   12  A    between atoms: C_23  and  O_24
REMARK   13  A    between atoms: O_24  and  C_25
REMARK   14  A    between atoms: C_25  and  C_26
REMARK                            x       y       z     vdW  Elec       q    Type
REMARK                         _______ _______ _______ _____ _____    ______ ____
ROOT
ATOM      1  C   UNL     1      -0.341  11.220  19.142  0.00  0.00    +0.000 A 
ATOM      2  C   UNL     1      -0.520  12.013  20.292  0.00  0.00    +0.000 A 
ATOM      3  C   UNL     1      -1.783  12.527  20.652  0.00  0.00    +0.000 A 
ATOM      4  C   UNL     1      -2.865  12.370  19.761  0.00  0.00    +0.000 A 
ATOM      5  C   UNL     1      -2.697  11.546  18.639  0.00  0.00    +0.000 A 
ATOM      6  C   UNL     1      -1.465  10.944  18.355  0.00  0.00    +0.000 A 
ATOM      7 CL   UNL     1      -1.406   9.859  17.012  0.00  0.00    +0.000 Cl
ENDROOT
BRANCH   3   8
ATOM      8  C   UNL     1      -1.996  13.084  22.053  0.00  0.00    +0.000 C 
ATOM      9  O   UNL     1      -3.250  12.667  22.605  0.00  0.00    +0.000 OA
ATOM     10  C   UNL     1      -3.340  13.012  23.997  0.00  0.00    +0.000 C 
ATOM     11  C   UNL     1      -3.293  14.543  24.178  0.00  0.00    +0.000 C 
ATOM     12  C   UNL     1      -2.044  15.132  23.495  0.00  0.00    +0.000 C 
ATOM     13  C   UNL     1      -1.912  14.632  22.049  0.00  0.00    +0.000 C 
BRANCH  11  14
ATOM     14  O   UNL     1      -3.324  14.885  25.573  0.00  0.00    +0.000 OA
ATOM     15  H   UNL     1      -3.636  14.108  26.075  0.00  0.00    +0.000 HD
ENDBRANCH  11  14
BRANCH  12  16
ATOM     16  O   UNL     1      -2.071  16.562  23.548  0.00  0.00    +0.000 OA
ATOM     17  H   UNL     1      -2.901  16.870  23.132  0.00  0.00    +0.000 HD
ENDBRANCH  12  16
BRANCH  13  18
ATOM     18  O   UNL     1      -0.691  15.108  21.470  0.00  0.00    +0.000 OA
ATOM     19  H   UNL     1       0.052  14.869  22.046  0.00  0.00    +0.000 HD
ENDBRANCH  13  18
BRANCH  10  20
ATOM     20  C   UNL     1      -4.624  12.409  24.586  0.00  0.00    +0.000 C 
BRANCH  20  21
ATOM     21  O   UNL     1      -4.581  12.314  26.006  0.00  0.00    +0.000 OA
ATOM     22  H   UNL     1      -3.846  11.712  26.237  0.00  0.00    +0.000 HD
ENDBRANCH  20  21
ENDBRANCH  10  20
ENDBRANCH   3   8
BRANCH   1  23
ATOM     23  C   UNL     1       1.043  10.704  18.805  0.00  0.00    +0.000 C 
BRANCH  23  27
ATOM     24  C   UNL     1       2.033   6.642  19.971  0.00  0.00    +0.000 A 
ATOM     25  C   UNL     1       2.300   7.099  18.676  0.00  0.00    +0.000 A 
ATOM     26  C   UNL     1       1.955   8.400  18.295  0.00  0.00    +0.000 A 
ATOM     27  C   UNL     1       1.340   9.275  19.204  0.00  0.00    +0.000 A 
ATOM     28  C   UNL     1       1.082   8.813  20.500  0.00  0.00    +0.000 A 
ATOM     29  C   UNL     1       1.426   7.516  20.882  0.00  0.00    +0.000 A 
BRANCH  24  31
ATOM     30  C   UNL     1       1.211   4.317  20.462  0.00  0.00    +0.000 C 
ATOM     31  C   UNL     1       2.414   5.245  20.391  0.00  0.00    +0.000 C 
ENDBRANCH  24  31
ENDBRANCH  23  27
ENDBRANCH   1  23
BRANCH   4  32
ATOM     32  C   UNL     1      -4.213  13.018  19.985  0.00  0.00    +0.000 C 
BRANCH  32  33
ATOM     33  O   UNL     1      -5.242  12.059  19.717  0.00  0.00    +0.000 OA
BRANCH  33  34
ATOM     34  C   UNL     1      -6.398  12.661  19.125  0.00  0.00    +0.000 C 
BRANCH  34  35
ATOM     35  C   UNL     1      -7.012  11.756  18.061  0.00  0.00    +0.000 C 
ATOM     36  F   UNL     1      -7.357  12.509  16.984  0.00  0.00    +0.000 F 
ATOM     37  F   UNL     1      -6.080  10.869  17.622  0.00  0.00    +0.000 F 
ENDBRANCH  34  35
ENDBRANCH  33  34
ENDBRANCH  32  33
ENDBRANCH   4  32
TORSDOF 13
ENDMDL
MODEL 8
REMARK VINA RESULT:      -6.6      2.151      3.403
REMARK  Name = 
REMARK  14 active torsions:
REMARK  status: ('A' for Active; 'I' for Inactive)
REMARK    1  A    between atoms: C_1  and  C_2
REMARK    2  A    between atoms: C_2  and  C_3
REMARK    3  A    between atoms: C_6  and  C_7
REMARK    4  A    between atoms: C_7  and  C_8
REMARK    5  A    between atoms: C_10  and  C_11
REMARK    6  A    between atoms: C_13  and  C_14
REMARK    7  A    between atoms: C_14  and  O_15
REMARK    8  A    between atoms: C_16  and  O_17
REMARK    9  A    between atoms: C_18  and  O_19
REMARK   10  A    between atoms: C_20  and  O_21
REMARK   11  A    between atoms: C_22  and  C_23
REMARK   12  A    between atoms: C_23  and  O_24
REMARK   13  A    between atoms: O_24  and  C_25
REMARK   14  A    between atoms: C_25  and  C_26
REMARK                            x       y       z     vdW  Elec       q    Type
REMARK                         _______ _______ _______ _____ _____    ______ ____
ROOT
ATOM      1  C   UNL     1       1.477   9.210  18.684  0.00  0.00    +0.000 A 
ATOM      2  C   UNL     1       2.399   8.405  17.987  0.00  0.00    +0.000 A 
ATOM      3  C   UNL     1       2.843   7.168  18.498  0.00  0.00    +0.000 A 
ATOM      4  C   UNL     1       2.470   6.794  19.806  0.00  0.00    +0.000 A 
ATOM      5  C   UNL     1       1.520   7.573  20.482  0.00  0.00    +0.000 A 
ATOM      6  C   UNL     1       0.998   8.741  19.913  0.00  0.00    +0.000 A 
ATOM      7 CL   UNL     1      -0.250   9.557  20.787  0.00  0.00    +0.000 Cl
ENDROOT
BRANCH   3   8
ATOM      8  C   UNL     1       3.563   6.191  17.578  0.00  0.00    +0.000 C 
ATOM      9  O   UNL     1       3.237   4.831  17.889  0.00  0.00    +0.000 OA
ATOM     10  C   UNL     1       3.744   3.937  16.884  0.00  0.00    +0.000 C 
ATOM     11  C   UNL     1       5.284   3.997  16.837  0.00  0.00    +0.000 C 
ATOM     12  C   UNL     1       5.766   5.447  16.645  0.00  0.00    +0.000 C 
ATOM     13  C   UNL     1       5.098   6.393  17.655  0.00  0.00    +0.000 C 
BRANCH  11  14
ATOM     14  O   UNL     1       5.788   3.147  15.793  0.00  0.00    +0.000 OA
ATOM     15  H   UNL     1       5.776   3.647  14.955  0.00  0.00    +0.000 HD
ENDBRANCH  11  14
BRANCH  12  16
ATOM     16  O   UNL     1       7.193   5.517  16.737  0.00  0.00    +0.000 OA
ATOM     17  H   UNL     1       7.574   4.842  16.140  0.00  0.00    +0.000 HD
ENDBRANCH  12  16
BRANCH  13  18
ATOM     18  O   UNL     1       5.481   7.749  17.391  0.00  0.00    +0.000 OA
ATOM     19  H   UNL     1       5.428   7.917  16.437  0.00  0.00    +0.000 HD
ENDBRANCH  13  18
BRANCH  10  20
ATOM     20  C   UNL     1       3.238   2.515  17.169  0.00  0.00    +0.000 C 
BRANCH  20  21
ATOM     21  O   UNL     1       4.169   1.747  17.925  0.00  0.00    +0.000 OA
ATOM     22  H   UNL     1       5.066   2.017  17.645  0.00  0.00    +0.000 HD
ENDBRANCH  20  21
ENDBRANCH  10  20
ENDBRANCH   3   8
BRANCH   1  23
ATOM     23  C   UNL     1       1.045  10.532  18.086  0.00  0.00    +0.000 C 
BRANCH  23  27
ATOM     24  C   UNL     1       3.013  14.002  19.797  0.00  0.00    +0.000 A 
ATOM     25  C   UNL     1       2.080  13.271  20.540  0.00  0.00    +0.000 A 
ATOM     26  C   UNL     1       1.428  12.169  19.976  0.00  0.00    +0.000 A 
ATOM     27  C   UNL     1       1.699  11.771  18.658  0.00  0.00    +0.000 A 
ATOM     28  C   UNL     1       2.637  12.504  17.922  0.00  0.00    +0.000 A 
ATOM     29  C   UNL     1       3.289  13.603  18.483  0.00  0.00    +0.000 A 
BRANCH  24  31
ATOM     30  C   UNL     1       2.845  15.959  21.368  0.00  0.00    +0.000 C 
ATOM     31  C   UNL     1       3.728  15.183  20.403  0.00  0.00    +0.000 C 
ENDBRANCH  24  31
ENDBRANCH  23  27
ENDBRANCH   1  23
BRANCH   4  32
ATOM     32  C   UNL     1       3.020   5.566  20.496  0.00  0.00    +0.000 C 
BRANCH  32  33
ATOM     33  O   UNL     1       1.989   4.982  21.300  0.00  0.00    +0.000 OA
BRANCH  33  34
ATOM     34  C   UNL     1       1.217   4.022  20.570  0.00  0.00    +0.000 C 
BRANCH  34  35
ATOM     35  C   UNL     1       1.451   2.608  21.095  0.00  0.00    +0.000 C 
ATOM     36  F   UNL     1       1.721   1.785  20.048  0.00  0.00    +0.000 F 
ATOM     37  F   UNL     1       2.555   2.591  21.887  0.00  0.00    +0.000 F 
ENDBRANCH  34  35
ENDBRANCH  33  34
ENDBRANCH  32  33
ENDBRANCH   4  32
TORSDOF 13
ENDMDL
MODEL 9
REMARK VINA RESULT:      -6.6      6.193     10.202
REMARK  Name = 
REMARK  14 active torsions:
REMARK  status: ('A' for Active; 'I' for Inactive)
REMARK    1  A    between atoms: C_1  and  C_2
REMARK    2  A    between atoms: C_2  and  C_3
REMARK    3  A    between atoms: C_6  and  C_7
REMARK    4  A    between atoms: C_7  and  C_8
REMARK    5  A    between atoms: C_10  and  C_11
REMARK    6  A    between atoms: C_13  and  C_14
REMARK    7  A    between atoms: C_14  and  O_15
REMARK    8  A    between atoms: C_16  and  O_17
REMARK    9  A    between atoms: C_18  and  O_19
REMARK   10  A    between atoms: C_20  and  O_21
REMARK   11  A    between atoms: C_22  and  C_23
REMARK   12  A    between atoms: C_23  and  O_24
REMARK   13  A    between atoms: O_24  and  C_25
REMARK   14  A    between atoms: C_25  and  C_26
REMARK                            x       y       z     vdW  Elec       q    Type
REMARK                         _______ _______ _______ _____ _____    ______ ____
ROOT
ATOM      1  C   UNL     1      -0.510  11.298  19.085  0.00  0.00    +0.000 A 
ATOM      2  C   UNL     1      -0.660  12.030  20.278  0.00  0.00    +0.000 A 
ATOM      3  C   UNL     1      -1.918  12.498  20.713  0.00  0.00    +0.000 A 
ATOM      4  C   UNL     1      -3.031  12.359  19.857  0.00  0.00    +0.000 A 
ATOM      5  C   UNL     1      -2.890  11.594  18.691  0.00  0.00    +0.000 A 
ATOM      6  C   UNL     1      -1.659  11.035  18.330  0.00  0.00    +0.000 A 
ATOM      7 CL   UNL     1      -1.630  10.017  16.934  0.00  0.00    +0.000 Cl
ENDROOT
BRANCH   3   8
ATOM      8  C   UNL     1      -2.085  12.981  22.147  0.00  0.00    +0.000 C 
ATOM      9  O   UNL     1      -3.385  12.669  22.663  0.00  0.00    +0.000 OA
ATOM     10  C   UNL     1      -3.453  12.929  24.075  0.00  0.00    +0.000 C 
ATOM     11  C   UNL     1      -3.242  14.431  24.357  0.00  0.00    +0.000 C 
ATOM     12  C   UNL     1      -1.928  14.923  23.722  0.00  0.00    +0.000 C 
ATOM     13  C   UNL     1      -1.834  14.507  22.246  0.00  0.00    +0.000 C 
BRANCH  11  14
ATOM     14  O   UNL     1      -3.253  14.682  25.772  0.00  0.00    +0.000 OA
ATOM     15  H   UNL     1      -2.868  15.565  25.932  0.00  0.00    +0.000 HD
ENDBRANCH  11  14
BRANCH  12  16
ATOM     16  O   UNL     1      -1.800  16.341  23.869  0.00  0.00    +0.000 OA
ATOM     17  H   UNL     1      -1.606  16.726  22.991  0.00  0.00    +0.000 HD
ENDBRANCH  12  16
BRANCH  13  18
ATOM     18  O   UNL     1      -0.561  14.884  21.706  0.00  0.00    +0.000 OA
ATOM     19  H   UNL     1      -0.412  15.830  21.864  0.00  0.00    +0.000 HD
ENDBRANCH  13  18
BRANCH  10  20
ATOM     20  C   UNL     1      -4.803  12.434  24.616  0.00  0.00    +0.000 C 
BRANCH  20  21
ATOM     21  O   UNL     1      -5.763  12.231  23.584  0.00  0.00    +0.000 OA
ATOM     22  H   UNL     1      -5.389  12.602  22.760  0.00  0.00    +0.000 HD
ENDBRANCH  20  21
ENDBRANCH  10  20
ENDBRANCH   3   8
BRANCH   1  23
ATOM     23  C   UNL     1       0.870  10.831  18.669  0.00  0.00    +0.000 C 
BRANCH  23  27
ATOM     24  C   UNL     1       1.967   6.883  20.102  0.00  0.00    +0.000 A 
ATOM     25  C   UNL     1       1.253   7.767  20.918  0.00  0.00    +0.000 A 
ATOM     26  C   UNL     1       0.924   9.049  20.463  0.00  0.00    +0.000 A 
ATOM     27  C   UNL     1       1.298   9.472  19.178  0.00  0.00    +0.000 A 
ATOM     28  C   UNL     1       2.007   8.581  18.365  0.00  0.00    +0.000 A 
ATOM     29  C   UNL     1       2.335   7.302  18.816  0.00  0.00    +0.000 A 
BRANCH  24  31
ATOM     30  C   UNL     1       1.142   4.535  20.457  0.00  0.00    +0.000 C 
ATOM     31  C   UNL     1       2.313   5.497  20.581  0.00  0.00    +0.000 C 
ENDBRANCH  24  31
ENDBRANCH  23  27
ENDBRANCH   1  23
BRANCH   4  32
ATOM     32  C   UNL     1      -4.382  12.964  20.166  0.00  0.00    +0.000 C 
BRANCH  32  33
ATOM     33  O   UNL     1      -5.339  11.911  20.327  0.00  0.00    +0.000 OA
BRANCH  33  34
ATOM     34  C   UNL     1      -6.545  12.163  19.597  0.00  0.00    +0.000 C 
BRANCH  34  35
ATOM     35  C   UNL     1      -6.815  11.063  18.575  0.00  0.00    +0.000 C 
ATOM     36  F   UNL     1      -6.016  11.258  17.492  0.00  0.00    +0.000 F 
ATOM     37  F   UNL     1      -6.463   9.858  19.094  0.00  0.00    +0.000 F 
ENDBRANCH  34  35
ENDBRANCH  33  34
ENDBRANCH  32  33
ENDBRANCH   4  32
TORSDOF 13
ENDMDL
