MODEL 1
REMARK VINA RESULT:      -9.2      0.000      0.000
REMARK  Name = 
REMARK  12 active torsions:
REMARK  status: ('A' for Active; 'I' for Inactive)
REMARK    1  A    between atoms: C_1  and  C_2
REMARK    2  A    between atoms: C_5  and  C_6
REMARK    3  A    between atoms: C_6  and  C_7
REMARK    4  A    between atoms: C_6  and  C_8
REMARK    5  A    between atoms: N_9  and  C_10
REMARK    6  A    between atoms: N_13  and  C_14
REMARK    7  A    between atoms: C_14  and  C_15
REMARK    8  A    between atoms: C_14  and  C_16
REMARK    9  A    between atoms: C_16  and  C_17
REMARK   10  A    between atoms: C_17  and  N_18
REMARK   11  A    between atoms: C_17  and  C_27
REMARK   12  A    between atoms: C_19  and  C_21
REMARK                            x       y       z     vdW  Elec       q    Type
REMARK                         _______ _______ _______ _____ _____    ______ ____
ROOT
ATOM      1  C   UNL     1       2.560   7.104  17.946  0.00  0.00    +0.000 C 
ENDROOT
BRANCH   1   2
ATOM      2  C   UNL     1       2.355   7.601  19.408  0.00  0.00    +0.000 C 
ATOM      3  C   UNL     1       2.321   6.371  20.336  0.00  0.00    +0.000 C 
BRANCH   2   7
ATOM      4  C   UNL     1      -0.499  10.939  19.925  0.00  0.00    +0.000 C 
ATOM      5  C   UNL     1      -0.323   9.888  21.080  0.00  0.00    +0.000 C 
ATOM      6  C   UNL     1       1.022   9.069  21.015  0.00  0.00    +0.000 C 
ATOM      7  N   UNL     1       1.285   8.597  19.652  0.00  0.00    +0.000 NA
ATOM      8  C   UNL     1       1.370   9.748  18.752  0.00  0.00    +0.000 C 
ATOM      9  C   UNL     1      -0.034  10.331  18.608  0.00  0.00    +0.000 C 
BRANCH   4  15
ATOM     10  C   UNL     1      -0.723  13.478  21.538  0.00  0.00    +0.000 C 
ATOM     11  C   UNL     1      -1.793  12.915  20.677  0.00  0.00    +0.000 A 
ATOM     12  N   UNL     1      -2.934  13.525  20.499  0.00  0.00    +0.000 NA
ATOM     13  N   UNL     1      -3.631  12.821  19.599  0.00  0.00    +0.000 NA
ATOM     14  C   UNL     1      -2.937  11.772  19.170  0.00  0.00    +0.000 A 
ATOM     15  N   UNL     1      -1.740  11.732  19.913  0.00  0.00    +0.000 N 
BRANCH  14  16
ATOM     16  C   UNL     1      -3.603  11.069  17.990  0.00  0.00    +0.000 C 
ATOM     17  C   UNL     1      -5.043  11.263  17.587  0.00  0.00    +0.000 C 
ATOM     18  C   UNL     1      -2.710  11.111  16.725  0.00  0.00    +0.000 C 
ENDBRANCH  14  16
ENDBRANCH   4  15
ENDBRANCH   2   7
ENDBRANCH   1   2
BRANCH   1  19
ATOM     19  C   UNL     1       3.441   5.863  17.667  0.00  0.00    +0.000 C 
BRANCH  19  20
ATOM     20  C   UNL     1       4.926   6.061  17.943  0.00  0.00    +0.000 A 
ATOM     21  C   UNL     1       5.707   6.892  17.123  0.00  0.00    +0.000 A 
ATOM     22  C   UNL     1       7.076   7.038  17.366  0.00  0.00    +0.000 A 
ATOM     23  C   UNL     1       7.683   6.367  18.422  0.00  0.00    +0.000 A 
ATOM     24  C   UNL     1       6.923   5.525  19.233  0.00  0.00    +0.000 A 
ATOM     25  C   UNL     1       5.567   5.373  18.982  0.00  0.00    +0.000 A 
ENDBRANCH  19  20
BRANCH  19  26
ATOM     26  N   UNL     1       2.987   4.625  18.312  0.00  0.00    +0.000 N 
ATOM     27  C   UNL     1       1.890   3.894  17.912  0.00  0.00    +0.000 C 
ATOM     28  O   UNL     1       1.062   4.305  17.108  0.00  0.00    +0.000 OA
ATOM     29  H   UNL     1       3.699   4.109  18.809  0.00  0.00    +0.000 HD
BRANCH  27  30
ATOM     30  C   UNL     1       1.866   2.486  18.534  0.00  0.00    +0.000 C 
ATOM     31  C   UNL     1       3.241   2.026  19.032  0.00  0.00    +0.000 C 
ATOM     32  C   UNL     1       3.626   2.643  20.372  0.00  0.00    +0.000 C 
ATOM     33  C   UNL     1       2.553   2.441  21.435  0.00  0.00    +0.000 C 
ATOM     34  C   UNL     1       1.175   2.891  20.965  0.00  0.00    +0.000 C 
ATOM     35  C   UNL     1       0.792   2.299  19.611  0.00  0.00    +0.000 C 
ENDBRANCH  27  30
ENDBRANCH  19  26
ENDBRANCH   1  19
TORSDOF 8
ENDMDL
MODEL 2
REMARK VINA RESULT:      -9.2      0.449      1.091
REMARK  Name = 
REMARK  12 active torsions:
REMARK  status: ('A' for Active; 'I' for Inactive)
REMARK    1  A    between atoms: C_1  and  C_2
REMARK    2  A    between atoms: C_5  and  C_6
REMARK    3  A    between atoms: C_6  and  C_7
REMARK    4  A    between atoms: C_6  and  C_8
REMARK    5  A    between atoms: N_9  and  C_10
REMARK    6  A    between atoms: N_13  and  C_14
REMARK    7  A    between atoms: C_14  and  C_15
REMARK    8  A    between atoms: C_14  and  C_16
REMARK    9  A    between atoms: C_16  and  C_17
REMARK   10  A    between atoms: C_17  and  N_18
REMARK   11  A    between atoms: C_17  and  C_27
REMARK   12  A    between atoms: C_19  and  C_21
REMARK                            x       y       z     vdW  Elec       q    Type
REMARK                         _______ _______ _______ _____ _____    ______ ____
ROOT
ATOM      1  C   UNL     1       2.663   6.974  18.038  0.00  0.00    +0.000 C 
ENDROOT
BRANCH   1   2
ATOM      2  C   UNL     1       2.391   7.387  19.515  0.00  0.00    +0.000 C 
ATOM      3  C   UNL     1       2.231   6.103  20.353  0.00  0.00    +0.000 C 
BRANCH   2   7
ATOM      4  C   UNL     1      -0.317  10.841  20.046  0.00  0.00    +0.000 C 
ATOM      5  C   UNL     1      -0.195   9.772  21.192  0.00  0.00    +0.000 C 
ATOM      6  C   UNL     1       1.113   8.895  21.128  0.00  0.00    +0.000 C 
ATOM      7  N   UNL     1       1.365   8.426  19.762  0.00  0.00    +0.000 NA
ATOM      8  C   UNL     1       1.508   9.581  18.875  0.00  0.00    +0.000 C 
ATOM      9  C   UNL     1       0.132  10.227  18.727  0.00  0.00    +0.000 C 
BRANCH   4  15
ATOM     10  C   UNL     1      -0.450  13.358  21.704  0.00  0.00    +0.000 C 
ATOM     11  C   UNL     1      -1.532  12.859  20.819  0.00  0.00    +0.000 A 
ATOM     12  N   UNL     1      -2.643  13.521  20.638  0.00  0.00    +0.000 NA
ATOM     13  N   UNL     1      -3.359  12.865  19.716  0.00  0.00    +0.000 NA
ATOM     14  C   UNL     1      -2.706  11.795  19.277  0.00  0.00    +0.000 A 
ATOM     15  N   UNL     1      -1.521  11.689  20.034  0.00  0.00    +0.000 N 
BRANCH  14  16
ATOM     16  C   UNL     1      -3.385  11.143  18.076  0.00  0.00    +0.000 C 
ATOM     17  C   UNL     1      -3.064   9.761  17.563  0.00  0.00    +0.000 C 
ATOM     18  C   UNL     1      -4.922  11.326  18.124  0.00  0.00    +0.000 C 
ENDBRANCH  14  16
ENDBRANCH   4  15
ENDBRANCH   2   7
ENDBRANCH   1   2
BRANCH   1  19
ATOM     19  C   UNL     1       3.556   5.749  17.727  0.00  0.00    +0.000 C 
BRANCH  19  20
ATOM     20  C   UNL     1       5.041   5.960  17.995  0.00  0.00    +0.000 A 
ATOM     21  C   UNL     1       5.679   5.320  19.069  0.00  0.00    +0.000 A 
ATOM     22  C   UNL     1       7.034   5.550  19.325  0.00  0.00    +0.000 A 
ATOM     23  C   UNL     1       7.769   6.412  18.519  0.00  0.00    +0.000 A 
ATOM     24  C   UNL     1       7.145   7.069  17.459  0.00  0.00    +0.000 A 
ATOM     25  C   UNL     1       5.797   6.847  17.216  0.00  0.00    +0.000 A 
ENDBRANCH  19  20
BRANCH  19  26
ATOM     26  N   UNL     1       3.122   4.494  18.352  0.00  0.00    +0.000 N 
ATOM     27  C   UNL     1       2.413   3.505  17.705  0.00  0.00    +0.000 C 
ATOM     28  O   UNL     1       1.897   3.655  16.604  0.00  0.00    +0.000 OA
ATOM     29  H   UNL     1       3.671   4.192  19.144  0.00  0.00    +0.000 HD
BRANCH  27  30
ATOM     30  C   UNL     1       2.409   2.180  18.488  0.00  0.00    +0.000 C 
ATOM     31  C   UNL     1       3.697   1.950  19.287  0.00  0.00    +0.000 C 
ATOM     32  C   UNL     1       3.744   2.750  20.585  0.00  0.00    +0.000 C 
ATOM     33  C   UNL     1       2.507   2.532  21.448  0.00  0.00    +0.000 C 
ATOM     34  C   UNL     1       1.212   2.755  20.676  0.00  0.00    +0.000 C 
ATOM     35  C   UNL     1       1.167   1.978  19.364  0.00  0.00    +0.000 C 
ENDBRANCH  27  30
ENDBRANCH  19  26
ENDBRANCH   1  19
TORSDOF 8
ENDMDL
MODEL 3
REMARK VINA RESULT:      -9.0      2.046      2.856
REMARK  Name = 
REMARK  12 active torsions:
REMARK  status: ('A' for Active; 'I' for Inactive)
REMARK    1  A    between atoms: C_1  and  C_2
REMARK    2  A    between atoms: C_5  and  C_6
REMARK    3  A    between atoms: C_6  and  C_7
REMARK    4  A    between atoms: C_6  and  C_8
REMARK    5  A    between atoms: N_9  and  C_10
REMARK    6  A    between atoms: N_13  and  C_14
REMARK    7  A    between atoms: C_14  and  C_15
REMARK    8  A    between atoms: C_14  and  C_16
REMARK    9  A    between atoms: C_16  and  C_17
REMARK   10  A    between atoms: C_17  and  N_18
REMARK   11  A    between atoms: C_17  and  C_27
REMARK   12  A    between atoms: C_19  and  C_21
REMARK                            x       y       z     vdW  Elec       q    Type
REMARK                         _______ _______ _______ _____ _____    ______ ____
ROOT
ATOM      1  C   UNL     1       2.550   6.997  18.255  0.00  0.00    +0.000 C 
ENDROOT
BRANCH   1   2
ATOM      2  C   UNL     1       2.339   7.337  19.760  0.00  0.00    +0.000 C 
ATOM      3  C   UNL     1       1.636   6.140  20.431  0.00  0.00    +0.000 C 
BRANCH   2   7
ATOM      4  C   UNL     1       0.247  11.025  21.014  0.00  0.00    +0.000 C 
ATOM      5  C   UNL     1       0.803  10.913  19.549  0.00  0.00    +0.000 C 
ATOM      6  C   UNL     1       1.068   9.437  19.064  0.00  0.00    +0.000 C 
ATOM      7  N   UNL     1       1.768   8.663  20.093  0.00  0.00    +0.000 NA
ATOM      8  C   UNL     1       0.958   8.639  21.312  0.00  0.00    +0.000 C 
ATOM      9  C   UNL     1       0.983  10.041  21.915  0.00  0.00    +0.000 C 
BRANCH   4  15
ATOM     10  C   UNL     1      -1.799  11.470  23.186  0.00  0.00    +0.000 C 
ATOM     11  C   UNL     1      -0.972  12.531  22.560  0.00  0.00    +0.000 A 
ATOM     12  N   UNL     1      -1.024  13.775  22.954  0.00  0.00    +0.000 NA
ATOM     13  N   UNL     1      -0.094  14.455  22.271  0.00  0.00    +0.000 NA
ATOM     14  C   UNL     1       0.582  13.652  21.456  0.00  0.00    +0.000 A 
ATOM     15  N   UNL     1      -0.012  12.376  21.541  0.00  0.00    +0.000 N 
BRANCH  14  16
ATOM     16  C   UNL     1       1.789  14.338  20.823  0.00  0.00    +0.000 C 
ATOM     17  C   UNL     1       3.221  13.922  21.054  0.00  0.00    +0.000 C 
ATOM     18  C   UNL     1       1.570  14.596  19.313  0.00  0.00    +0.000 C 
ENDBRANCH  14  16
ENDBRANCH   4  15
ENDBRANCH   2   7
ENDBRANCH   1   2
BRANCH   1  19
ATOM     19  C   UNL     1       3.440   5.798  17.849  0.00  0.00    +0.000 C 
BRANCH  19  20
ATOM     20  C   UNL     1       4.933   6.017  18.050  0.00  0.00    +0.000 A 
ATOM     21  C   UNL     1       5.674   6.809  17.157  0.00  0.00    +0.000 A 
ATOM     22  C   UNL     1       7.051   6.973  17.333  0.00  0.00    +0.000 A 
ATOM     23  C   UNL     1       7.706   6.359  18.396  0.00  0.00    +0.000 A 
ATOM     24  C   UNL     1       6.987   5.556  19.280  0.00  0.00    +0.000 A 
ATOM     25  C   UNL     1       5.622   5.386  19.095  0.00  0.00    +0.000 A 
ENDBRANCH  19  20
BRANCH  19  26
ATOM     26  N   UNL     1       3.051   4.513  18.440  0.00  0.00    +0.000 N 
ATOM     27  C   UNL     1       2.233   3.588  17.829  0.00  0.00    +0.000 C 
ATOM     28  O   UNL     1       1.582   3.826  16.818  0.00  0.00    +0.000 OA
ATOM     29  H   UNL     1       3.689   4.143  19.131  0.00  0.00    +0.000 HD
BRANCH  27  30
ATOM     30  C   UNL     1       2.289   2.212  18.515  0.00  0.00    +0.000 C 
ATOM     31  C   UNL     1       3.643   1.923  19.172  0.00  0.00    +0.000 C 
ATOM     32  C   UNL     1       3.819   2.630  20.512  0.00  0.00    +0.000 C 
ATOM     33  C   UNL     1       2.666   2.357  21.470  0.00  0.00    +0.000 C 
ATOM     34  C   UNL     1       1.306   2.636  20.840  0.00  0.00    +0.000 C 
ATOM     35  C   UNL     1       1.132   1.953  19.487  0.00  0.00    +0.000 C 
ENDBRANCH  27  30
ENDBRANCH  19  26
ENDBRANCH   1  19
TORSDOF 8
ENDMDL
MODEL 4
REMARK VINA RESULT:      -9.0      2.002      4.500
REMARK  Name = 
REMARK  12 active torsions:
REMARK  status: ('A' for Active; 'I' for Inactive)
REMARK    1  A    between atoms: C_1  and  C_2
REMARK    2  A    between atoms: C_5  and  C_6
REMARK    3  A    between atoms: C_6  and  C_7
REMARK    4  A    between atoms: C_6  and  C_8
REMARK    5  A    between atoms: N_9  and  C_10
REMARK    6  A    between atoms: N_13  and  C_14
REMARK    7  A    between atoms: C_14  and  C_15
REMARK    8  A    between atoms: C_14  and  C_16
REMARK    9  A    between atoms: C_16  and  C_17
REMARK   10  A    between atoms: C_17  and  N_18
REMARK   11  A    between atoms: C_17  and  C_27
REMARK   12  A    between atoms: C_19  and  C_21
REMARK                            x       y       z     vdW  Elec       q    Type
REMARK                         _______ _______ _______ _____ _____    ______ ____
ROOT
ATOM      1  C   UNL     1       2.030   7.865  18.552  0.00  0.00    +0.000 C 
ENDROOT
BRANCH   1   2
ATOM      2  C   UNL     1       1.550   8.883  19.628  0.00  0.00    +0.000 C 
ATOM      3  C   UNL     1       1.576   8.183  21.001  0.00  0.00    +0.000 C 
BRANCH   2   7
ATOM      4  C   UNL     1      -1.964  11.195  18.266  0.00  0.00    +0.000 C 
ATOM      5  C   UNL     1      -1.248  11.597  19.606  0.00  0.00    +0.000 C 
ATOM      6  C   UNL     1       0.229  11.064  19.740  0.00  0.00    +0.000 C 
ATOM      7  N   UNL     1       0.317   9.655  19.344  0.00  0.00    +0.000 NA
ATOM      8  C   UNL     1      -0.128   9.515  17.957  0.00  0.00    +0.000 C 
ATOM      9  C   UNL     1      -1.638   9.746  17.928  0.00  0.00    +0.000 C 
BRANCH   4  15
ATOM     10  C   UNL     1      -3.323  10.931  15.585  0.00  0.00    +0.000 C 
ATOM     11  C   UNL     1      -3.946  11.495  16.807  0.00  0.00    +0.000 A 
ATOM     12  N   UNL     1      -5.193  11.883  16.836  0.00  0.00    +0.000 NA
ATOM     13  N   UNL     1      -5.477  12.241  18.094  0.00  0.00    +0.000 NA
ATOM     14  C   UNL     1      -4.428  12.061  18.890  0.00  0.00    +0.000 A 
ATOM     15  N   UNL     1      -3.353  11.647  18.077  0.00  0.00    +0.000 N 
BRANCH  14  16
ATOM     16  C   UNL     1      -4.770  12.249  20.365  0.00  0.00    +0.000 C 
ATOM     17  C   UNL     1      -4.183  13.325  21.244  0.00  0.00    +0.000 C 
ATOM     18  C   UNL     1      -6.297  12.167  20.610  0.00  0.00    +0.000 C 
ENDBRANCH  14  16
ENDBRANCH   4  15
ENDBRANCH   2   7
ENDBRANCH   1   2
BRANCH   1  19
ATOM     19  C   UNL     1       2.956   6.692  18.954  0.00  0.00    +0.000 C 
BRANCH  19  20
ATOM     20  C   UNL     1       2.328   5.311  18.818  0.00  0.00    +0.000 A 
ATOM     21  C   UNL     1       1.622   4.731  19.884  0.00  0.00    +0.000 A 
ATOM     22  C   UNL     1       1.082   3.447  19.758  0.00  0.00    +0.000 A 
ATOM     23  C   UNL     1       1.231   2.730  18.576  0.00  0.00    +0.000 A 
ATOM     24  C   UNL     1       1.945   3.286  17.516  0.00  0.00    +0.000 A 
ATOM     25  C   UNL     1       2.491   4.555  17.649  0.00  0.00    +0.000 A 
ENDBRANCH  19  20
BRANCH  19  26
ATOM     26  N   UNL     1       4.273   6.695  18.307  0.00  0.00    +0.000 N 
ATOM     27  C   UNL     1       5.341   5.921  18.707  0.00  0.00    +0.000 C 
ATOM     28  O   UNL     1       5.367   5.302  19.763  0.00  0.00    +0.000 OA
ATOM     29  H   UNL     1       4.280   6.982  17.338  0.00  0.00    +0.000 HD
BRANCH  27  30
ATOM     30  C   UNL     1       6.455   5.869  17.647  0.00  0.00    +0.000 C 
ATOM     31  C   UNL     1       6.822   4.439  17.231  0.00  0.00    +0.000 C 
ATOM     32  C   UNL     1       5.824   3.829  16.253  0.00  0.00    +0.000 C 
ATOM     33  C   UNL     1       5.581   4.717  15.039  0.00  0.00    +0.000 C 
ATOM     34  C   UNL     1       5.215   6.145  15.425  0.00  0.00    +0.000 C 
ATOM     35  C   UNL     1       6.195   6.755  16.424  0.00  0.00    +0.000 C 
ENDBRANCH  27  30
ENDBRANCH  19  26
ENDBRANCH   1  19
TORSDOF 8
ENDMDL
MODEL 5
REMARK VINA RESULT:      -9.0      2.027      3.029
REMARK  Name = 
REMARK  12 active torsions:
REMARK  status: ('A' for Active; 'I' for Inactive)
REMARK    1  A    between atoms: C_1  and  C_2
REMARK    2  A    between atoms: C_5  and  C_6
REMARK    3  A    between atoms: C_6  and  C_7
REMARK    4  A    between atoms: C_6  and  C_8
REMARK    5  A    between atoms: N_9  and  C_10
REMARK    6  A    between atoms: N_13  and  C_14
REMARK    7  A    between atoms: C_14  and  C_15
REMARK    8  A    between atoms: C_14  and  C_16
REMARK    9  A    between atoms: C_16  and  C_17
REMARK   10  A    between atoms: C_17  and  N_18
REMARK   11  A    between atoms: C_17  and  C_27
REMARK   12  A    between atoms: C_19  and  C_21
REMARK                            x       y       z     vdW  Elec       q    Type
REMARK                         _______ _______ _______ _____ _____    ______ ____
ROOT
ATOM      1  C   UNL     1       2.496   7.078  18.217  0.00  0.00    +0.000 C 
ENDROOT
BRANCH   1   2
ATOM      2  C   UNL     1       2.331   7.431  19.725  0.00  0.00    +0.000 C 
ATOM      3  C   UNL     1       1.662   6.234  20.430  0.00  0.00    +0.000 C 
BRANCH   2   7
ATOM      4  C   UNL     1       0.228  11.111  20.985  0.00  0.00    +0.000 C 
ATOM      5  C   UNL     1       0.812  11.015  19.529  0.00  0.00    +0.000 C 
ATOM      6  C   UNL     1       1.081   9.544  19.031  0.00  0.00    +0.000 C 
ATOM      7  N   UNL     1       1.759   8.755  20.064  0.00  0.00    +0.000 NA
ATOM      8  C   UNL     1       0.925   8.718  21.266  0.00  0.00    +0.000 C 
ATOM      9  C   UNL     1       0.943  10.113  21.888  0.00  0.00    +0.000 C 
BRANCH   4  15
ATOM     10  C   UNL     1      -1.817  11.528  23.163  0.00  0.00    +0.000 C 
ATOM     11  C   UNL     1      -0.995  12.598  22.546  0.00  0.00    +0.000 A 
ATOM     12  N   UNL     1      -1.052  13.839  22.950  0.00  0.00    +0.000 NA
ATOM     13  N   UNL     1      -0.126  14.528  22.272  0.00  0.00    +0.000 NA
ATOM     14  C   UNL     1       0.553  13.735  21.450  0.00  0.00    +0.000 A 
ATOM     15  N   UNL     1      -0.035  12.456  21.524  0.00  0.00    +0.000 N 
BRANCH  14  16
ATOM     16  C   UNL     1       1.757  14.432  20.822  0.00  0.00    +0.000 C 
ATOM     17  C   UNL     1       1.668  15.434  19.697  0.00  0.00    +0.000 C 
ATOM     18  C   UNL     1       2.735  14.959  21.899  0.00  0.00    +0.000 C 
ENDBRANCH  14  16
ENDBRANCH   4  15
ENDBRANCH   2   7
ENDBRANCH   1   2
BRANCH   1  19
ATOM     19  C   UNL     1       3.339   5.851  17.796  0.00  0.00    +0.000 C 
BRANCH  19  20
ATOM     20  C   UNL     1       4.843   6.027  17.960  0.00  0.00    +0.000 A 
ATOM     21  C   UNL     1       5.541   5.358  18.979  0.00  0.00    +0.000 A 
ATOM     22  C   UNL     1       6.916   5.555  19.142  0.00  0.00    +0.000 A 
ATOM     23  C   UNL     1       7.611   6.412  18.295  0.00  0.00    +0.000 A 
ATOM     24  C   UNL     1       6.929   7.097  17.291  0.00  0.00    +0.000 A 
ATOM     25  C   UNL     1       5.562   6.907  17.141  0.00  0.00    +0.000 A 
ENDBRANCH  19  20
BRANCH  19  26
ATOM     26  N   UNL     1       2.928   4.580  18.404  0.00  0.00    +0.000 N 
ATOM     27  C   UNL     1       1.899   3.789  17.939  0.00  0.00    +0.000 C 
ATOM     28  O   UNL     1       1.092   4.160  17.095  0.00  0.00    +0.000 OA
ATOM     29  H   UNL     1       3.642   4.101  18.934  0.00  0.00    +0.000 HD
BRANCH  27  30
ATOM     30  C   UNL     1       1.928   2.375  18.546  0.00  0.00    +0.000 C 
ATOM     31  C   UNL     1       3.323   1.954  19.021  0.00  0.00    +0.000 C 
ATOM     32  C   UNL     1       3.706   2.568  20.364  0.00  0.00    +0.000 C 
ATOM     33  C   UNL     1       2.654   2.321  21.437  0.00  0.00    +0.000 C 
ATOM     34  C   UNL     1       1.256   2.732  20.989  0.00  0.00    +0.000 C 
ATOM     35  C   UNL     1       0.875   2.143  19.634  0.00  0.00    +0.000 C 
ENDBRANCH  27  30
ENDBRANCH  19  26
ENDBRANCH   1  19
TORSDOF 8
ENDMDL
MODEL 6
REMARK VINA RESULT:      -8.9      1.316      3.018
REMARK  Name = 
REMARK  12 active torsions:
REMARK  status: ('A' for Active; 'I' for Inactive)
REMARK    1  A    between atoms: C_1  and  C_2
REMARK    2  A    between atoms: C_5  and  C_6
REMARK    3  A    between atoms: C_6  and  C_7
REMARK    4  A    between atoms: C_6  and  C_8
REMARK    5  A    between atoms: N_9  and  C_10
REMARK    6  A    between atoms: N_13  and  C_14
REMARK    7  A    between atoms: C_14  and  C_15
REMARK    8  A    between atoms: C_14  and  C_16
REMARK    9  A    between atoms: C_16  and  C_17
REMARK   10  A    between atoms: C_17  and  N_18
REMARK   11  A    between atoms: C_17  and  C_27
REMARK   12  A    between atoms: C_19  and  C_21
REMARK                            x       y       z     vdW  Elec       q    Type
REMARK                         _______ _______ _______ _____ _____    ______ ____
ROOT
ATOM      1  C   UNL     1       2.585   7.053  17.851  0.00  0.00    +0.000 C 
ENDROOT
BRANCH   1   2
ATOM      2  C   UNL     1       2.465   7.666  19.278  0.00  0.00    +0.000 C 
ATOM      3  C   UNL     1       1.877   6.594  20.216  0.00  0.00    +0.000 C 
BRANCH   2   7
ATOM      4  C   UNL     1       0.198  11.420  19.841  0.00  0.00    +0.000 C 
ATOM      5  C   UNL     1       1.034  11.213  18.526  0.00  0.00    +0.000 C 
ATOM      6  C   UNL     1       1.377   9.709  18.203  0.00  0.00    +0.000 C 
ATOM      7  N   UNL     1       1.852   9.009  19.402  0.00  0.00    +0.000 NA
ATOM      8  C   UNL     1       0.815   9.063  20.432  0.00  0.00    +0.000 C 
ATOM      9  C   UNL     1       0.731  10.502  20.934  0.00  0.00    +0.000 C 
BRANCH   4  15
ATOM     10  C   UNL     1      -2.672  12.350  19.826  0.00  0.00    +0.000 C 
ATOM     11  C   UNL     1      -1.504  13.186  20.199  0.00  0.00    +0.000 A 
ATOM     12  N   UNL     1      -1.636  14.415  20.620  0.00  0.00    +0.000 NA
ATOM     13  N   UNL     1      -0.421  14.856  20.969  0.00  0.00    +0.000 NA
ATOM     14  C   UNL     1       0.497  13.908  20.804  0.00  0.00    +0.000 A 
ATOM     15  N   UNL     1      -0.149  12.802  20.214  0.00  0.00    +0.000 N 
BRANCH  14  16
ATOM     16  C   UNL     1       1.851  14.293  21.391  0.00  0.00    +0.000 C 
ATOM     17  C   UNL     1       3.165  14.147  20.664  0.00  0.00    +0.000 C 
ATOM     18  C   UNL     1       1.800  15.678  22.081  0.00  0.00    +0.000 C 
ENDBRANCH  14  16
ENDBRANCH   4  15
ENDBRANCH   2   7
ENDBRANCH   1   2
BRANCH   1  19
ATOM     19  C   UNL     1       3.459   5.798  17.617  0.00  0.00    +0.000 C 
BRANCH  19  20
ATOM     20  C   UNL     1       4.943   5.996  17.899  0.00  0.00    +0.000 A 
ATOM     21  C   UNL     1       5.565   5.350  18.980  0.00  0.00    +0.000 A 
ATOM     22  C   UNL     1       6.920   5.568  19.248  0.00  0.00    +0.000 A 
ATOM     23  C   UNL     1       7.671   6.422  18.447  0.00  0.00    +0.000 A 
ATOM     24  C   UNL     1       7.063   7.084  17.382  0.00  0.00    +0.000 A 
ATOM     25  C   UNL     1       5.715   6.874  17.126  0.00  0.00    +0.000 A 
ENDBRANCH  19  20
BRANCH  19  26
ATOM     26  N   UNL     1       2.992   4.585  18.297  0.00  0.00    +0.000 N 
ATOM     27  C   UNL     1       1.887   3.853  17.917  0.00  0.00    +0.000 C 
ATOM     28  O   UNL     1       1.065   4.250  17.100  0.00  0.00    +0.000 OA
ATOM     29  H   UNL     1       3.698   4.075  18.809  0.00  0.00    +0.000 HD
BRANCH  27  30
ATOM     30  C   UNL     1       1.848   2.465  18.579  0.00  0.00    +0.000 C 
ATOM     31  C   UNL     1       3.217   2.006  19.093  0.00  0.00    +0.000 C 
ATOM     32  C   UNL     1       3.605   2.657  20.417  0.00  0.00    +0.000 C 
ATOM     33  C   UNL     1       2.528   2.496  21.482  0.00  0.00    +0.000 C 
ATOM     34  C   UNL     1       1.155   2.945  20.995  0.00  0.00    +0.000 C 
ATOM     35  C   UNL     1       0.770   2.318  19.658  0.00  0.00    +0.000 C 
ENDBRANCH  27  30
ENDBRANCH  19  26
ENDBRANCH   1  19
TORSDOF 8
ENDMDL
MODEL 7
REMARK VINA RESULT:      -8.9      2.474      9.969
REMARK  Name = 
REMARK  12 active torsions:
REMARK  status: ('A' for Active; 'I' for Inactive)
REMARK    1  A    between atoms: C_1  and  C_2
REMARK    2  A    between atoms: C_5  and  C_6
REMARK    3  A    between atoms: C_6  and  C_7
REMARK    4  A    between atoms: C_6  and  C_8
REMARK    5  A    between atoms: N_9  and  C_10
REMARK    6  A    between atoms: N_13  and  C_14
REMARK    7  A    between atoms: C_14  and  C_15
REMARK    8  A    between atoms: C_14  and  C_16
REMARK    9  A    between atoms: C_16  and  C_17
REMARK   10  A    between atoms: C_17  and  N_18
REMARK   11  A    between atoms: C_17  and  C_27
REMARK   12  A    between atoms: C_19  and  C_21
REMARK                            x       y       z     vdW  Elec       q    Type
REMARK                         _______ _______ _______ _____ _____    ______ ____
ROOT
ATOM      1  C   UNL     1      -0.587  10.357  19.858  0.00  0.00    +0.000 C 
ENDROOT
BRANCH   1   2
ATOM      2  C   UNL     1       0.965  10.386  19.730  0.00  0.00    +0.000 C 
ATOM      3  C   UNL     1       1.347  11.515  18.753  0.00  0.00    +0.000 C 
BRANCH   2   7
ATOM      4  C   UNL     1       2.747   6.503  18.593  0.00  0.00    +0.000 C 
ATOM      5  C   UNL     1       2.348   6.760  20.091  0.00  0.00    +0.000 C 
ATOM      6  C   UNL     1       1.302   7.921  20.296  0.00  0.00    +0.000 C 
ATOM      7  N   UNL     1       1.661   9.099  19.500  0.00  0.00    +0.000 NA
ATOM      8  C   UNL     1       1.707   8.727  18.086  0.00  0.00    +0.000 C 
ATOM      9  C   UNL     1       2.929   7.835  17.878  0.00  0.00    +0.000 C 
BRANCH   4  15
ATOM     10  C   UNL     1       1.861   3.779  17.645  0.00  0.00    +0.000 C 
ATOM     11  C   UNL     1       3.268   4.188  17.877  0.00  0.00    +0.000 A 
ATOM     12  N   UNL     1       4.273   3.392  17.626  0.00  0.00    +0.000 NA
ATOM     13  N   UNL     1       5.399   4.083  17.839  0.00  0.00    +0.000 NA
ATOM     14  C   UNL     1       5.132   5.334  18.200  0.00  0.00    +0.000 A 
ATOM     15  N   UNL     1       3.731   5.441  18.326  0.00  0.00    +0.000 N 
BRANCH  14  16
ATOM     16  C   UNL     1       6.378   6.214  18.241  0.00  0.00    +0.000 C 
ATOM     17  C   UNL     1       7.595   5.925  19.084  0.00  0.00    +0.000 C 
ATOM     18  C   UNL     1       6.829   6.629  16.819  0.00  0.00    +0.000 C 
ENDBRANCH  14  16
ENDBRANCH   4  15
ENDBRANCH   2   7
ENDBRANCH   1   2
BRANCH   1  19
ATOM     19  C   UNL     1      -1.437  11.494  19.242  0.00  0.00    +0.000 C 
BRANCH  19  20
ATOM     20  C   UNL     1      -2.232  11.095  18.005  0.00  0.00    +0.000 A 
ATOM     21  C   UNL     1      -3.492  11.657  17.745  0.00  0.00    +0.000 A 
ATOM     22  C   UNL     1      -4.227  11.256  16.625  0.00  0.00    +0.000 A 
ATOM     23  C   UNL     1      -3.720  10.299  15.752  0.00  0.00    +0.000 A 
ATOM     24  C   UNL     1      -2.478   9.719  16.008  0.00  0.00    +0.000 A 
ATOM     25  C   UNL     1      -1.757  10.111  17.127  0.00  0.00    +0.000 A 
ENDBRANCH  19  20
BRANCH  19  26
ATOM     26  N   UNL     1      -2.321  12.186  20.187  0.00  0.00    +0.000 N 
ATOM     27  C   UNL     1      -2.070  13.431  20.722  0.00  0.00    +0.000 C 
ATOM     28  O   UNL     1      -0.990  14.002  20.624  0.00  0.00    +0.000 OA
ATOM     29  H   UNL     1      -3.293  11.914  20.150  0.00  0.00    +0.000 HD
BRANCH  27  30
ATOM     30  C   UNL     1      -3.314  14.044  21.387  0.00  0.00    +0.000 C 
ATOM     31  C   UNL     1      -4.177  13.009  22.118  0.00  0.00    +0.000 C 
ATOM     32  C   UNL     1      -3.610  12.614  23.478  0.00  0.00    +0.000 C 
ATOM     33  C   UNL     1      -3.322  13.822  24.361  0.00  0.00    +0.000 C 
ATOM     34  C   UNL     1      -2.465  14.868  23.656  0.00  0.00    +0.000 C 
ATOM     35  C   UNL     1      -3.011  15.250  22.284  0.00  0.00    +0.000 C 
ENDBRANCH  27  30
ENDBRANCH  19  26
ENDBRANCH   1  19
TORSDOF 8
ENDMDL
MODEL 8
REMARK VINA RESULT:      -8.8      0.684      2.021
REMARK  Name = 
REMARK  12 active torsions:
REMARK  status: ('A' for Active; 'I' for Inactive)
REMARK    1  A    between atoms: C_1  and  C_2
REMARK    2  A    between atoms: C_5  and  C_6
REMARK    3  A    between atoms: C_6  and  C_7
REMARK    4  A    between atoms: C_6  and  C_8
REMARK    5  A    between atoms: N_9  and  C_10
REMARK    6  A    between atoms: N_13  and  C_14
REMARK    7  A    between atoms: C_14  and  C_15
REMARK    8  A    between atoms: C_14  and  C_16
REMARK    9  A    between atoms: C_16  and  C_17
REMARK   10  A    between atoms: C_17  and  N_18
REMARK   11  A    between atoms: C_17  and  C_27
REMARK   12  A    between atoms: C_19  and  C_21
REMARK                            x       y       z     vdW  Elec       q    Type
REMARK                         _______ _______ _______ _____ _____    ______ ____
ROOT
ATOM      1  C   UNL     1       2.719   7.040  17.752  0.00  0.00    +0.000 C 
ENDROOT
BRANCH   1   2
ATOM      2  C   UNL     1       2.447   7.611  19.176  0.00  0.00    +0.000 C 
ATOM      3  C   UNL     1       2.473   6.440  20.178  0.00  0.00    +0.000 C 
BRANCH   2   7
ATOM      4  C   UNL     1      -0.636  10.771  19.422  0.00  0.00    +0.000 C 
ATOM      5  C   UNL     1      -0.404   9.822  20.652  0.00  0.00    +0.000 C 
ATOM      6  C   UNL     1       0.995   9.095  20.659  0.00  0.00    +0.000 C 
ATOM      7  N   UNL     1       1.308   8.545  19.337  0.00  0.00    +0.000 NA
ATOM      8  C   UNL     1       1.327   9.631  18.356  0.00  0.00    +0.000 C 
ATOM      9  C   UNL     1      -0.111  10.103  18.157  0.00  0.00    +0.000 C 
BRANCH   4  15
ATOM     10  C   UNL     1      -2.702   9.975  17.373  0.00  0.00    +0.000 C 
ATOM     11  C   UNL     1      -2.862  11.060  18.372  0.00  0.00    +0.000 A 
ATOM     12  N   UNL     1      -3.971  11.741  18.485  0.00  0.00    +0.000 NA
ATOM     13  N   UNL     1      -3.834  12.564  19.532  0.00  0.00    +0.000 NA
ATOM     14  C   UNL     1      -2.653  12.401  20.118  0.00  0.00    +0.000 A 
ATOM     15  N   UNL     1      -1.927  11.474  19.341  0.00  0.00    +0.000 N 
BRANCH  14  16
ATOM     16  C   UNL     1      -2.541  13.158  21.437  0.00  0.00    +0.000 C 
ATOM     17  C   UNL     1      -3.056  12.644  22.759  0.00  0.00    +0.000 C 
ATOM     18  C   UNL     1      -1.123  13.748  21.637  0.00  0.00    +0.000 C 
ENDBRANCH  14  16
ENDBRANCH   4  15
ENDBRANCH   2   7
ENDBRANCH   1   2
BRANCH   1  19
ATOM     19  C   UNL     1       3.632   5.803  17.575  0.00  0.00    +0.000 C 
BRANCH  19  20
ATOM     20  C   UNL     1       5.097   6.039  17.918  0.00  0.00    +0.000 A 
ATOM     21  C   UNL     1       5.882   6.924  17.161  0.00  0.00    +0.000 A 
ATOM     22  C   UNL     1       7.235   7.105  17.464  0.00  0.00    +0.000 A 
ATOM     23  C   UNL     1       7.820   6.417  18.522  0.00  0.00    +0.000 A 
ATOM     24  C   UNL     1       7.058   5.522  19.271  0.00  0.00    +0.000 A 
ATOM     25  C   UNL     1       5.719   5.336  18.959  0.00  0.00    +0.000 A 
ENDBRANCH  19  20
BRANCH  19  26
ATOM     26  N   UNL     1       3.163   4.587  18.250  0.00  0.00    +0.000 N 
ATOM     27  C   UNL     1       2.018   3.899  17.912  0.00  0.00    +0.000 C 
ATOM     28  O   UNL     1       1.167   4.339  17.149  0.00  0.00    +0.000 OA
ATOM     29  H   UNL     1       3.879   4.045  18.713  0.00  0.00    +0.000 HD
BRANCH  27  30
ATOM     30  C   UNL     1       1.971   2.496  18.543  0.00  0.00    +0.000 C 
ATOM     31  C   UNL     1       3.324   2.043  19.103  0.00  0.00    +0.000 C 
ATOM     32  C   UNL     1       3.650   2.671  20.455  0.00  0.00    +0.000 C 
ATOM     33  C   UNL     1       2.532   2.474  21.472  0.00  0.00    +0.000 C 
ATOM     34  C   UNL     1       1.175   2.917  20.938  0.00  0.00    +0.000 C 
ATOM     35  C   UNL     1       0.852   2.314  19.574  0.00  0.00    +0.000 C 
ENDBRANCH  27  30
ENDBRANCH  19  26
ENDBRANCH   1  19
TORSDOF 8
ENDMDL
MODEL 9
REMARK VINA RESULT:      -8.8      1.244      1.911
REMARK  Name = 
REMARK  12 active torsions:
REMARK  status: ('A' for Active; 'I' for Inactive)
REMARK    1  A    between atoms: C_1  and  C_2
REMARK    2  A    between atoms: C_5  and  C_6
REMARK    3  A    between atoms: C_6  and  C_7
REMARK    4  A    between atoms: C_6  and  C_8
REMARK    5  A    between atoms: N_9  and  C_10
REMARK    6  A    between atoms: N_13  and  C_14
REMARK    7  A    between atoms: C_14  and  C_15
REMARK    8  A    between atoms: C_14  and  C_16
REMARK    9  A    between atoms: C_16  and  C_17
REMARK   10  A    between atoms: C_17  and  N_18
REMARK   11  A    between atoms: C_17  and  C_27
REMARK   12  A    between atoms: C_19  and  C_21
REMARK                            x       y       z     vdW  Elec       q    Type
REMARK                         _______ _______ _______ _____ _____    ______ ____
ROOT
ATOM      1  C   UNL     1       2.175   7.759  19.229  0.00  0.00    +0.000 C 
ENDROOT
BRANCH   1   2
ATOM      2  C   UNL     1       1.449   8.913  18.476  0.00  0.00    +0.000 C 
ATOM      3  C   UNL     1       2.507   9.727  17.705  0.00  0.00    +0.000 C 
BRANCH   2   7
ATOM      4  C   UNL     1      -1.177  11.763  20.605  0.00  0.00    +0.000 C 
ATOM      5  C   UNL     1      -0.782  10.411  21.300  0.00  0.00    +0.000 C 
ATOM      6  C   UNL     1       0.506   9.724  20.704  0.00  0.00    +0.000 C 
ATOM      7  N   UNL     1       0.471   9.724  19.238  0.00  0.00    +0.000 NA
ATOM      8  C   UNL     1       0.387  11.104  18.759  0.00  0.00    +0.000 C 
ATOM      9  C   UNL     1      -1.006  11.630  19.097  0.00  0.00    +0.000 C 
BRANCH   4  15
ATOM     10  C   UNL     1      -1.059  13.485  23.079  0.00  0.00    +0.000 C 
ATOM     11  C   UNL     1      -2.271  13.254  22.256  0.00  0.00    +0.000 A 
ATOM     12  N   UNL     1      -3.408  13.843  22.513  0.00  0.00    +0.000 NA
ATOM     13  N   UNL     1      -4.265  13.511  21.539  0.00  0.00    +0.000 NA
ATOM     14  C   UNL     1      -3.681  12.731  20.634  0.00  0.00    +0.000 A 
ATOM     15  N   UNL     1      -2.379  12.455  21.100  0.00  0.00    +0.000 N 
BRANCH  14  16
ATOM     16  C   UNL     1      -4.552  12.508  19.401  0.00  0.00    +0.000 C 
ATOM     17  C   UNL     1      -4.496  11.276  18.533  0.00  0.00    +0.000 C 
ATOM     18  C   UNL     1      -6.032  12.872  19.676  0.00  0.00    +0.000 C 
ENDBRANCH  14  16
ENDBRANCH   4  15
ENDBRANCH   2   7
ENDBRANCH   1   2
BRANCH   1  19
ATOM     19  C   UNL     1       2.531   6.451  18.483  0.00  0.00    +0.000 C 
BRANCH  19  20
ATOM     20  C   UNL     1       4.021   6.234  18.256  0.00  0.00    +0.000 A 
ATOM     21  C   UNL     1       4.802   5.545  19.198  0.00  0.00    +0.000 A 
ATOM     22  C   UNL     1       6.176   5.384  18.995  0.00  0.00    +0.000 A 
ATOM     23  C   UNL     1       6.787   5.898  17.856  0.00  0.00    +0.000 A 
ATOM     24  C   UNL     1       6.028   6.599  16.920  0.00  0.00    +0.000 A 
ATOM     25  C   UNL     1       4.667   6.768  17.132  0.00  0.00    +0.000 A 
ENDBRANCH  19  20
BRANCH  19  26
ATOM     26  N   UNL     1       1.943   5.234  19.055  0.00  0.00    +0.000 N 
ATOM     27  C   UNL     1       1.391   4.211  18.314  0.00  0.00    +0.000 C 
ATOM     28  O   UNL     1       1.151   4.300  17.116  0.00  0.00    +0.000 OA
ATOM     29  H   UNL     1       2.284   4.976  19.970  0.00  0.00    +0.000 HD
BRANCH  27  30
ATOM     30  C   UNL     1       1.182   2.933  19.146  0.00  0.00    +0.000 C 
ATOM     31  C   UNL     1       2.270   1.880  18.912  0.00  0.00    +0.000 C 
ATOM     32  C   UNL     1       3.566   2.186  19.657  0.00  0.00    +0.000 C 
ATOM     33  C   UNL     1       3.338   2.431  21.143  0.00  0.00    +0.000 C 
ATOM     34  C   UNL     1       2.258   3.476  21.403  0.00  0.00    +0.000 C 
ATOM     35  C   UNL     1       0.967   3.191  20.641  0.00  0.00    +0.000 C 
ENDBRANCH  27  30
ENDBRANCH  19  26
ENDBRANCH   1  19
TORSDOF 8
ENDMDL
