MODEL 1
REMARK VINA RESULT:      -8.4      0.000      0.000
REMARK  Name = 
REMARK  8 active torsions:
REMARK  status: ('A' for Active; 'I' for Inactive)
REMARK    1  A    between atoms: C_1  and  C_2
REMARK    2  A    between atoms: C_2  and  C_3
REMARK    3  A    between atoms: C_2  and  O_4
REMARK    4  A    between atoms: O_4  and  C_5
REMARK    5  A    between atoms: C_5  and  C_6
REMARK    6  A    between atoms: C_6  and  C_7
REMARK    7  A    between atoms: C_7  and  N_8
REMARK    8  A    between atoms: C_9  and  C_10
REMARK                            x       y       z     vdW  Elec       q    Type
REMARK                         _______ _______ _______ _____ _____    ______ ____
ROOT
ATOM      1  N   UNL     1       6.115   5.982  18.119  0.00  0.00    +0.000 N 
ATOM      2  C   UNL     1       5.341   6.175  16.980  0.00  0.00    +0.000 A 
ATOM      3  N   UNL     1       4.174   6.662  17.348  0.00  0.00    +0.000 NA
ATOM      4  C   UNL     1       4.039   6.153  18.625  0.00  0.00    +0.000 A 
ATOM      5  N   UNL     1       2.816   5.849  19.118  0.00  0.00    +0.000 NA
ATOM      6  C   UNL     1       2.678   4.563  19.395  0.00  0.00    +0.000 A 
ATOM      7  C   UNL     1       1.369   4.110  19.579  0.00  0.00    +0.000 A 
ATOM      8  C   UNL     1       1.059   2.757  19.617  0.00  0.00    +0.000 A 
ATOM      9  C   UNL     1       2.081   1.835  19.471  0.00  0.00    +0.000 A 
ATOM     10  C   UNL     1       3.419   2.289  19.382  0.00  0.00    +0.000 A 
ATOM     11  C   UNL     1       3.767   3.644  19.388  0.00  0.00    +0.000 A 
ATOM     12  N   UNL     1       5.083   4.073  19.305  0.00  0.00    +0.000 NA
ATOM     13  C   UNL     1       5.184   5.389  18.946  0.00  0.00    +0.000 A 
ENDROOT
BRANCH   2  14
ATOM     14  C   UNL     1       5.690   5.448  15.799  0.00  0.00    +0.000 A 
ATOM     15  C   UNL     1       5.228   4.249  15.292  0.00  0.00    +0.000 A 
ATOM     16  C   UNL     1       6.104   3.879  14.239  0.00  0.00    +0.000 A 
ATOM     17  C   UNL     1       7.046   4.873  14.151  0.00  0.00    +0.000 A 
ATOM     18  O   UNL     1       6.789   5.829  15.062  0.00  0.00    +0.000 OA
ENDBRANCH   2  14
BRANCH   1  19
ATOM     19  C   UNL     1       7.411   6.624  18.117  0.00  0.00    +0.000 C 
BRANCH  19  20
ATOM     20  C   UNL     1       7.894   7.977  17.597  0.00  0.00    +0.000 C 
BRANCH  20  21
ATOM     21  C   UNL     1       8.566   8.880  18.611  0.00  0.00    +0.000 C 
BRANCH  21  22
ATOM     22  O   UNL     1       8.490  10.239  18.143  0.00  0.00    +0.000 OA
BRANCH  22  24
ATOM     23  C   UNL     1       9.562  12.384  17.755  0.00  0.00    +0.000 C 
ATOM     24  C   UNL     1       9.696  10.986  18.364  0.00  0.00    +0.000 C 
ATOM     25  C   UNL     1       9.970  11.127  19.858  0.00  0.00    +0.000 C 
ENDBRANCH  22  24
ENDBRANCH  21  22
ENDBRANCH  20  21
ENDBRANCH  19  20
ENDBRANCH   1  19
TORSDOF 6
ENDMDL
MODEL 2
REMARK VINA RESULT:      -8.0      2.113      5.953
REMARK  Name = 
REMARK  8 active torsions:
REMARK  status: ('A' for Active; 'I' for Inactive)
REMARK    1  A    between atoms: C_1  and  C_2
REMARK    2  A    between atoms: C_2  and  C_3
REMARK    3  A    between atoms: C_2  and  O_4
REMARK    4  A    between atoms: O_4  and  C_5
REMARK    5  A    between atoms: C_5  and  C_6
REMARK    6  A    between atoms: C_6  and  C_7
REMARK    7  A    between atoms: C_7  and  N_8
REMARK    8  A    between atoms: C_9  and  C_10
REMARK                            x       y       z     vdW  Elec       q    Type
REMARK                         _______ _______ _______ _____ _____    ______ ____
ROOT
ATOM      1  N   UNL     1       5.847   4.795  16.694  0.00  0.00    +0.000 N 
ATOM      2  C   UNL     1       6.665   4.981  17.804  0.00  0.00    +0.000 A 
ATOM      3  N   UNL     1       6.264   4.167  18.758  0.00  0.00    +0.000 NA
ATOM      4  C   UNL     1       4.921   4.020  18.465  0.00  0.00    +0.000 A 
ATOM      5  N   UNL     1       4.019   3.831  19.457  0.00  0.00    +0.000 NA
ATOM      6  C   UNL     1       3.130   4.807  19.535  0.00  0.00    +0.000 A 
ATOM      7  C   UNL     1       2.388   4.869  20.717  0.00  0.00    +0.000 A 
ATOM      8  C   UNL     1       1.615   5.976  21.041  0.00  0.00    +0.000 A 
ATOM      9  C   UNL     1       1.581   7.046  20.163  0.00  0.00    +0.000 A 
ATOM     10  C   UNL     1       2.254   6.946  18.921  0.00  0.00    +0.000 A 
ATOM     11  C   UNL     1       3.001   5.825  18.546  0.00  0.00    +0.000 A 
ATOM     12  N   UNL     1       3.651   5.740  17.323  0.00  0.00    +0.000 NA
ATOM     13  C   UNL     1       4.611   4.767  17.307  0.00  0.00    +0.000 A 
ENDROOT
BRANCH   2  14
ATOM     14  C   UNL     1       7.392   6.209  17.904  0.00  0.00    +0.000 A 
ATOM     15  C   UNL     1       8.223   6.703  18.891  0.00  0.00    +0.000 A 
ATOM     16  C   UNL     1       8.459   8.069  18.588  0.00  0.00    +0.000 A 
ATOM     17  C   UNL     1       7.772   8.334  17.431  0.00  0.00    +0.000 A 
ATOM     18  O   UNL     1       7.153   7.220  17.000  0.00  0.00    +0.000 OA
ENDBRANCH   2  14
BRANCH   1  19
ATOM     19  C   UNL     1       6.527   4.484  15.457  0.00  0.00    +0.000 C 
BRANCH  19  20
ATOM     20  C   UNL     1       6.024   4.069  14.076  0.00  0.00    +0.000 C 
BRANCH  20  21
ATOM     21  C   UNL     1       7.046   4.100  12.957  0.00  0.00    +0.000 C 
BRANCH  21  22
ATOM     22  O   UNL     1       6.391   3.752  11.722  0.00  0.00    +0.000 OA
BRANCH  22  24
ATOM     23  C   UNL     1       4.131   3.048  11.173  0.00  0.00    +0.000 C 
ATOM     24  C   UNL     1       5.449   2.677  11.861  0.00  0.00    +0.000 C 
ATOM     25  C   UNL     1       5.994   1.405  11.221  0.00  0.00    +0.000 C 
ENDBRANCH  22  24
ENDBRANCH  21  22
ENDBRANCH  20  21
ENDBRANCH  19  20
ENDBRANCH   1  19
TORSDOF 6
ENDMDL
MODEL 3
REMARK VINA RESULT:      -7.9      2.099      5.801
REMARK  Name = 
REMARK  8 active torsions:
REMARK  status: ('A' for Active; 'I' for Inactive)
REMARK    1  A    between atoms: C_1  and  C_2
REMARK    2  A    between atoms: C_2  and  C_3
REMARK    3  A    between atoms: C_2  and  O_4
REMARK    4  A    between atoms: O_4  and  C_5
REMARK    5  A    between atoms: C_5  and  C_6
REMARK    6  A    between atoms: C_6  and  C_7
REMARK    7  A    between atoms: C_7  and  N_8
REMARK    8  A    between atoms: C_9  and  C_10
REMARK                            x       y       z     vdW  Elec       q    Type
REMARK                         _______ _______ _______ _____ _____    ______ ____
ROOT
ATOM      1  N   UNL     1       6.097   4.860  16.651  0.00  0.00    +0.000 N 
ATOM      2  C   UNL     1       6.898   5.200  17.736  0.00  0.00    +0.000 A 
ATOM      3  N   UNL     1       6.794   4.252  18.644  0.00  0.00    +0.000 NA
ATOM      4  C   UNL     1       5.527   3.756  18.398  0.00  0.00    +0.000 A 
ATOM      5  N   UNL     1       4.773   3.267  19.410  0.00  0.00    +0.000 NA
ATOM      6  C   UNL     1       3.657   3.953  19.597  0.00  0.00    +0.000 A 
ATOM      7  C   UNL     1       3.000   3.737  20.811  0.00  0.00    +0.000 A 
ATOM      8  C   UNL     1       1.975   4.566  21.247  0.00  0.00    +0.000 A 
ATOM      9  C   UNL     1       1.597   5.634  20.452  0.00  0.00    +0.000 A 
ATOM     10  C   UNL     1       2.194   5.797  19.179  0.00  0.00    +0.000 A 
ATOM     11  C   UNL     1       3.196   4.951  18.691  0.00  0.00    +0.000 A 
ATOM     12  N   UNL     1       3.768   5.121  17.440  0.00  0.00    +0.000 NA
ATOM     13  C   UNL     1       4.955   4.455  17.312  0.00  0.00    +0.000 A 
ENDROOT
BRANCH   2  14
ATOM     14  C   UNL     1       7.267   6.573  17.895  0.00  0.00    +0.000 A 
ATOM     15  C   UNL     1       6.955   7.696  17.154  0.00  0.00    +0.000 A 
ATOM     16  C   UNL     1       7.798   8.741  17.612  0.00  0.00    +0.000 A 
ATOM     17  C   UNL     1       8.569   8.206  18.613  0.00  0.00    +0.000 A 
ATOM     18  O   UNL     1       8.239   6.918  18.808  0.00  0.00    +0.000 OA
ENDBRANCH   2  14
BRANCH   1  19
ATOM     19  C   UNL     1       6.760   4.822  15.366  0.00  0.00    +0.000 C 
BRANCH  19  20
ATOM     20  C   UNL     1       6.442   4.099  14.059  0.00  0.00    +0.000 C 
BRANCH  20  21
ATOM     21  C   UNL     1       7.132   4.630  12.819  0.00  0.00    +0.000 C 
BRANCH  21  22
ATOM     22  O   UNL     1       6.832   3.759  11.713  0.00  0.00    +0.000 OA
BRANCH  22  24
ATOM     23  C   UNL     1       4.459   3.334  11.413  0.00  0.00    +0.000 C 
ATOM     24  C   UNL     1       5.780   2.823  11.995  0.00  0.00    +0.000 C 
ATOM     25  C   UNL     1       6.095   1.465  11.376  0.00  0.00    +0.000 C 
ENDBRANCH  22  24
ENDBRANCH  21  22
ENDBRANCH  20  21
ENDBRANCH  19  20
ENDBRANCH   1  19
TORSDOF 6
ENDMDL
MODEL 4
REMARK VINA RESULT:      -7.6      2.626      5.811
REMARK  Name = 
REMARK  8 active torsions:
REMARK  status: ('A' for Active; 'I' for Inactive)
REMARK    1  A    between atoms: C_1  and  C_2
REMARK    2  A    between atoms: C_2  and  C_3
REMARK    3  A    between atoms: C_2  and  O_4
REMARK    4  A    between atoms: O_4  and  C_5
REMARK    5  A    between atoms: C_5  and  C_6
REMARK    6  A    between atoms: C_6  and  C_7
REMARK    7  A    between atoms: C_7  and  N_8
REMARK    8  A    between atoms: C_9  and  C_10
REMARK                            x       y       z     vdW  Elec       q    Type
REMARK                         _______ _______ _______ _____ _____    ______ ____
ROOT
ATOM      1  N   UNL     1       4.825   5.054  16.393  0.00  0.00    +0.000 N 
ATOM      2  C   UNL     1       5.783   4.443  17.195  0.00  0.00    +0.000 A 
ATOM      3  N   UNL     1       5.441   3.183  17.366  0.00  0.00    +0.000 NA
ATOM      4  C   UNL     1       4.066   3.238  17.244  0.00  0.00    +0.000 A 
ATOM      5  N   UNL     1       3.280   2.386  17.943  0.00  0.00    +0.000 NA
ATOM      6  C   UNL     1       2.482   3.007  18.797  0.00  0.00    +0.000 A 
ATOM      7  C   UNL     1       1.896   2.208  19.782  0.00  0.00    +0.000 A 
ATOM      8  C   UNL     1       1.254   2.756  20.885  0.00  0.00    +0.000 A 
ATOM      9  C   UNL     1       1.194   4.133  21.005  0.00  0.00    +0.000 A 
ATOM     10  C   UNL     1       1.701   4.944  19.961  0.00  0.00    +0.000 A 
ATOM     11  C   UNL     1       2.311   4.421  18.816  0.00  0.00    +0.000 A 
ATOM     12  N   UNL     1       2.798   5.229  17.799  0.00  0.00    +0.000 NA
ATOM     13  C   UNL     1       3.674   4.570  16.981  0.00  0.00    +0.000 A 
ENDROOT
BRANCH   2  14
ATOM     14  C   UNL     1       6.607   5.279  18.013  0.00  0.00    +0.000 A 
ATOM     15  C   UNL     1       7.336   6.415  17.718  0.00  0.00    +0.000 A 
ATOM     16  C   UNL     1       8.165   6.676  18.839  0.00  0.00    +0.000 A 
ATOM     17  C   UNL     1       7.892   5.697  19.760  0.00  0.00    +0.000 A 
ATOM     18  O   UNL     1       6.941   4.874  19.285  0.00  0.00    +0.000 OA
ENDBRANCH   2  14
BRANCH   1  19
ATOM     19  C   UNL     1       5.323   5.710  15.205  0.00  0.00    +0.000 C 
BRANCH  19  20
ATOM     20  C   UNL     1       6.233   5.243  14.070  0.00  0.00    +0.000 C 
BRANCH  20  21
ATOM     21  C   UNL     1       6.283   3.748  13.827  0.00  0.00    +0.000 C 
BRANCH  21  22
ATOM     22  O   UNL     1       6.352   3.512  12.409  0.00  0.00    +0.000 OA
BRANCH  22  24
ATOM     23  C   UNL     1       4.290   3.114  11.186  0.00  0.00    +0.000 C 
ATOM     24  C   UNL     1       5.454   2.486  11.959  0.00  0.00    +0.000 C 
ATOM     25  C   UNL     1       6.179   1.507  11.041  0.00  0.00    +0.000 C 
ENDBRANCH  22  24
ENDBRANCH  21  22
ENDBRANCH  20  21
ENDBRANCH  19  20
ENDBRANCH   1  19
TORSDOF 6
ENDMDL
MODEL 5
REMARK VINA RESULT:      -7.6      2.040      5.881
REMARK  Name = 
REMARK  8 active torsions:
REMARK  status: ('A' for Active; 'I' for Inactive)
REMARK    1  A    between atoms: C_1  and  C_2
REMARK    2  A    between atoms: C_2  and  C_3
REMARK    3  A    between atoms: C_2  and  O_4
REMARK    4  A    between atoms: O_4  and  C_5
REMARK    5  A    between atoms: C_5  and  C_6
REMARK    6  A    between atoms: C_6  and  C_7
REMARK    7  A    between atoms: C_7  and  N_8
REMARK    8  A    between atoms: C_9  and  C_10
REMARK                            x       y       z     vdW  Elec       q    Type
REMARK                         _______ _______ _______ _____ _____    ______ ____
ROOT
ATOM      1  N   UNL     1       5.618   5.232  16.192  0.00  0.00    +0.000 N 
ATOM      2  C   UNL     1       6.577   5.118  17.193  0.00  0.00    +0.000 A 
ATOM      3  N   UNL     1       6.319   4.035  17.896  0.00  0.00    +0.000 NA
ATOM      4  C   UNL     1       4.950   3.913  17.744  0.00  0.00    +0.000 A 
ATOM      5  N   UNL     1       4.194   3.389  18.737  0.00  0.00    +0.000 NA
ATOM      6  C   UNL     1       3.314   4.249  19.221  0.00  0.00    +0.000 A 
ATOM      7  C   UNL     1       2.739   3.914  20.450  0.00  0.00    +0.000 A 
ATOM      8  C   UNL     1       2.006   4.831  21.192  0.00  0.00    +0.000 A 
ATOM      9  C   UNL     1       1.841   6.112  20.694  0.00  0.00    +0.000 A 
ATOM     10  C   UNL     1       2.339   6.425  19.405  0.00  0.00    +0.000 A 
ATOM     11  C   UNL     1       3.040   5.509  18.615  0.00  0.00    +0.000 A 
ATOM     12  N   UNL     1       3.518   5.829  17.353  0.00  0.00    +0.000 NA
ATOM     13  C   UNL     1       4.477   4.957  16.918  0.00  0.00    +0.000 A 
ENDROOT
BRANCH   2  14
ATOM     14  C   UNL     1       7.298   6.295  17.570  0.00  0.00    +0.000 A 
ATOM     15  C   UNL     1       8.071   6.578  18.679  0.00  0.00    +0.000 A 
ATOM     16  C   UNL     1       8.325   7.974  18.659  0.00  0.00    +0.000 A 
ATOM     17  C   UNL     1       7.706   8.466  17.538  0.00  0.00    +0.000 A 
ATOM     18  O   UNL     1       7.113   7.464  16.866  0.00  0.00    +0.000 OA
ENDBRANCH   2  14
BRANCH   1  19
ATOM     19  C   UNL     1       6.126   5.343  14.843  0.00  0.00    +0.000 C 
BRANCH  19  20
ATOM     20  C   UNL     1       7.299   4.683  14.121  0.00  0.00    +0.000 C 
BRANCH  20  21
ATOM     21  C   UNL     1       7.021   4.176  12.721  0.00  0.00    +0.000 C 
BRANCH  21  22
ATOM     22  O   UNL     1       5.740   3.516  12.713  0.00  0.00    +0.000 OA
BRANCH  22  24
ATOM     23  C   UNL     1       5.808   1.511  11.343  0.00  0.00    +0.000 C 
ATOM     24  C   UNL     1       5.384   2.980  11.430  0.00  0.00    +0.000 C 
ATOM     25  C   UNL     1       3.877   3.068  11.215  0.00  0.00    +0.000 C 
ENDBRANCH  22  24
ENDBRANCH  21  22
ENDBRANCH  20  21
ENDBRANCH  19  20
ENDBRANCH   1  19
TORSDOF 6
ENDMDL
MODEL 6
REMARK VINA RESULT:      -7.5      2.989      6.639
REMARK  Name = 
REMARK  8 active torsions:
REMARK  status: ('A' for Active; 'I' for Inactive)
REMARK    1  A    between atoms: C_1  and  C_2
REMARK    2  A    between atoms: C_2  and  C_3
REMARK    3  A    between atoms: C_2  and  O_4
REMARK    4  A    between atoms: O_4  and  C_5
REMARK    5  A    between atoms: C_5  and  C_6
REMARK    6  A    between atoms: C_6  and  C_7
REMARK    7  A    between atoms: C_7  and  N_8
REMARK    8  A    between atoms: C_9  and  C_10
REMARK                            x       y       z     vdW  Elec       q    Type
REMARK                         _______ _______ _______ _____ _____    ______ ____
ROOT
ATOM      1  N   UNL     1       3.427   5.276  17.872  0.00  0.00    +0.000 N 
ATOM      2  C   UNL     1       4.339   5.551  18.886  0.00  0.00    +0.000 A 
ATOM      3  N   UNL     1       3.676   5.689  20.016  0.00  0.00    +0.000 NA
ATOM      4  C   UNL     1       2.444   6.131  19.574  0.00  0.00    +0.000 A 
ATOM      5  N   UNL     1       1.705   6.976  20.331  0.00  0.00    +0.000 NA
ATOM      6  C   UNL     1       1.501   8.145  19.746  0.00  0.00    +0.000 A 
ATOM      7  C   UNL     1       1.054   9.177  20.575  0.00  0.00    +0.000 A 
ATOM      8  C   UNL     1       1.047  10.502  20.158  0.00  0.00    +0.000 A 
ATOM      9  C   UNL     1       1.494  10.802  18.883  0.00  0.00    +0.000 A 
ATOM     10  C   UNL     1       1.855   9.749  18.008  0.00  0.00    +0.000 A 
ATOM     11  C   UNL     1       1.829   8.402  18.383  0.00  0.00    +0.000 A 
ATOM     12  N   UNL     1       2.181   7.381  17.513  0.00  0.00    +0.000 NA
ATOM     13  C   UNL     1       2.454   6.210  18.163  0.00  0.00    +0.000 A 
ENDROOT
BRANCH   2  14
ATOM     14  C   UNL     1       5.620   6.069  18.516  0.00  0.00    +0.000 A 
ATOM     15  C   UNL     1       6.037   6.768  17.400  0.00  0.00    +0.000 A 
ATOM     16  C   UNL     1       7.455   6.798  17.437  0.00  0.00    +0.000 A 
ATOM     17  C   UNL     1       7.828   6.127  18.574  0.00  0.00    +0.000 A 
ATOM     18  O   UNL     1       6.736   5.712  19.240  0.00  0.00    +0.000 OA
ENDBRANCH   2  14
BRANCH   1  19
ATOM     19  C   UNL     1       3.681   4.076  17.105  0.00  0.00    +0.000 C 
BRANCH  19  20
ATOM     20  C   UNL     1       4.030   2.645  17.509  0.00  0.00    +0.000 C 
BRANCH  20  21
ATOM     21  C   UNL     1       2.978   1.904  18.309  0.00  0.00    +0.000 C 
BRANCH  21  22
ATOM     22  O   UNL     1       3.049   2.337  19.681  0.00  0.00    +0.000 OA
BRANCH  22  24
ATOM     23  C   UNL     1       1.881   3.078  21.678  0.00  0.00    +0.000 C 
ATOM     24  C   UNL     1       1.776   2.330  20.346  0.00  0.00    +0.000 C 
ATOM     25  C   UNL     1       0.720   3.012  19.483  0.00  0.00    +0.000 C 
ENDBRANCH  22  24
ENDBRANCH  21  22
ENDBRANCH  20  21
ENDBRANCH  19  20
ENDBRANCH   1  19
TORSDOF 6
ENDMDL
MODEL 7
REMARK VINA RESULT:      -7.5      2.229      6.021
REMARK  Name = 
REMARK  8 active torsions:
REMARK  status: ('A' for Active; 'I' for Inactive)
REMARK    1  A    between atoms: C_1  and  C_2
REMARK    2  A    between atoms: C_2  and  C_3
REMARK    3  A    between atoms: C_2  and  O_4
REMARK    4  A    between atoms: O_4  and  C_5
REMARK    5  A    between atoms: C_5  and  C_6
REMARK    6  A    between atoms: C_6  and  C_7
REMARK    7  A    between atoms: C_7  and  N_8
REMARK    8  A    between atoms: C_9  and  C_10
REMARK                            x       y       z     vdW  Elec       q    Type
REMARK                         _______ _______ _______ _____ _____    ______ ____
ROOT
ATOM      1  N   UNL     1       5.393   4.846  17.204  0.00  0.00    +0.000 N 
ATOM      2  C   UNL     1       6.193   5.181  18.292  0.00  0.00    +0.000 A 
ATOM      3  N   UNL     1       5.628   4.710  19.385  0.00  0.00    +0.000 NA
ATOM      4  C   UNL     1       4.290   4.703  19.037  0.00  0.00    +0.000 A 
ATOM      5  N   UNL     1       3.337   4.916  19.974  0.00  0.00    +0.000 NA
ATOM      6  C   UNL     1       2.623   6.005  19.741  0.00  0.00    +0.000 A 
ATOM      7  C   UNL     1       1.862   6.481  20.813  0.00  0.00    +0.000 A 
ATOM      8  C   UNL     1       1.277   7.741  20.794  0.00  0.00    +0.000 A 
ATOM      9  C   UNL     1       1.454   8.542  19.680  0.00  0.00    +0.000 A 
ATOM     10  C   UNL     1       2.142   8.025  18.555  0.00  0.00    +0.000 A 
ATOM     11  C   UNL     1       2.702   6.744  18.525  0.00  0.00    +0.000 A 
ATOM     12  N   UNL     1       3.368   6.249  17.414  0.00  0.00    +0.000 NA
ATOM     13  C   UNL     1       4.150   5.168  17.710  0.00  0.00    +0.000 A 
ENDROOT
BRANCH   2  14
ATOM     14  C   UNL     1       7.113   6.266  18.141  0.00  0.00    +0.000 A 
ATOM     15  C   UNL     1       8.133   6.721  18.954  0.00  0.00    +0.000 A 
ATOM     16  C   UNL     1       8.542   7.978  18.439  0.00  0.00    +0.000 A 
ATOM     17  C   UNL     1       7.761   8.219  17.337  0.00  0.00    +0.000 A 
ATOM     18  O   UNL     1       6.923   7.188  17.136  0.00  0.00    +0.000 OA
ENDBRANCH   2  14
BRANCH   1  19
ATOM     19  C   UNL     1       6.052   4.128  16.136  0.00  0.00    +0.000 C 
BRANCH  19  20
ATOM     20  C   UNL     1       6.380   4.495  14.691  0.00  0.00    +0.000 C 
BRANCH  20  21
ATOM     21  C   UNL     1       5.596   3.762  13.622  0.00  0.00    +0.000 C 
BRANCH  21  22
ATOM     22  O   UNL     1       6.370   3.746  12.408  0.00  0.00    +0.000 OA
BRANCH  22  24
ATOM     23  C   UNL     1       6.005   1.533  11.473  0.00  0.00    +0.000 C 
ATOM     24  C   UNL     1       5.733   3.034  11.336  0.00  0.00    +0.000 C 
ATOM     25  C   UNL     1       4.226   3.264  11.366  0.00  0.00    +0.000 C 
ENDBRANCH  22  24
ENDBRANCH  21  22
ENDBRANCH  20  21
ENDBRANCH  19  20
ENDBRANCH   1  19
TORSDOF 6
ENDMDL
MODEL 8
REMARK VINA RESULT:      -7.2      3.569      6.930
REMARK  Name = 
REMARK  8 active torsions:
REMARK  status: ('A' for Active; 'I' for Inactive)
REMARK    1  A    between atoms: C_1  and  C_2
REMARK    2  A    between atoms: C_2  and  C_3
REMARK    3  A    between atoms: C_2  and  O_4
REMARK    4  A    between atoms: O_4  and  C_5
REMARK    5  A    between atoms: C_5  and  C_6
REMARK    6  A    between atoms: C_6  and  C_7
REMARK    7  A    between atoms: C_7  and  N_8
REMARK    8  A    between atoms: C_9  and  C_10
REMARK                            x       y       z     vdW  Elec       q    Type
REMARK                         _______ _______ _______ _____ _____    ______ ____
ROOT
ATOM      1  N   UNL     1       4.749   5.708  17.360  0.00  0.00    +0.000 N 
ATOM      2  C   UNL     1       5.597   4.732  17.872  0.00  0.00    +0.000 A 
ATOM      3  N   UNL     1       6.818   4.973  17.440  0.00  0.00    +0.000 NA
ATOM      4  C   UNL     1       6.577   5.622  16.244  0.00  0.00    +0.000 A 
ATOM      5  N   UNL     1       7.434   5.486  15.204  0.00  0.00    +0.000 NA
ATOM      6  C   UNL     1       6.875   4.916  14.149  0.00  0.00    +0.000 A 
ATOM      7  C   UNL     1       7.753   4.434  13.175  0.00  0.00    +0.000 A 
ATOM      8  C   UNL     1       7.326   3.594  12.154  0.00  0.00    +0.000 A 
ATOM      9  C   UNL     1       5.992   3.231  12.104  0.00  0.00    +0.000 A 
ATOM     10  C   UNL     1       5.083   3.795  13.032  0.00  0.00    +0.000 A 
ATOM     11  C   UNL     1       5.474   4.680  14.042  0.00  0.00    +0.000 A 
ATOM     12  N   UNL     1       4.571   5.228  14.940  0.00  0.00    +0.000 NA
ATOM     13  C   UNL     1       5.182   5.742  16.050  0.00  0.00    +0.000 A 
ENDROOT
BRANCH   2  14
ATOM     14  C   UNL     1       5.017   3.501  18.312  0.00  0.00    +0.000 A 
ATOM     15  C   UNL     1       4.054   2.688  17.745  0.00  0.00    +0.000 A 
ATOM     16  C   UNL     1       3.677   1.743  18.734  0.00  0.00    +0.000 A 
ATOM     17  C   UNL     1       4.434   2.019  19.844  0.00  0.00    +0.000 A 
ATOM     18  O   UNL     1       5.258   3.051  19.591  0.00  0.00    +0.000 OA
ENDBRANCH   2  14
BRANCH   1  19
ATOM     19  C   UNL     1       3.966   6.436  18.334  0.00  0.00    +0.000 C 
BRANCH  19  20
ATOM     20  C   UNL     1       2.491   6.379  18.726  0.00  0.00    +0.000 C 
BRANCH  20  21
ATOM     21  C   UNL     1       2.199   6.053  20.177  0.00  0.00    +0.000 C 
BRANCH  21  22
ATOM     22  O   UNL     1       2.415   4.645  20.387  0.00  0.00    +0.000 OA
BRANCH  22  24
ATOM     23  C   UNL     1       0.630   3.323  19.403  0.00  0.00    +0.000 C 
ATOM     24  C   UNL     1       1.211   3.923  20.687  0.00  0.00    +0.000 C 
ATOM     25  C   UNL     1       1.497   2.793  21.670  0.00  0.00    +0.000 C 
ENDBRANCH  22  24
ENDBRANCH  21  22
ENDBRANCH  20  21
ENDBRANCH  19  20
ENDBRANCH   1  19
TORSDOF 6
ENDMDL
MODEL 9
REMARK VINA RESULT:      -7.0      3.493      6.437
REMARK  Name = 
REMARK  8 active torsions:
REMARK  status: ('A' for Active; 'I' for Inactive)
REMARK    1  A    between atoms: C_1  and  C_2
REMARK    2  A    between atoms: C_2  and  C_3
REMARK    3  A    between atoms: C_2  and  O_4
REMARK    4  A    between atoms: O_4  and  C_5
REMARK    5  A    between atoms: C_5  and  C_6
REMARK    6  A    between atoms: C_6  and  C_7
REMARK    7  A    between atoms: C_7  and  N_8
REMARK    8  A    between atoms: C_9  and  C_10
REMARK                            x       y       z     vdW  Elec       q    Type
REMARK                         _______ _______ _______ _____ _____    ______ ____
ROOT
ATOM      1  N   UNL     1       3.050   6.403  19.357  0.00  0.00    +0.000 N 
ATOM      2  C   UNL     1       3.192   5.085  19.780  0.00  0.00    +0.000 A 
ATOM      3  N   UNL     1       4.468   4.860  20.016  0.00  0.00    +0.000 NA
ATOM      4  C   UNL     1       5.082   5.750  19.157  0.00  0.00    +0.000 A 
ATOM      5  N   UNL     1       6.279   5.451  18.599  0.00  0.00    +0.000 NA
ATOM      6  C   UNL     1       6.224   5.369  17.279  0.00  0.00    +0.000 A 
ATOM      7  C   UNL     1       7.306   4.741  16.657  0.00  0.00    +0.000 A 
ATOM      8  C   UNL     1       7.264   4.358  15.323  0.00  0.00    +0.000 A 
ATOM      9  C   UNL     1       6.116   4.609  14.593  0.00  0.00    +0.000 A 
ATOM     10  C   UNL     1       5.055   5.331  15.193  0.00  0.00    +0.000 A 
ATOM     11  C   UNL     1       5.087   5.771  16.521  0.00  0.00    +0.000 A 
ATOM     12  N   UNL     1       4.043   6.482  17.093  0.00  0.00    +0.000 NA
ATOM     13  C   UNL     1       4.096   6.482  18.459  0.00  0.00    +0.000 A 
ENDROOT
BRANCH   2  14
ATOM     14  C   UNL     1       2.151   4.160  19.456  0.00  0.00    +0.000 A 
ATOM     15  C   UNL     1       1.022   3.772  20.152  0.00  0.00    +0.000 A 
ATOM     16  C   UNL     1       0.490   2.642  19.478  0.00  0.00    +0.000 A 
ATOM     17  C   UNL     1       1.312   2.407  18.405  0.00  0.00    +0.000 A 
ATOM     18  O   UNL     1       2.291   3.327  18.369  0.00  0.00    +0.000 OA
ENDBRANCH   2  14
BRANCH   1  19
ATOM     19  C   UNL     1       2.113   7.208  20.107  0.00  0.00    +0.000 C 
BRANCH  19  20
ATOM     20  C   UNL     1       1.465   8.564  19.836  0.00  0.00    +0.000 C 
BRANCH  20  21
ATOM     21  C   UNL     1       1.672   9.136  18.449  0.00  0.00    +0.000 C 
BRANCH  21  22
ATOM     22  O   UNL     1       0.890  10.339  18.322  0.00  0.00    +0.000 OA
BRANCH  22  24
ATOM     23  C   UNL     1      -0.741  11.449  19.740  0.00  0.00    +0.000 C 
ATOM     24  C   UNL     1      -0.429  10.222  18.879  0.00  0.00    +0.000 C 
ATOM     25  C   UNL     1      -1.469  10.125  17.769  0.00  0.00    +0.000 C 
ENDBRANCH  22  24
ENDBRANCH  21  22
ENDBRANCH  20  21
ENDBRANCH  19  20
ENDBRANCH   1  19
TORSDOF 6
ENDMDL
