MODEL 1
REMARK VINA RESULT:      -7.7      0.000      0.000
REMARK  Name = 
REMARK  5 active torsions:
REMARK  status: ('A' for Active; 'I' for Inactive)
REMARK    1  A    between atoms: C_1  and  N_2
REMARK    2  A    between atoms: N_2  and  C_3
REMARK    3  A    between atoms: N_2  and  S_14
REMARK    4  A    between atoms: S_14  and  C_17
REMARK    5  A    between atoms: C_17  and  C_18
REMARK                            x       y       z     vdW  Elec       q    Type
REMARK                         _______ _______ _______ _____ _____    ______ ____
ROOT
ATOM      1  C   UNL     1       1.698   4.304  17.753  0.00  0.00    +0.000 C 
ATOM      2  N   UNL     1       2.866   5.153  18.055  0.00  0.00    +0.000 N 
ENDROOT
BRANCH   2   3
ATOM      3  C   UNL     1       2.559   6.488  18.494  0.00  0.00    +0.000 A 
ATOM      4  C   UNL     1       2.586   7.494  17.536  0.00  0.00    +0.000 A 
ATOM      5  C   UNL     1       2.150   8.777  17.858  0.00  0.00    +0.000 A 
ATOM      6  C   UNL     1       1.664   9.076  19.140  0.00  0.00    +0.000 A 
ATOM      7  C   UNL     1       1.666   8.071  20.129  0.00  0.00    +0.000 A 
ATOM      8  C   UNL     1       2.137   6.780  19.797  0.00  0.00    +0.000 A 
ATOM      9  C   UNL     1       1.164   8.353  21.528  0.00  0.00    +0.000 C 
ATOM     10  C   UNL     1      -0.308   8.794  21.583  0.00  0.00    +0.000 C 
ATOM     11  N   UNL     1      -0.553  10.202  21.255  0.00  0.00    +0.000 NA
ATOM     12  C   UNL     1      -0.323  10.506  19.841  0.00  0.00    +0.000 C 
ATOM     13  C   UNL     1       1.151  10.472  19.417  0.00  0.00    +0.000 C 
ATOM     14  H   UNL     1       0.045  10.795  21.830  0.00  0.00    +0.000 HD
ENDBRANCH   2   3
BRANCH   2  15
ATOM     15  S   UNL     1       4.204   4.394  18.813  0.00  0.00    +0.000 S 
ATOM     16  O   UNL     1       4.621   5.235  19.919  0.00  0.00    +0.000 OA
ATOM     17  O   UNL     1       3.853   3.002  19.015  0.00  0.00    +0.000 OA
BRANCH  15  18
ATOM     18  C   UNL     1       5.433   4.505  17.502  0.00  0.00    +0.000 C 
BRANCH  18  19
ATOM     19  C   UNL     1       6.341   5.692  17.717  0.00  0.00    +0.000 A 
ATOM     20  C   UNL     1       6.085   6.916  17.075  0.00  0.00    +0.000 A 
ATOM     21  C   UNL     1       6.914   8.018  17.299  0.00  0.00    +0.000 A 
ATOM     22  C   UNL     1       7.997   7.899  18.160  0.00  0.00    +0.000 A 
ATOM     23  F   UNL     1       8.791   8.956  18.373  0.00  0.00    +0.000 F 
ATOM     24  C   UNL     1       8.267   6.699  18.806  0.00  0.00    +0.000 A 
ATOM     25  C   UNL     1       7.440   5.596  18.585  0.00  0.00    +0.000 A 
ENDBRANCH  18  19
ENDBRANCH  15  18
ENDBRANCH   2  15
TORSDOF 4
ENDMDL
MODEL 2
REMARK VINA RESULT:      -7.7      1.887      2.322
REMARK  Name = 
REMARK  5 active torsions:
REMARK  status: ('A' for Active; 'I' for Inactive)
REMARK    1  A    between atoms: C_1  and  N_2
REMARK    2  A    between atoms: N_2  and  C_3
REMARK    3  A    between atoms: N_2  and  S_14
REMARK    4  A    between atoms: S_14  and  C_17
REMARK    5  A    between atoms: C_17  and  C_18
REMARK                            x       y       z     vdW  Elec       q    Type
REMARK                         _______ _______ _______ _____ _____    ______ ____
ROOT
ATOM      1  C   UNL     1       1.613   4.630  17.827  0.00  0.00    +0.000 C 
ATOM      2  N   UNL     1       2.729   5.419  18.380  0.00  0.00    +0.000 N 
ENDROOT
BRANCH   2   3
ATOM      3  C   UNL     1       2.398   6.767  18.762  0.00  0.00    +0.000 A 
ATOM      4  C   UNL     1       2.326   7.715  17.749  0.00  0.00    +0.000 A 
ATOM      5  C   UNL     1       1.862   8.999  18.026  0.00  0.00    +0.000 A 
ATOM      6  C   UNL     1       1.446   9.356  19.318  0.00  0.00    +0.000 A 
ATOM      7  C   UNL     1       1.549   8.410  20.360  0.00  0.00    +0.000 A 
ATOM      8  C   UNL     1       2.047   7.120  20.071  0.00  0.00    +0.000 A 
ATOM      9  C   UNL     1       1.126   8.757  21.771  0.00  0.00    +0.000 C 
ATOM     10  C   UNL     1      -0.356   9.148  21.896  0.00  0.00    +0.000 C 
ATOM     11  N   UNL     1      -0.676  10.525  21.505  0.00  0.00    +0.000 NA
ATOM     12  C   UNL     1      -0.547  10.754  20.064  0.00  0.00    +0.000 C 
ATOM     13  C   UNL     1       0.897  10.746  19.549  0.00  0.00    +0.000 C 
ATOM     14  H   UNL     1      -0.066  11.171  22.006  0.00  0.00    +0.000 HD
ENDBRANCH   2   3
BRANCH   2  15
ATOM     15  S   UNL     1       3.839   4.595  19.393  0.00  0.00    +0.000 S 
ATOM     16  O   UNL     1       4.942   5.496  19.666  0.00  0.00    +0.000 OA
ATOM     17  O   UNL     1       3.076   3.991  20.468  0.00  0.00    +0.000 OA
BRANCH  15  18
ATOM     18  C   UNL     1       4.407   3.301  18.278  0.00  0.00    +0.000 C 
BRANCH  18  19
ATOM     19  C   UNL     1       5.266   3.879  17.179  0.00  0.00    +0.000 A 
ATOM     20  C   UNL     1       6.575   4.316  17.446  0.00  0.00    +0.000 A 
ATOM     21  C   UNL     1       7.372   4.825  16.419  0.00  0.00    +0.000 A 
ATOM     22  C   UNL     1       6.866   4.899  15.127  0.00  0.00    +0.000 A 
ATOM     23  F   UNL     1       7.632   5.388  14.144  0.00  0.00    +0.000 F 
ATOM     24  C   UNL     1       5.576   4.470  14.842  0.00  0.00    +0.000 A 
ATOM     25  C   UNL     1       4.776   3.960  15.866  0.00  0.00    +0.000 A 
ENDBRANCH  18  19
ENDBRANCH  15  18
ENDBRANCH   2  15
TORSDOF 4
ENDMDL
MODEL 3
REMARK VINA RESULT:      -7.5      4.270      5.645
REMARK  Name = 
REMARK  5 active torsions:
REMARK  status: ('A' for Active; 'I' for Inactive)
REMARK    1  A    between atoms: C_1  and  N_2
REMARK    2  A    between atoms: N_2  and  C_3
REMARK    3  A    between atoms: N_2  and  S_14
REMARK    4  A    between atoms: S_14  and  C_17
REMARK    5  A    between atoms: C_17  and  C_18
REMARK                            x       y       z     vdW  Elec       q    Type
REMARK                         _______ _______ _______ _____ _____    ______ ____
ROOT
ATOM      1  C   UNL     1       7.152   5.625  19.113  0.00  0.00    +0.000 C 
ATOM      2  N   UNL     1       6.398   5.329  17.881  0.00  0.00    +0.000 N 
ENDROOT
BRANCH   2   3
ATOM      3  C   UNL     1       5.030   4.928  18.079  0.00  0.00    +0.000 A 
ATOM      4  C   UNL     1       4.454   4.128  17.099  0.00  0.00    +0.000 A 
ATOM      5  C   UNL     1       3.191   3.578  17.301  0.00  0.00    +0.000 A 
ATOM      6  C   UNL     1       2.483   3.805  18.492  0.00  0.00    +0.000 A 
ATOM      7  C   UNL     1       3.045   4.645  19.476  0.00  0.00    +0.000 A 
ATOM      8  C   UNL     1       4.316   5.218  19.248  0.00  0.00    +0.000 A 
ATOM      9  C   UNL     1       2.311   4.928  20.769  0.00  0.00    +0.000 C 
ATOM     10  C   UNL     1       2.022   3.671  21.607  0.00  0.00    +0.000 C 
ATOM     11  N   UNL     1       0.866   2.880  21.172  0.00  0.00    +0.000 NA
ATOM     12  C   UNL     1       1.089   2.201  19.894  0.00  0.00    +0.000 C 
ATOM     13  C   UNL     1       1.140   3.136  18.680  0.00  0.00    +0.000 C 
ATOM     14  H   UNL     1       0.049   3.485  21.095  0.00  0.00    +0.000 HD
ENDBRANCH   2   3
BRANCH   2  15
ATOM     15  S   UNL     1       6.707   6.326  16.521  0.00  0.00    +0.000 S 
ATOM     16  O   UNL     1       5.457   6.498  15.805  0.00  0.00    +0.000 OA
ATOM     17  O   UNL     1       7.472   7.466  16.987  0.00  0.00    +0.000 OA
BRANCH  15  18
ATOM     18  C   UNL     1       7.785   5.251  15.560  0.00  0.00    +0.000 C 
BRANCH  18  19
ATOM     19  C   UNL     1       7.047   4.672  14.376  0.00  0.00    +0.000 A 
ATOM     20  C   UNL     1       7.533   4.853  13.070  0.00  0.00    +0.000 A 
ATOM     21  C   UNL     1       6.860   4.292  11.982  0.00  0.00    +0.000 A 
ATOM     22  C   UNL     1       5.704   3.552  12.196  0.00  0.00    +0.000 A 
ATOM     23  F   UNL     1       5.059   3.016  11.153  0.00  0.00    +0.000 F 
ATOM     24  C   UNL     1       5.208   3.359  13.480  0.00  0.00    +0.000 A 
ATOM     25  C   UNL     1       5.879   3.917  14.570  0.00  0.00    +0.000 A 
ENDBRANCH  18  19
ENDBRANCH  15  18
ENDBRANCH   2  15
TORSDOF 4
ENDMDL
MODEL 4
REMARK VINA RESULT:      -7.4      2.868      5.923
REMARK  Name = 
REMARK  5 active torsions:
REMARK  status: ('A' for Active; 'I' for Inactive)
REMARK    1  A    between atoms: C_1  and  N_2
REMARK    2  A    between atoms: N_2  and  C_3
REMARK    3  A    between atoms: N_2  and  S_14
REMARK    4  A    between atoms: S_14  and  C_17
REMARK    5  A    between atoms: C_17  and  C_18
REMARK                            x       y       z     vdW  Elec       q    Type
REMARK                         _______ _______ _______ _____ _____    ______ ____
ROOT
ATOM      1  C   UNL     1       2.559   1.431  19.231  0.00  0.00    +0.000 C 
ATOM      2  N   UNL     1       2.991   2.823  19.454  0.00  0.00    +0.000 N 
ENDROOT
BRANCH   2   3
ATOM      3  C   UNL     1       4.008   3.303  18.556  0.00  0.00    +0.000 A 
ATOM      4  C   UNL     1       3.717   3.282  17.197  0.00  0.00    +0.000 A 
ATOM      5  C   UNL     1       4.591   3.873  16.288  0.00  0.00    +0.000 A 
ATOM      6  C   UNL     1       5.766   4.508  16.719  0.00  0.00    +0.000 A 
ATOM      7  C   UNL     1       6.087   4.502  18.092  0.00  0.00    +0.000 A 
ATOM      8  C   UNL     1       5.205   3.876  19.002  0.00  0.00    +0.000 A 
ATOM      9  C   UNL     1       7.350   5.162  18.600  0.00  0.00    +0.000 C 
ATOM     10  C   UNL     1       7.425   6.669  18.304  0.00  0.00    +0.000 C 
ATOM     11  N   UNL     1       7.839   7.020  16.941  0.00  0.00    +0.000 NA
ATOM     12  C   UNL     1       6.828   6.685  15.935  0.00  0.00    +0.000 C 
ATOM     13  C   UNL     1       6.650   5.181  15.693  0.00  0.00    +0.000 C 
ATOM     14  H   UNL     1       8.711   6.542  16.716  0.00  0.00    +0.000 HD
ENDBRANCH   2   3
BRANCH   2  15
ATOM     15  S   UNL     1       1.780   3.952  19.900  0.00  0.00    +0.000 S 
ATOM     16  O   UNL     1       1.099   4.372  18.689  0.00  0.00    +0.000 OA
ATOM     17  O   UNL     1       1.050   3.382  21.015  0.00  0.00    +0.000 OA
BRANCH  15  18
ATOM     18  C   UNL     1       2.797   5.311  20.497  0.00  0.00    +0.000 C 
BRANCH  18  19
ATOM     19  C   UNL     1       2.533   6.568  19.704  0.00  0.00    +0.000 A 
ATOM     20  C   UNL     1       3.085   6.738  18.423  0.00  0.00    +0.000 A 
ATOM     21  C   UNL     1       2.814   7.893  17.685  0.00  0.00    +0.000 A 
ATOM     22  C   UNL     1       1.995   8.877  18.223  0.00  0.00    +0.000 A 
ATOM     23  F   UNL     1       1.737   9.983  17.515  0.00  0.00    +0.000 F 
ATOM     24  C   UNL     1       1.438   8.728  19.488  0.00  0.00    +0.000 A 
ATOM     25  C   UNL     1       1.706   7.574  20.228  0.00  0.00    +0.000 A 
ENDBRANCH  18  19
ENDBRANCH  15  18
ENDBRANCH   2  15
TORSDOF 4
ENDMDL
MODEL 5
REMARK VINA RESULT:      -7.3      2.052      2.487
REMARK  Name = 
REMARK  5 active torsions:
REMARK  status: ('A' for Active; 'I' for Inactive)
REMARK    1  A    between atoms: C_1  and  N_2
REMARK    2  A    between atoms: N_2  and  C_3
REMARK    3  A    between atoms: N_2  and  S_14
REMARK    4  A    between atoms: S_14  and  C_17
REMARK    5  A    between atoms: C_17  and  C_18
REMARK                            x       y       z     vdW  Elec       q    Type
REMARK                         _______ _______ _______ _____ _____    ______ ____
ROOT
ATOM      1  C   UNL     1       2.158   4.267  21.303  0.00  0.00    +0.000 C 
ATOM      2  N   UNL     1       2.418   4.683  19.913  0.00  0.00    +0.000 N 
ENDROOT
BRANCH   2   3
ATOM      3  C   UNL     1       2.257   6.089  19.651  0.00  0.00    +0.000 A 
ATOM      4  C   UNL     1       2.343   6.503  18.327  0.00  0.00    +0.000 A 
ATOM      5  C   UNL     1       2.044   7.820  17.987  0.00  0.00    +0.000 A 
ATOM      6  C   UNL     1       1.640   8.746  18.961  0.00  0.00    +0.000 A 
ATOM      7  C   UNL     1       1.585   8.344  20.311  0.00  0.00    +0.000 A 
ATOM      8  C   UNL     1       1.916   7.012  20.647  0.00  0.00    +0.000 A 
ATOM      9  C   UNL     1       1.167   9.313  21.396  0.00  0.00    +0.000 C 
ATOM     10  C   UNL     1      -0.253   9.874  21.214  0.00  0.00    +0.000 C 
ATOM     11  N   UNL     1      -0.375  10.969  20.246  0.00  0.00    +0.000 NA
ATOM     12  C   UNL     1      -0.172  10.531  18.863  0.00  0.00    +0.000 C 
ATOM     13  C   UNL     1       1.273  10.147  18.526  0.00  0.00    +0.000 C 
ATOM     14  H   UNL     1       0.299  11.700  20.472  0.00  0.00    +0.000 HD
ENDBRANCH   2   3
BRANCH   2  15
ATOM     15  S   UNL     1       3.707   3.902  19.095  0.00  0.00    +0.000 S 
ATOM     16  O   UNL     1       4.276   2.922  20.001  0.00  0.00    +0.000 OA
ATOM     17  O   UNL     1       3.218   3.521  17.784  0.00  0.00    +0.000 OA
BRANCH  15  18
ATOM     18  C   UNL     1       4.863   5.269  18.915  0.00  0.00    +0.000 C 
BRANCH  18  19
ATOM     19  C   UNL     1       5.558   5.212  17.575  0.00  0.00    +0.000 A 
ATOM     20  C   UNL     1       6.788   4.547  17.433  0.00  0.00    +0.000 A 
ATOM     21  C   UNL     1       7.412   4.475  16.186  0.00  0.00    +0.000 A 
ATOM     22  C   UNL     1       6.810   5.066  15.081  0.00  0.00    +0.000 A 
ATOM     23  F   UNL     1       7.410   4.998  13.886  0.00  0.00    +0.000 F 
ATOM     24  C   UNL     1       5.593   5.727  15.200  0.00  0.00    +0.000 A 
ATOM     25  C   UNL     1       4.967   5.799  16.446  0.00  0.00    +0.000 A 
ENDBRANCH  18  19
ENDBRANCH  15  18
ENDBRANCH   2  15
TORSDOF 4
ENDMDL
MODEL 6
REMARK VINA RESULT:      -7.2      3.195      4.890
REMARK  Name = 
REMARK  5 active torsions:
REMARK  status: ('A' for Active; 'I' for Inactive)
REMARK    1  A    between atoms: C_1  and  N_2
REMARK    2  A    between atoms: N_2  and  C_3
REMARK    3  A    between atoms: N_2  and  S_14
REMARK    4  A    between atoms: S_14  and  C_17
REMARK    5  A    between atoms: C_17  and  C_18
REMARK                            x       y       z     vdW  Elec       q    Type
REMARK                         _______ _______ _______ _____ _____    ______ ____
ROOT
ATOM      1  C   UNL     1       5.580   6.054  18.099  0.00  0.00    +0.000 C 
ATOM      2  N   UNL     1       4.248   5.445  18.269  0.00  0.00    +0.000 N 
ENDROOT
BRANCH   2   3
ATOM      3  C   UNL     1       3.216   6.340  18.724  0.00  0.00    +0.000 A 
ATOM      4  C   UNL     1       2.694   6.116  19.993  0.00  0.00    +0.000 A 
ATOM      5  C   UNL     1       1.809   7.032  20.554  0.00  0.00    +0.000 A 
ATOM      6  C   UNL     1       1.439   8.198  19.867  0.00  0.00    +0.000 A 
ATOM      7  C   UNL     1       1.936   8.416  18.565  0.00  0.00    +0.000 A 
ATOM      8  C   UNL     1       2.813   7.465  17.995  0.00  0.00    +0.000 A 
ATOM      9  C   UNL     1       1.551   9.652  17.782  0.00  0.00    +0.000 C 
ATOM     10  C   UNL     1       1.962  10.970  18.461  0.00  0.00    +0.000 C 
ATOM     11  N   UNL     1       1.073  11.424  19.535  0.00  0.00    +0.000 NA
ATOM     12  C   UNL     1       1.139  10.575  20.727  0.00  0.00    +0.000 C 
ATOM     13  C   UNL     1       0.518   9.185  20.549  0.00  0.00    +0.000 C 
ATOM     14  H   UNL     1       0.113  11.453  19.193  0.00  0.00    +0.000 HD
ENDBRANCH   2   3
BRANCH   2  15
ATOM     15  S   UNL     1       3.776   4.269  17.115  0.00  0.00    +0.000 S 
ATOM     16  O   UNL     1       2.348   4.408  16.900  0.00  0.00    +0.000 OA
ATOM     17  O   UNL     1       4.714   4.346  16.012  0.00  0.00    +0.000 OA
BRANCH  15  18
ATOM     18  C   UNL     1       4.082   2.756  18.040  0.00  0.00    +0.000 C 
BRANCH  18  19
ATOM     19  C   UNL     1       3.172   2.669  19.242  0.00  0.00    +0.000 A 
ATOM     20  C   UNL     1       3.704   2.598  20.541  0.00  0.00    +0.000 A 
ATOM     21  C   UNL     1       2.856   2.544  21.649  0.00  0.00    +0.000 A 
ATOM     22  C   UNL     1       1.479   2.560  21.464  0.00  0.00    +0.000 A 
ATOM     23  F   UNL     1       0.668   2.507  22.527  0.00  0.00    +0.000 F 
ATOM     24  C   UNL     1       0.933   2.631  20.188  0.00  0.00    +0.000 A 
ATOM     25  C   UNL     1       1.778   2.686  19.078  0.00  0.00    +0.000 A 
ENDBRANCH  18  19
ENDBRANCH  15  18
ENDBRANCH   2  15
TORSDOF 4
ENDMDL
MODEL 7
REMARK VINA RESULT:      -7.2      2.183      2.418
REMARK  Name = 
REMARK  5 active torsions:
REMARK  status: ('A' for Active; 'I' for Inactive)
REMARK    1  A    between atoms: C_1  and  N_2
REMARK    2  A    between atoms: N_2  and  C_3
REMARK    3  A    between atoms: N_2  and  S_14
REMARK    4  A    between atoms: S_14  and  C_17
REMARK    5  A    between atoms: C_17  and  C_18
REMARK                            x       y       z     vdW  Elec       q    Type
REMARK                         _______ _______ _______ _____ _____    ______ ____
ROOT
ATOM      1  C   UNL     1       1.853   4.301  20.929  0.00  0.00    +0.000 C 
ATOM      2  N   UNL     1       2.420   4.900  19.707  0.00  0.00    +0.000 N 
ENDROOT
BRANCH   2   3
ATOM      3  C   UNL     1       2.241   6.322  19.578  0.00  0.00    +0.000 A 
ATOM      4  C   UNL     1       2.378   6.868  18.307  0.00  0.00    +0.000 A 
ATOM      5  C   UNL     1       2.066   8.207  18.086  0.00  0.00    +0.000 A 
ATOM      6  C   UNL     1       1.597   9.024  19.126  0.00  0.00    +0.000 A 
ATOM      7  C   UNL     1       1.489   8.487  20.426  0.00  0.00    +0.000 A 
ATOM      8  C   UNL     1       1.834   7.134  20.644  0.00  0.00    +0.000 A 
ATOM      9  C   UNL     1       1.001   9.336  21.580  0.00  0.00    +0.000 C 
ATOM     10  C   UNL     1      -0.422   9.887  21.387  0.00  0.00    +0.000 C 
ATOM     11  N   UNL     1      -0.523  11.071  20.528  0.00  0.00    +0.000 NA
ATOM     12  C   UNL     1      -0.248  10.778  19.119  0.00  0.00    +0.000 C 
ATOM     13  C   UNL     1       1.220  10.455  18.815  0.00  0.00    +0.000 C 
ATOM     14  H   UNL     1       0.123  11.788  20.857  0.00  0.00    +0.000 HD
ENDBRANCH   2   3
BRANCH   2  15
ATOM     15  S   UNL     1       3.916   4.271  19.154  0.00  0.00    +0.000 S 
ATOM     16  O   UNL     1       4.883   5.353  19.168  0.00  0.00    +0.000 OA
ATOM     17  O   UNL     1       4.158   3.036  19.874  0.00  0.00    +0.000 OA
BRANCH  15  18
ATOM     18  C   UNL     1       3.502   3.883  17.446  0.00  0.00    +0.000 C 
BRANCH  18  19
ATOM     19  C   UNL     1       4.616   4.300  16.516  0.00  0.00    +0.000 A 
ATOM     20  C   UNL     1       4.789   5.649  16.163  0.00  0.00    +0.000 A 
ATOM     21  C   UNL     1       5.837   6.031  15.323  0.00  0.00    +0.000 A 
ATOM     22  C   UNL     1       6.712   5.068  14.834  0.00  0.00    +0.000 A 
ATOM     23  F   UNL     1       7.715   5.435  14.028  0.00  0.00    +0.000 F 
ATOM     24  C   UNL     1       6.559   3.729  15.172  0.00  0.00    +0.000 A 
ATOM     25  C   UNL     1       5.512   3.344  16.012  0.00  0.00    +0.000 A 
ENDBRANCH  18  19
ENDBRANCH  15  18
ENDBRANCH   2  15
TORSDOF 4
ENDMDL
MODEL 8
REMARK VINA RESULT:      -7.1      3.889      5.177
REMARK  Name = 
REMARK  5 active torsions:
REMARK  status: ('A' for Active; 'I' for Inactive)
REMARK    1  A    between atoms: C_1  and  N_2
REMARK    2  A    between atoms: N_2  and  C_3
REMARK    3  A    between atoms: N_2  and  S_14
REMARK    4  A    between atoms: S_14  and  C_17
REMARK    5  A    between atoms: C_17  and  C_18
REMARK                            x       y       z     vdW  Elec       q    Type
REMARK                         _______ _______ _______ _____ _____    ______ ____
ROOT
ATOM      1  C   UNL     1       4.890   6.974  15.610  0.00  0.00    +0.000 C 
ATOM      2  N   UNL     1       5.091   6.425  16.964  0.00  0.00    +0.000 N 
ENDROOT
BRANCH   2   3
ATOM      3  C   UNL     1       4.018   5.604  17.461  0.00  0.00    +0.000 A 
ATOM      4  C   UNL     1       3.679   4.482  16.714  0.00  0.00    +0.000 A 
ATOM      5  C   UNL     1       2.759   3.564  17.214  0.00  0.00    +0.000 A 
ATOM      6  C   UNL     1       2.172   3.740  18.477  0.00  0.00    +0.000 A 
ATOM      7  C   UNL     1       2.484   4.894  19.225  0.00  0.00    +0.000 A 
ATOM      8  C   UNL     1       3.398   5.832  18.695  0.00  0.00    +0.000 A 
ATOM      9  C   UNL     1       1.862   5.131  20.585  0.00  0.00    +0.000 C 
ATOM     10  C   UNL     1       2.185   4.036  21.614  0.00  0.00    +0.000 C 
ATOM     11  N   UNL     1       1.378   2.816  21.504  0.00  0.00    +0.000 NA
ATOM     12  C   UNL     1       1.686   2.035  20.304  0.00  0.00    +0.000 C 
ATOM     13  C   UNL     1       1.223   2.682  18.993  0.00  0.00    +0.000 C 
ATOM     14  H   UNL     1       0.389   3.061  21.504  0.00  0.00    +0.000 HD
ENDBRANCH   2   3
BRANCH   2  15
ATOM     15  S   UNL     1       6.679   5.928  17.374  0.00  0.00    +0.000 S 
ATOM     16  O   UNL     1       7.609   6.801  16.683  0.00  0.00    +0.000 OA
ATOM     17  O   UNL     1       6.723   5.770  18.815  0.00  0.00    +0.000 OA
BRANCH  15  18
ATOM     18  C   UNL     1       6.726   4.301  16.604  0.00  0.00    +0.000 C 
BRANCH  18  19
ATOM     19  C   UNL     1       6.871   4.421  15.106  0.00  0.00    +0.000 A 
ATOM     20  C   UNL     1       7.863   5.243  14.544  0.00  0.00    +0.000 A 
ATOM     21  C   UNL     1       8.008   5.328  13.158  0.00  0.00    +0.000 A 
ATOM     22  C   UNL     1       7.165   4.596  12.332  0.00  0.00    +0.000 A 
ATOM     23  F   UNL     1       7.304   4.679  11.003  0.00  0.00    +0.000 F 
ATOM     24  C   UNL     1       6.179   3.776  12.867  0.00  0.00    +0.000 A 
ATOM     25  C   UNL     1       6.032   3.688  14.253  0.00  0.00    +0.000 A 
ENDBRANCH  18  19
ENDBRANCH  15  18
ENDBRANCH   2  15
TORSDOF 4
ENDMDL
MODEL 9
REMARK VINA RESULT:      -7.1      2.982      4.637
REMARK  Name = 
REMARK  5 active torsions:
REMARK  status: ('A' for Active; 'I' for Inactive)
REMARK    1  A    between atoms: C_1  and  N_2
REMARK    2  A    between atoms: N_2  and  C_3
REMARK    3  A    between atoms: N_2  and  S_14
REMARK    4  A    between atoms: S_14  and  C_17
REMARK    5  A    between atoms: C_17  and  C_18
REMARK                            x       y       z     vdW  Elec       q    Type
REMARK                         _______ _______ _______ _____ _____    ______ ____
ROOT
ATOM      1  C   UNL     1       5.415   6.583  15.853  0.00  0.00    +0.000 C 
ATOM      2  N   UNL     1       5.400   6.120  17.254  0.00  0.00    +0.000 N 
ENDROOT
BRANCH   2   3
ATOM      3  C   UNL     1       4.224   6.471  18.005  0.00  0.00    +0.000 A 
ATOM      4  C   UNL     1       4.056   5.865  19.244  0.00  0.00    +0.000 A 
ATOM      5  C   UNL     1       3.026   6.274  20.087  0.00  0.00    +0.000 A 
ATOM      6  C   UNL     1       2.151   7.307  19.714  0.00  0.00    +0.000 A 
ATOM      7  C   UNL     1       2.292   7.902  18.444  0.00  0.00    +0.000 A 
ATOM      8  C   UNL     1       3.325   7.460  17.587  0.00  0.00    +0.000 A 
ATOM      9  C   UNL     1       1.362   9.009  17.995  0.00  0.00    +0.000 C 
ATOM     10  C   UNL     1       1.403  10.256  18.894  0.00  0.00    +0.000 C 
ATOM     11  N   UNL     1       0.625  10.161  20.134  0.00  0.00    +0.000 NA
ATOM     12  C   UNL     1       1.202   9.222  21.098  0.00  0.00    +0.000 C 
ATOM     13  C   UNL     1       1.086   7.747  20.693  0.00  0.00    +0.000 C 
ATOM     14  H   UNL     1      -0.330   9.878  19.915  0.00  0.00    +0.000 HD
ENDBRANCH   2   3
BRANCH   2  15
ATOM     15  S   UNL     1       6.068   4.573  17.570  0.00  0.00    +0.000 S 
ATOM     16  O   UNL     1       7.397   4.538  16.989  0.00  0.00    +0.000 OA
ATOM     17  O   UNL     1       5.853   4.290  18.976  0.00  0.00    +0.000 OA
BRANCH  15  18
ATOM     18  C   UNL     1       4.975   3.533  16.588  0.00  0.00    +0.000 C 
BRANCH  18  19
ATOM     19  C   UNL     1       3.709   3.217  17.348  0.00  0.00    +0.000 A 
ATOM     20  C   UNL     1       3.702   2.234  18.353  0.00  0.00    +0.000 A 
ATOM     21  C   UNL     1       2.534   1.965  19.069  0.00  0.00    +0.000 A 
ATOM     22  C   UNL     1       1.374   2.675  18.785  0.00  0.00    +0.000 A 
ATOM     23  F   UNL     1       0.255   2.415  19.472  0.00  0.00    +0.000 F 
ATOM     24  C   UNL     1       1.361   3.652  17.797  0.00  0.00    +0.000 A 
ATOM     25  C   UNL     1       2.527   3.924  17.079  0.00  0.00    +0.000 A 
ENDBRANCH  18  19
ENDBRANCH  15  18
ENDBRANCH   2  15
TORSDOF 4
ENDMDL
