MODEL 1
REMARK VINA RESULT:      -7.7      0.000      0.000
REMARK  Name = 
REMARK  6 active torsions:
REMARK  status: ('A' for Active; 'I' for Inactive)
REMARK    1  A    between atoms: C_1  and  O_2
REMARK    2  A    between atoms: O_2  and  C_3
REMARK    3  A    between atoms: C_3  and  C_5
REMARK    4  A    between atoms: C_6  and  C_7
REMARK    5  A    between atoms: C_13  and  C_14
REMARK    6  A    between atoms: N_20  and  C_21
REMARK                            x       y       z     vdW  Elec       q    Type
REMARK                         _______ _______ _______ _____ _____    ______ ____
ROOT
ATOM      1  C   UNL     1       3.110   5.655  19.859  0.00  0.00    +0.000 C 
ATOM      2  C   UNL     1       1.877   4.712  20.179  0.00  0.00    +0.000 C 
ATOM      3  C   UNL     1       2.014   3.842  21.462  0.00  0.00    +0.000 C 
ATOM      4  C   UNL     1       2.442   2.441  20.968  0.00  0.00    +0.000 C 
ATOM      5  C   UNL     1       2.927   2.740  19.551  0.00  0.00    +0.000 C 
ATOM      6  C   UNL     1       4.317   3.450  19.659  0.00  0.00    +0.000 C 
ATOM      7  C   UNL     1       4.193   4.850  19.065  0.00  0.00    +0.000 C 
ATOM      8  N   UNL     1       1.778   3.601  19.229  0.00  0.00    +0.000 NA
ATOM      9  C   UNL     1       1.396   3.867  17.863  0.00  0.00    +0.000 C 
ENDROOT
BRANCH   7  10
ATOM     10  C   UNL     1       5.480   5.499  18.587  0.00  0.00    +0.000 A 
ATOM     11  C   UNL     1       5.374   6.305  17.430  0.00  0.00    +0.000 A 
ATOM     12  C   UNL     1       6.423   7.106  16.996  0.00  0.00    +0.000 A 
ATOM     13  C   UNL     1       7.621   7.090  17.692  0.00  0.00    +0.000 A 
ATOM     14  C   UNL     1       7.765   6.255  18.807  0.00  0.00    +0.000 A 
ATOM     15  C   UNL     1       6.700   5.458  19.256  0.00  0.00    +0.000 A 
ENDBRANCH   7  10
BRANCH   1  17
ATOM     16  C   UNL     1       2.042   7.940  19.363  0.00  0.00    +0.000 C 
ATOM     17  C   UNL     1       2.649   6.808  18.987  0.00  0.00    +0.000 C 
BRANCH  16  18
ATOM     18  C   UNL     1       1.751   8.937  18.306  0.00  0.00    +0.000 C 
ATOM     19  O   UNL     1       2.346   9.035  17.248  0.00  0.00    +0.000 OA
BRANCH  18  21
ATOM     20  C   UNL     1       0.533   9.693  20.128  0.00  0.00    +0.000 C 
ATOM     21  O   UNL     1       0.711   9.719  18.712  0.00  0.00    +0.000 OA
ENDBRANCH  18  21
ENDBRANCH  16  18
ENDBRANCH   1  17
TORSDOF 4
ENDMDL
MODEL 2
REMARK VINA RESULT:      -7.7      2.652      5.373
REMARK  Name = 
REMARK  6 active torsions:
REMARK  status: ('A' for Active; 'I' for Inactive)
REMARK    1  A    between atoms: C_1  and  O_2
REMARK    2  A    between atoms: O_2  and  C_3
REMARK    3  A    between atoms: C_3  and  C_5
REMARK    4  A    between atoms: C_6  and  C_7
REMARK    5  A    between atoms: C_13  and  C_14
REMARK    6  A    between atoms: N_20  and  C_21
REMARK                            x       y       z     vdW  Elec       q    Type
REMARK                         _______ _______ _______ _____ _____    ______ ____
ROOT
ATOM      1  C   UNL     1       4.064   5.595  19.430  0.00  0.00    +0.000 C 
ATOM      2  C   UNL     1       5.116   4.593  18.797  0.00  0.00    +0.000 C 
ATOM      3  C   UNL     1       6.569   5.137  18.674  0.00  0.00    +0.000 C 
ATOM      4  C   UNL     1       6.718   5.590  17.204  0.00  0.00    +0.000 C 
ATOM      5  C   UNL     1       5.264   5.678  16.750  0.00  0.00    +0.000 C 
ATOM      6  C   UNL     1       4.637   6.962  17.390  0.00  0.00    +0.000 C 
ATOM      7  C   UNL     1       3.500   6.538  18.314  0.00  0.00    +0.000 C 
ATOM      8  N   UNL     1       4.887   4.395  17.363  0.00  0.00    +0.000 NA
ATOM      9  C   UNL     1       3.721   3.664  16.926  0.00  0.00    +0.000 C 
ENDROOT
BRANCH   7  10
ATOM     10  C   UNL     1       2.443   7.586  18.612  0.00  0.00    +0.000 A 
ATOM     11  C   UNL     1       2.008   7.662  19.955  0.00  0.00    +0.000 A 
ATOM     12  C   UNL     1       1.193   8.694  20.404  0.00  0.00    +0.000 A 
ATOM     13  C   UNL     1       0.761   9.656  19.506  0.00  0.00    +0.000 A 
ATOM     14  C   UNL     1       1.133   9.567  18.159  0.00  0.00    +0.000 A 
ATOM     15  C   UNL     1       1.971   8.535  17.708  0.00  0.00    +0.000 A 
ENDBRANCH   7  10
BRANCH   1  17
ATOM     16  C   UNL     1       2.894   3.537  20.431  0.00  0.00    +0.000 C 
ATOM     17  C   UNL     1       2.903   4.806  20.009  0.00  0.00    +0.000 C 
BRANCH  16  18
ATOM     18  C   UNL     1       1.631   3.025  21.014  0.00  0.00    +0.000 C 
ATOM     19  O   UNL     1       1.514   2.541  22.125  0.00  0.00    +0.000 OA
BRANCH  18  21
ATOM     20  C   UNL     1       0.780   2.337  18.969  0.00  0.00    +0.000 C 
ATOM     21  O   UNL     1       0.628   3.189  20.105  0.00  0.00    +0.000 OA
ENDBRANCH  18  21
ENDBRANCH  16  18
ENDBRANCH   1  17
TORSDOF 4
ENDMDL
MODEL 3
REMARK VINA RESULT:      -7.7      2.180      4.665
REMARK  Name = 
REMARK  6 active torsions:
REMARK  status: ('A' for Active; 'I' for Inactive)
REMARK    1  A    between atoms: C_1  and  O_2
REMARK    2  A    between atoms: O_2  and  C_3
REMARK    3  A    between atoms: C_3  and  C_5
REMARK    4  A    between atoms: C_6  and  C_7
REMARK    5  A    between atoms: C_13  and  C_14
REMARK    6  A    between atoms: N_20  and  C_21
REMARK                            x       y       z     vdW  Elec       q    Type
REMARK                         _______ _______ _______ _____ _____    ______ ____
ROOT
ATOM      1  C   UNL     1       3.116   4.770  17.603  0.00  0.00    +0.000 C 
ATOM      2  C   UNL     1       3.412   3.227  17.816  0.00  0.00    +0.000 C 
ATOM      3  C   UNL     1       2.180   2.286  17.690  0.00  0.00    +0.000 C 
ATOM      4  C   UNL     1       1.734   1.990  19.140  0.00  0.00    +0.000 C 
ATOM      5  C   UNL     1       2.439   3.097  19.920  0.00  0.00    +0.000 C 
ATOM      6  C   UNL     1       1.679   4.437  19.647  0.00  0.00    +0.000 C 
ATOM      7  C   UNL     1       2.633   5.403  18.951  0.00  0.00    +0.000 C 
ATOM      8  N   UNL     1       3.719   2.919  19.216  0.00  0.00    +0.000 NA
ATOM      9  C   UNL     1       4.963   3.377  19.787  0.00  0.00    +0.000 C 
ENDROOT
BRANCH   7  10
ATOM     10  C   UNL     1       2.305   6.881  19.068  0.00  0.00    +0.000 A 
ATOM     11  C   UNL     1       2.353   7.622  17.866  0.00  0.00    +0.000 A 
ATOM     12  C   UNL     1       1.894   8.932  17.793  0.00  0.00    +0.000 A 
ATOM     13  C   UNL     1       1.408   9.544  18.937  0.00  0.00    +0.000 A 
ATOM     14  C   UNL     1       1.405   8.846  20.150  0.00  0.00    +0.000 A 
ATOM     15  C   UNL     1       1.853   7.517  20.221  0.00  0.00    +0.000 A 
ENDBRANCH   7  10
BRANCH   1  17
ATOM     16  C   UNL     1       5.428   4.976  16.496  0.00  0.00    +0.000 C 
ATOM     17  C   UNL     1       4.395   5.474  17.186  0.00  0.00    +0.000 C 
BRANCH  16  18
ATOM     18  C   UNL     1       6.535   5.904  16.169  0.00  0.00    +0.000 C 
ATOM     19  O   UNL     1       7.470   5.651  15.431  0.00  0.00    +0.000 OA
BRANCH  18  21
ATOM     20  C   UNL     1       7.507   7.536  17.500  0.00  0.00    +0.000 C 
ATOM     21  O   UNL     1       6.333   7.081  16.826  0.00  0.00    +0.000 OA
ENDBRANCH  18  21
ENDBRANCH  16  18
ENDBRANCH   1  17
TORSDOF 4
ENDMDL
MODEL 4
REMARK VINA RESULT:      -7.6      2.303      4.911
REMARK  Name = 
REMARK  6 active torsions:
REMARK  status: ('A' for Active; 'I' for Inactive)
REMARK    1  A    between atoms: C_1  and  O_2
REMARK    2  A    between atoms: O_2  and  C_3
REMARK    3  A    between atoms: C_3  and  C_5
REMARK    4  A    between atoms: C_6  and  C_7
REMARK    5  A    between atoms: C_13  and  C_14
REMARK    6  A    between atoms: N_20  and  C_21
REMARK                            x       y       z     vdW  Elec       q    Type
REMARK                         _______ _______ _______ _____ _____    ______ ____
ROOT
ATOM      1  C   UNL     1       3.174   4.870  17.661  0.00  0.00    +0.000 C 
ATOM      2  C   UNL     1       3.457   3.320  17.828  0.00  0.00    +0.000 C 
ATOM      3  C   UNL     1       2.241   2.385  17.566  0.00  0.00    +0.000 C 
ATOM      4  C   UNL     1       1.686   2.025  18.963  0.00  0.00    +0.000 C 
ATOM      5  C   UNL     1       2.325   3.096  19.843  0.00  0.00    +0.000 C 
ATOM      6  C   UNL     1       1.584   4.446  19.572  0.00  0.00    +0.000 C 
ATOM      7  C   UNL     1       2.585   5.443  18.995  0.00  0.00    +0.000 C 
ATOM      8  N   UNL     1       3.656   2.949  19.233  0.00  0.00    +0.000 NA
ATOM      9  C   UNL     1       4.851   3.382  19.918  0.00  0.00    +0.000 C 
ENDROOT
BRANCH   7  10
ATOM     10  C   UNL     1       2.244   6.914  19.151  0.00  0.00    +0.000 A 
ATOM     11  C   UNL     1       2.260   7.682  17.965  0.00  0.00    +0.000 A 
ATOM     12  C   UNL     1       1.785   8.988  17.931  0.00  0.00    +0.000 A 
ATOM     13  C   UNL     1       1.317   9.569  19.098  0.00  0.00    +0.000 A 
ATOM     14  C   UNL     1       1.346   8.845  20.295  0.00  0.00    +0.000 A 
ATOM     15  C   UNL     1       1.809   7.520  20.328  0.00  0.00    +0.000 A 
ENDBRANCH   7  10
BRANCH   1  17
ATOM     16  C   UNL     1       5.386   5.321  16.432  0.00  0.00    +0.000 C 
ATOM     17  C   UNL     1       4.478   5.592  17.376  0.00  0.00    +0.000 C 
BRANCH  16  18
ATOM     18  C   UNL     1       6.553   6.228  16.331  0.00  0.00    +0.000 C 
ATOM     19  O   UNL     1       6.673   7.287  16.920  0.00  0.00    +0.000 OA
BRANCH  18  21
ATOM     20  C   UNL     1       6.926   4.585  14.738  0.00  0.00    +0.000 C 
ATOM     21  O   UNL     1       7.464   5.682  15.477  0.00  0.00    +0.000 OA
ENDBRANCH  18  21
ENDBRANCH  16  18
ENDBRANCH   1  17
TORSDOF 4
ENDMDL
MODEL 5
REMARK VINA RESULT:      -7.5      0.393      1.115
REMARK  Name = 
REMARK  6 active torsions:
REMARK  status: ('A' for Active; 'I' for Inactive)
REMARK    1  A    between atoms: C_1  and  O_2
REMARK    2  A    between atoms: O_2  and  C_3
REMARK    3  A    between atoms: C_3  and  C_5
REMARK    4  A    between atoms: C_6  and  C_7
REMARK    5  A    between atoms: C_13  and  C_14
REMARK    6  A    between atoms: N_20  and  C_21
REMARK                            x       y       z     vdW  Elec       q    Type
REMARK                         _______ _______ _______ _____ _____    ______ ____
ROOT
ATOM      1  C   UNL     1       2.883   5.691  19.836  0.00  0.00    +0.000 C 
ATOM      2  C   UNL     1       1.690   4.673  20.070  0.00  0.00    +0.000 C 
ATOM      3  C   UNL     1       1.849   3.725  21.293  0.00  0.00    +0.000 C 
ATOM      4  C   UNL     1       2.350   2.382  20.715  0.00  0.00    +0.000 C 
ATOM      5  C   UNL     1       2.841   2.798  19.330  0.00  0.00    +0.000 C 
ATOM      6  C   UNL     1       4.194   3.562  19.510  0.00  0.00    +0.000 C 
ATOM      7  C   UNL     1       4.014   4.992  19.009  0.00  0.00    +0.000 C 
ATOM      8  N   UNL     1       1.658   3.625  19.046  0.00  0.00    +0.000 NA
ATOM      9  C   UNL     1       1.284   3.966  17.694  0.00  0.00    +0.000 C 
ENDROOT
BRANCH   7  10
ATOM     10  C   UNL     1       5.275   5.730  18.598  0.00  0.00    +0.000 A 
ATOM     11  C   UNL     1       6.438   5.432  19.345  0.00  0.00    +0.000 A 
ATOM     12  C   UNL     1       7.693   5.886  18.959  0.00  0.00    +0.000 A 
ATOM     13  C   UNL     1       7.809   6.684  17.832  0.00  0.00    +0.000 A 
ATOM     14  C   UNL     1       6.662   7.038  17.112  0.00  0.00    +0.000 A 
ATOM     15  C   UNL     1       5.395   6.566  17.490  0.00  0.00    +0.000 A 
ENDBRANCH   7  10
BRANCH   1  17
ATOM     16  C   UNL     1       1.978   8.072  19.486  0.00  0.00    +0.000 C 
ATOM     17  C   UNL     1       2.381   6.878  19.035  0.00  0.00    +0.000 C 
BRANCH  16  18
ATOM     18  C   UNL     1       1.590   9.084  18.476  0.00  0.00    +0.000 C 
ATOM     19  O   UNL     1       2.150   9.263  17.409  0.00  0.00    +0.000 OA
BRANCH  18  21
ATOM     20  C   UNL     1       0.878  10.869  19.773  0.00  0.00    +0.000 C 
ATOM     21  O   UNL     1       0.508   9.773  18.936  0.00  0.00    +0.000 OA
ENDBRANCH  18  21
ENDBRANCH  16  18
ENDBRANCH   1  17
TORSDOF 4
ENDMDL
MODEL 6
REMARK VINA RESULT:      -7.5      1.958      4.671
REMARK  Name = 
REMARK  6 active torsions:
REMARK  status: ('A' for Active; 'I' for Inactive)
REMARK    1  A    between atoms: C_1  and  O_2
REMARK    2  A    between atoms: O_2  and  C_3
REMARK    3  A    between atoms: C_3  and  C_5
REMARK    4  A    between atoms: C_6  and  C_7
REMARK    5  A    between atoms: C_13  and  C_14
REMARK    6  A    between atoms: N_20  and  C_21
REMARK                            x       y       z     vdW  Elec       q    Type
REMARK                         _______ _______ _______ _____ _____    ______ ____
ROOT
ATOM      1  C   UNL     1       3.912   6.057  16.911  0.00  0.00    +0.000 C 
ATOM      2  C   UNL     1       5.289   6.327  16.173  0.00  0.00    +0.000 C 
ATOM      3  C   UNL     1       5.617   5.365  14.996  0.00  0.00    +0.000 C 
ATOM      4  C   UNL     1       6.594   4.317  15.577  0.00  0.00    +0.000 C 
ATOM      5  C   UNL     1       6.396   4.499  17.080  0.00  0.00    +0.000 C 
ATOM      6  C   UNL     1       5.021   3.861  17.464  0.00  0.00    +0.000 C 
ATOM      7  C   UNL     1       4.112   4.959  18.009  0.00  0.00    +0.000 C 
ATOM      8  N   UNL     1       6.437   5.969  17.011  0.00  0.00    +0.000 NA
ATOM      9  C   UNL     1       6.745   6.769  18.172  0.00  0.00    +0.000 C 
ENDROOT
BRANCH   7  10
ATOM     10  C   UNL     1       2.973   4.511  18.908  0.00  0.00    +0.000 A 
ATOM     11  C   UNL     1       2.018   3.654  18.317  0.00  0.00    +0.000 A 
ATOM     12  C   UNL     1       1.038   3.019  19.070  0.00  0.00    +0.000 A 
ATOM     13  C   UNL     1       0.967   3.260  20.432  0.00  0.00    +0.000 A 
ATOM     14  C   UNL     1       1.868   4.151  21.028  0.00  0.00    +0.000 A 
ATOM     15  C   UNL     1       2.870   4.779  20.271  0.00  0.00    +0.000 A 
ENDBRANCH   7  10
BRANCH   1  17
ATOM     16  C   UNL     1       2.235   7.885  17.586  0.00  0.00    +0.000 C 
ATOM     17  C   UNL     1       3.452   7.330  17.599  0.00  0.00    +0.000 C 
BRANCH  16  18
ATOM     18  C   UNL     1       2.039   9.108  18.399  0.00  0.00    +0.000 C 
ATOM     19  O   UNL     1       2.198  10.249  18.004  0.00  0.00    +0.000 OA
BRANCH  18  21
ATOM     20  C   UNL     1       0.644   9.609  20.183  0.00  0.00    +0.000 C 
ATOM     21  O   UNL     1       1.651   8.746  19.655  0.00  0.00    +0.000 OA
ENDBRANCH  18  21
ENDBRANCH  16  18
ENDBRANCH   1  17
TORSDOF 4
ENDMDL
MODEL 7
REMARK VINA RESULT:      -7.5      2.663      5.258
REMARK  Name = 
REMARK  6 active torsions:
REMARK  status: ('A' for Active; 'I' for Inactive)
REMARK    1  A    between atoms: C_1  and  O_2
REMARK    2  A    between atoms: O_2  and  C_3
REMARK    3  A    between atoms: C_3  and  C_5
REMARK    4  A    between atoms: C_6  and  C_7
REMARK    5  A    between atoms: C_13  and  C_14
REMARK    6  A    between atoms: N_20  and  C_21
REMARK                            x       y       z     vdW  Elec       q    Type
REMARK                         _______ _______ _______ _____ _____    ______ ____
ROOT
ATOM      1  C   UNL     1       4.187   5.436  19.316  0.00  0.00    +0.000 C 
ATOM      2  C   UNL     1       5.056   4.362  18.538  0.00  0.00    +0.000 C 
ATOM      3  C   UNL     1       6.525   4.778  18.241  0.00  0.00    +0.000 C 
ATOM      4  C   UNL     1       6.531   5.256  16.771  0.00  0.00    +0.000 C 
ATOM      5  C   UNL     1       5.045   5.486  16.507  0.00  0.00    +0.000 C 
ATOM      6  C   UNL     1       4.623   6.801  17.241  0.00  0.00    +0.000 C 
ATOM      7  C   UNL     1       3.576   6.454  18.295  0.00  0.00    +0.000 C 
ATOM      8  N   UNL     1       4.632   4.224  17.142  0.00  0.00    +0.000 NA
ATOM      9  C   UNL     1       3.359   3.612  16.844  0.00  0.00    +0.000 C 
ENDROOT
BRANCH   7  10
ATOM     10  C   UNL     1       2.665   7.584  18.742  0.00  0.00    +0.000 A 
ATOM     11  C   UNL     1       2.319   8.529  17.750  0.00  0.00    +0.000 A 
ATOM     12  C   UNL     1       1.348   9.499  17.968  0.00  0.00    +0.000 A 
ATOM     13  C   UNL     1       0.724   9.568  19.204  0.00  0.00    +0.000 A 
ATOM     14  C   UNL     1       1.093   8.677  20.218  0.00  0.00    +0.000 A 
ATOM     15  C   UNL     1       2.062   7.686  19.994  0.00  0.00    +0.000 A 
ENDBRANCH   7  10
BRANCH   1  17
ATOM     16  C   UNL     1       2.897   3.432  20.280  0.00  0.00    +0.000 C 
ATOM     17  C   UNL     1       3.040   4.737  20.024  0.00  0.00    +0.000 C 
BRANCH  16  18
ATOM     18  C   UNL     1       1.699   3.018  21.048  0.00  0.00    +0.000 C 
ATOM     19  O   UNL     1       1.696   2.680  22.217  0.00  0.00    +0.000 OA
BRANCH  18  21
ATOM     20  C   UNL     1       0.759   2.276  19.062  0.00  0.00    +0.000 C 
ATOM     21  O   UNL     1       0.609   3.081  20.231  0.00  0.00    +0.000 OA
ENDBRANCH  18  21
ENDBRANCH  16  18
ENDBRANCH   1  17
TORSDOF 4
ENDMDL
MODEL 8
REMARK VINA RESULT:      -7.5      2.091      4.850
REMARK  Name = 
REMARK  6 active torsions:
REMARK  status: ('A' for Active; 'I' for Inactive)
REMARK    1  A    between atoms: C_1  and  O_2
REMARK    2  A    between atoms: O_2  and  C_3
REMARK    3  A    between atoms: C_3  and  C_5
REMARK    4  A    between atoms: C_6  and  C_7
REMARK    5  A    between atoms: C_13  and  C_14
REMARK    6  A    between atoms: N_20  and  C_21
REMARK                            x       y       z     vdW  Elec       q    Type
REMARK                         _______ _______ _______ _____ _____    ______ ____
ROOT
ATOM      1  C   UNL     1       3.941   5.789  16.977  0.00  0.00    +0.000 C 
ATOM      2  C   UNL     1       5.304   6.251  16.312  0.00  0.00    +0.000 C 
ATOM      3  C   UNL     1       5.667   5.549  14.972  0.00  0.00    +0.000 C 
ATOM      4  C   UNL     1       6.687   4.449  15.345  0.00  0.00    +0.000 C 
ATOM      5  C   UNL     1       6.487   4.328  16.853  0.00  0.00    +0.000 C 
ATOM      6  C   UNL     1       5.139   3.574  17.100  0.00  0.00    +0.000 C 
ATOM      7  C   UNL     1       4.188   4.508  17.843  0.00  0.00    +0.000 C 
ATOM      8  N   UNL     1       6.468   5.784  17.071  0.00  0.00    +0.000 NA
ATOM      9  C   UNL     1       6.747   6.356  18.366  0.00  0.00    +0.000 C 
ENDROOT
BRANCH   7  10
ATOM     10  C   UNL     1       3.071   3.849  18.633  0.00  0.00    +0.000 A 
ATOM     11  C   UNL     1       3.138   3.994  20.037  0.00  0.00    +0.000 A 
ATOM     12  C   UNL     1       2.089   3.610  20.864  0.00  0.00    +0.000 A 
ATOM     13  C   UNL     1       0.959   3.035  20.304  0.00  0.00    +0.000 A 
ATOM     14  C   UNL     1       0.898   2.831  18.920  0.00  0.00    +0.000 A 
ATOM     15  C   UNL     1       1.950   3.234  18.082  0.00  0.00    +0.000 A 
ENDBRANCH   7  10
BRANCH   1  17
ATOM     16  C   UNL     1       2.185   7.353  18.016  0.00  0.00    +0.000 C 
ATOM     17  C   UNL     1       3.433   6.885  17.896  0.00  0.00    +0.000 C 
BRANCH  16  18
ATOM     18  C   UNL     1       1.947   8.396  19.042  0.00  0.00    +0.000 C 
ATOM     19  O   UNL     1       1.703   9.566  18.812  0.00  0.00    +0.000 OA
BRANCH  18  21
ATOM     20  C   UNL     1       1.238   8.495  21.247  0.00  0.00    +0.000 C 
ATOM     21  O   UNL     1       2.045   7.828  20.277  0.00  0.00    +0.000 OA
ENDBRANCH  18  21
ENDBRANCH  16  18
ENDBRANCH   1  17
TORSDOF 4
ENDMDL
MODEL 9
REMARK VINA RESULT:      -7.4      2.073      4.843
REMARK  Name = 
REMARK  6 active torsions:
REMARK  status: ('A' for Active; 'I' for Inactive)
REMARK    1  A    between atoms: C_1  and  O_2
REMARK    2  A    between atoms: O_2  and  C_3
REMARK    3  A    between atoms: C_3  and  C_5
REMARK    4  A    between atoms: C_6  and  C_7
REMARK    5  A    between atoms: C_13  and  C_14
REMARK    6  A    between atoms: N_20  and  C_21
REMARK                            x       y       z     vdW  Elec       q    Type
REMARK                         _______ _______ _______ _____ _____    ______ ____
ROOT
ATOM      1  C   UNL     1       3.931   5.794  16.973  0.00  0.00    +0.000 C 
ATOM      2  C   UNL     1       5.294   6.243  16.300  0.00  0.00    +0.000 C 
ATOM      3  C   UNL     1       5.647   5.531  14.962  0.00  0.00    +0.000 C 
ATOM      4  C   UNL     1       6.660   4.426  15.336  0.00  0.00    +0.000 C 
ATOM      5  C   UNL     1       6.465   4.315  16.846  0.00  0.00    +0.000 C 
ATOM      6  C   UNL     1       5.113   3.571  17.103  0.00  0.00    +0.000 C 
ATOM      7  C   UNL     1       4.172   4.515  17.844  0.00  0.00    +0.000 C 
ATOM      8  N   UNL     1       6.457   5.771  17.056  0.00  0.00    +0.000 NA
ATOM      9  C   UNL     1       6.746   6.348  18.348  0.00  0.00    +0.000 C 
ENDROOT
BRANCH   7  10
ATOM     10  C   UNL     1       3.054   3.869  18.642  0.00  0.00    +0.000 A 
ATOM     11  C   UNL     1       3.076   4.098  20.037  0.00  0.00    +0.000 A 
ATOM     12  C   UNL     1       2.016   3.731  20.857  0.00  0.00    +0.000 A 
ATOM     13  C   UNL     1       0.921   3.087  20.302  0.00  0.00    +0.000 A 
ATOM     14  C   UNL     1       0.905   2.800  18.932  0.00  0.00    +0.000 A 
ATOM     15  C   UNL     1       1.967   3.186  18.100  0.00  0.00    +0.000 A 
ENDBRANCH   7  10
BRANCH   1  17
ATOM     16  C   UNL     1       2.201   7.411  17.974  0.00  0.00    +0.000 C 
ATOM     17  C   UNL     1       3.434   6.898  17.888  0.00  0.00    +0.000 C 
BRANCH  16  18
ATOM     18  C   UNL     1       1.969   8.450  19.004  0.00  0.00    +0.000 C 
ATOM     19  O   UNL     1       1.867   8.245  20.200  0.00  0.00    +0.000 OA
BRANCH  18  21
ATOM     20  C   UNL     1       0.644  10.319  18.641  0.00  0.00    +0.000 C 
ATOM     21  O   UNL     1       1.889   9.666  18.393  0.00  0.00    +0.000 OA
ENDBRANCH  18  21
ENDBRANCH  16  18
ENDBRANCH   1  17
TORSDOF 4
ENDMDL
