MODEL 1
REMARK VINA RESULT:      -8.2      0.000      0.000
REMARK  Name = 
REMARK  7 active torsions:
REMARK  status: ('A' for Active; 'I' for Inactive)
REMARK    1  A    between atoms: C_1  and  O_2
REMARK    2  A    between atoms: O_2  and  C_3
REMARK    3  A    between atoms: C_6  and  C_7
REMARK    4  A    between atoms: C_9  and  C_10
REMARK    5  A    between atoms: C_10  and  C_12
REMARK    6  A    between atoms: C_22  and  O_23
REMARK    7  A    between atoms: O_23  and  C_24
REMARK                            x       y       z     vdW  Elec       q    Type
REMARK                         _______ _______ _______ _____ _____    ______ ____
ROOT
ATOM      1  C   UNL     1       8.144   8.479  18.091  0.00  0.00    +0.000 A 
ATOM      2  N   UNL     1       7.346   8.107  17.106  0.00  0.00    +0.000 NA
ATOM      3  C   UNL     1       7.091   6.758  17.299  0.00  0.00    +0.000 A 
ATOM      4  C   UNL     1       7.760   6.316  18.422  0.00  0.00    +0.000 A 
ATOM      5  N   UNL     1       8.431   7.401  18.898  0.00  0.00    +0.000 N 
ATOM      6  H   UNL     1       8.991   7.435  19.738  0.00  0.00    +0.000 HD
ENDROOT
BRANCH   1  10
ATOM      7  C   UNL     1       9.716  12.404  18.767  0.00  0.00    +0.000 A 
ATOM      8  C   UNL     1      10.153  11.314  19.538  0.00  0.00    +0.000 A 
ATOM      9  C   UNL     1       9.614  10.037  19.344  0.00  0.00    +0.000 A 
ATOM     10  C   UNL     1       8.613   9.831  18.394  0.00  0.00    +0.000 A 
ATOM     11  C   UNL     1       8.114  10.940  17.701  0.00  0.00    +0.000 A 
ATOM     12  C   UNL     1       8.647  12.227  17.878  0.00  0.00    +0.000 A 
BRANCH   7  14
ATOM     13  C   UNL     1      11.388  13.899  18.015  0.00  0.00    +0.000 C 
ATOM     14  O   UNL     1      10.296  13.636  18.895  0.00  0.00    +0.000 OA
ENDBRANCH   7  14
BRANCH  12  15
ATOM     15  O   UNL     1       8.025  13.146  17.077  0.00  0.00    +0.000 OA
ATOM     16  C   UNL     1       7.169  14.110  17.670  0.00  0.00    +0.000 C 
ENDBRANCH  12  15
ENDBRANCH   1  10
BRANCH   3  17
ATOM     17  C   UNL     1       6.201   5.938  16.477  0.00  0.00    +0.000 C 
ATOM     18  O   UNL     1       6.493   5.628  15.324  0.00  0.00    +0.000 OA
BRANCH  17  19
ATOM     19  C   UNL     1       4.897   5.490  17.025  0.00  0.00    +0.000 A 
ATOM     20  C   UNL     1       4.495   4.168  16.778  0.00  0.00    +0.000 A 
ATOM     21  C   UNL     1       3.238   3.728  17.191  0.00  0.00    +0.000 A 
ATOM     22  C   UNL     1       2.381   4.614  17.835  0.00  0.00    +0.000 A 
ATOM     23  F   UNL     1       1.165   4.198  18.211  0.00  0.00    +0.000 F 
ATOM     24  C   UNL     1       2.762   5.928  18.083  0.00  0.00    +0.000 A 
ATOM     25  C   UNL     1       4.025   6.371  17.680  0.00  0.00    +0.000 A 
ENDBRANCH  17  19
ENDBRANCH   3  17
TORSDOF 5
ENDMDL
MODEL 2
REMARK VINA RESULT:      -8.1      0.170      1.002
REMARK  Name = 
REMARK  7 active torsions:
REMARK  status: ('A' for Active; 'I' for Inactive)
REMARK    1  A    between atoms: C_1  and  O_2
REMARK    2  A    between atoms: O_2  and  C_3
REMARK    3  A    between atoms: C_6  and  C_7
REMARK    4  A    between atoms: C_9  and  C_10
REMARK    5  A    between atoms: C_10  and  C_12
REMARK    6  A    between atoms: C_22  and  O_23
REMARK    7  A    between atoms: O_23  and  C_24
REMARK                            x       y       z     vdW  Elec       q    Type
REMARK                         _______ _______ _______ _____ _____    ______ ____
ROOT
ATOM      1  C   UNL     1       8.187   8.481  18.113  0.00  0.00    +0.000 A 
ATOM      2  N   UNL     1       7.446   8.115  17.081  0.00  0.00    +0.000 NA
ATOM      3  C   UNL     1       7.172   6.767  17.256  0.00  0.00    +0.000 A 
ATOM      4  C   UNL     1       7.771   6.320  18.416  0.00  0.00    +0.000 A 
ATOM      5  N   UNL     1       8.420   7.400  18.933  0.00  0.00    +0.000 N 
ATOM      6  H   UNL     1       8.930   7.429  19.805  0.00  0.00    +0.000 HD
ENDROOT
BRANCH   1  10
ATOM      7  C   UNL     1       9.740  12.395  18.887  0.00  0.00    +0.000 A 
ATOM      8  C   UNL     1      10.121  11.302  19.683  0.00  0.00    +0.000 A 
ATOM      9  C   UNL     1       9.587  10.029  19.454  0.00  0.00    +0.000 A 
ATOM     10  C   UNL     1       8.646   9.830  18.444  0.00  0.00    +0.000 A 
ATOM     11  C   UNL     1       8.197  10.943  17.723  0.00  0.00    +0.000 A 
ATOM     12  C   UNL     1       8.726  12.225  17.934  0.00  0.00    +0.000 A 
BRANCH   7  14
ATOM     13  C   UNL     1      11.446  13.891  18.219  0.00  0.00    +0.000 C 
ATOM     14  O   UNL     1      10.319  13.623  19.052  0.00  0.00    +0.000 OA
ENDBRANCH   7  14
BRANCH  12  15
ATOM     15  O   UNL     1       8.161  13.150  17.097  0.00  0.00    +0.000 OA
ATOM     16  C   UNL     1       7.107  13.966  17.583  0.00  0.00    +0.000 C 
ENDBRANCH  12  15
ENDBRANCH   1  10
BRANCH   3  17
ATOM     17  C   UNL     1       6.328   5.954  16.382  0.00  0.00    +0.000 C 
ATOM     18  O   UNL     1       6.693   5.630  15.254  0.00  0.00    +0.000 OA
BRANCH  17  19
ATOM     19  C   UNL     1       4.983   5.530  16.843  0.00  0.00    +0.000 A 
ATOM     20  C   UNL     1       4.179   6.476  17.497  0.00  0.00    +0.000 A 
ATOM     21  C   UNL     1       2.946   6.101  18.031  0.00  0.00    +0.000 A 
ATOM     22  C   UNL     1       2.528   4.779  17.924  0.00  0.00    +0.000 A 
ATOM     23  F   UNL     1       1.356   4.414  18.457  0.00  0.00    +0.000 F 
ATOM     24  C   UNL     1       3.316   3.828  17.284  0.00  0.00    +0.000 A 
ATOM     25  C   UNL     1       4.548   4.202  16.738  0.00  0.00    +0.000 A 
ENDBRANCH  17  19
ENDBRANCH   3  17
TORSDOF 5
ENDMDL
MODEL 3
REMARK VINA RESULT:      -8.0      1.112      2.200
REMARK  Name = 
REMARK  7 active torsions:
REMARK  status: ('A' for Active; 'I' for Inactive)
REMARK    1  A    between atoms: C_1  and  O_2
REMARK    2  A    between atoms: O_2  and  C_3
REMARK    3  A    between atoms: C_6  and  C_7
REMARK    4  A    between atoms: C_9  and  C_10
REMARK    5  A    between atoms: C_10  and  C_12
REMARK    6  A    between atoms: C_22  and  O_23
REMARK    7  A    between atoms: O_23  and  C_24
REMARK                            x       y       z     vdW  Elec       q    Type
REMARK                         _______ _______ _______ _____ _____    ______ ____
ROOT
ATOM      1  C   UNL     1       8.340   8.630  18.213  0.00  0.00    +0.000 A 
ATOM      2  N   UNL     1       7.679   8.168  17.165  0.00  0.00    +0.000 NA
ATOM      3  C   UNL     1       7.435   6.827  17.417  0.00  0.00    +0.000 A 
ATOM      4  C   UNL     1       7.970   6.482  18.642  0.00  0.00    +0.000 A 
ATOM      5  N   UNL     1       8.550   7.616  19.121  0.00  0.00    +0.000 N 
ATOM      6  H   UNL     1       9.001   7.722  20.019  0.00  0.00    +0.000 HD
ENDROOT
BRANCH   1  10
ATOM      7  C   UNL     1       9.232  12.723  19.094  0.00  0.00    +0.000 A 
ATOM      8  C   UNL     1       8.790  12.345  17.816  0.00  0.00    +0.000 A 
ATOM      9  C   UNL     1       8.533  11.002  17.514  0.00  0.00    +0.000 A 
ATOM     10  C   UNL     1       8.735  10.012  18.477  0.00  0.00    +0.000 A 
ATOM     11  C   UNL     1       9.271  10.387  19.715  0.00  0.00    +0.000 A 
ATOM     12  C   UNL     1       9.528  11.729  20.037  0.00  0.00    +0.000 A 
BRANCH   7  14
ATOM     13  C   UNL     1       8.214  14.822  19.486  0.00  0.00    +0.000 C 
ATOM     14  O   UNL     1       9.406  14.040  19.419  0.00  0.00    +0.000 OA
ENDBRANCH   7  14
BRANCH  12  15
ATOM     15  O   UNL     1      10.018  11.859  21.308  0.00  0.00    +0.000 OA
ATOM     16  C   UNL     1       9.154  12.311  22.338  0.00  0.00    +0.000 C 
ENDBRANCH  12  15
ENDBRANCH   1  10
BRANCH   3  17
ATOM     17  C   UNL     1       6.674   5.927  16.552  0.00  0.00    +0.000 C 
ATOM     18  O   UNL     1       7.149   5.483  15.508  0.00  0.00    +0.000 OA
BRANCH  17  19
ATOM     19  C   UNL     1       5.284   5.558  16.912  0.00  0.00    +0.000 A 
ATOM     20  C   UNL     1       4.468   6.541  17.496  0.00  0.00    +0.000 A 
ATOM     21  C   UNL     1       3.186   6.217  17.938  0.00  0.00    +0.000 A 
ATOM     22  C   UNL     1       2.728   4.910  17.810  0.00  0.00    +0.000 A 
ATOM     23  F   UNL     1       1.505   4.594  18.254  0.00  0.00    +0.000 F 
ATOM     24  C   UNL     1       3.525   3.924  17.239  0.00  0.00    +0.000 A 
ATOM     25  C   UNL     1       4.808   4.246  16.785  0.00  0.00    +0.000 A 
ENDBRANCH  17  19
ENDBRANCH   3  17
TORSDOF 5
ENDMDL
MODEL 4
REMARK VINA RESULT:      -8.0      1.025      1.820
REMARK  Name = 
REMARK  7 active torsions:
REMARK  status: ('A' for Active; 'I' for Inactive)
REMARK    1  A    between atoms: C_1  and  O_2
REMARK    2  A    between atoms: O_2  and  C_3
REMARK    3  A    between atoms: C_6  and  C_7
REMARK    4  A    between atoms: C_9  and  C_10
REMARK    5  A    between atoms: C_10  and  C_12
REMARK    6  A    between atoms: C_22  and  O_23
REMARK    7  A    between atoms: O_23  and  C_24
REMARK                            x       y       z     vdW  Elec       q    Type
REMARK                         _______ _______ _______ _____ _____    ______ ____
ROOT
ATOM      1  C   UNL     1       8.294   8.634  18.206  0.00  0.00    +0.000 A 
ATOM      2  N   UNL     1       7.536   8.225  17.203  0.00  0.00    +0.000 NA
ATOM      3  C   UNL     1       7.280   6.881  17.431  0.00  0.00    +0.000 A 
ATOM      4  C   UNL     1       7.907   6.481  18.593  0.00  0.00    +0.000 A 
ATOM      5  N   UNL     1       8.554   7.585  19.058  0.00  0.00    +0.000 N 
ATOM      6  H   UNL     1       9.081   7.650  19.918  0.00  0.00    +0.000 HD
ENDROOT
BRANCH   1  10
ATOM      7  C   UNL     1       9.346  12.685  19.107  0.00  0.00    +0.000 A 
ATOM      8  C   UNL     1       8.944  12.320  17.811  0.00  0.00    +0.000 A 
ATOM      9  C   UNL     1       8.635  10.990  17.505  0.00  0.00    +0.000 A 
ATOM     10  C   UNL     1       8.745   9.998  18.481  0.00  0.00    +0.000 A 
ATOM     11  C   UNL     1       9.241  10.354  19.740  0.00  0.00    +0.000 A 
ATOM     12  C   UNL     1       9.550  11.684  20.067  0.00  0.00    +0.000 A 
BRANCH   7  14
ATOM     13  C   UNL     1      10.874  14.491  19.131  0.00  0.00    +0.000 C 
ATOM     14  O   UNL     1       9.570  13.995  19.433  0.00  0.00    +0.000 OA
ENDBRANCH   7  14
BRANCH  12  15
ATOM     15  O   UNL     1       9.988  11.799  21.358  0.00  0.00    +0.000 OA
ATOM     16  C   UNL     1       9.092  12.273  22.351  0.00  0.00    +0.000 C 
ENDBRANCH  12  15
ENDBRANCH   1  10
BRANCH   3  17
ATOM     17  C   UNL     1       6.427   6.030  16.603  0.00  0.00    +0.000 C 
ATOM     18  O   UNL     1       6.774   5.666  15.481  0.00  0.00    +0.000 OA
BRANCH  17  19
ATOM     19  C   UNL     1       5.095   5.613  17.104  0.00  0.00    +0.000 A 
ATOM     20  C   UNL     1       4.696   4.283  16.896  0.00  0.00    +0.000 A 
ATOM     21  C   UNL     1       3.416   3.868  17.264  0.00  0.00    +0.000 A 
ATOM     22  C   UNL     1       2.535   4.786  17.825  0.00  0.00    +0.000 A 
ATOM     23  F   UNL     1       1.299   4.393  18.158  0.00  0.00    +0.000 F 
ATOM     24  C   UNL     1       2.913   6.108  18.033  0.00  0.00    +0.000 A 
ATOM     25  C   UNL     1       4.198   6.526  17.675  0.00  0.00    +0.000 A 
ENDBRANCH  17  19
ENDBRANCH   3  17
TORSDOF 5
ENDMDL
MODEL 5
REMARK VINA RESULT:      -7.9      5.858      7.241
REMARK  Name = 
REMARK  7 active torsions:
REMARK  status: ('A' for Active; 'I' for Inactive)
REMARK    1  A    between atoms: C_1  and  O_2
REMARK    2  A    between atoms: O_2  and  C_3
REMARK    3  A    between atoms: C_6  and  C_7
REMARK    4  A    between atoms: C_9  and  C_10
REMARK    5  A    between atoms: C_10  and  C_12
REMARK    6  A    between atoms: C_22  and  O_23
REMARK    7  A    between atoms: O_23  and  C_24
REMARK                            x       y       z     vdW  Elec       q    Type
REMARK                         _______ _______ _______ _____ _____    ______ ____
ROOT
ATOM      1  C   UNL     1       2.458   6.711  19.842  0.00  0.00    +0.000 A 
ATOM      2  N   UNL     1       3.499   6.218  19.194  0.00  0.00    +0.000 NA
ATOM      3  C   UNL     1       3.638   4.906  19.619  0.00  0.00    +0.000 A 
ATOM      4  C   UNL     1       2.660   4.614  20.548  0.00  0.00    +0.000 A 
ATOM      5  N   UNL     1       1.940   5.760  20.692  0.00  0.00    +0.000 N 
ATOM      6  H   UNL     1       1.119   5.881  21.271  0.00  0.00    +0.000 HD
ENDROOT
BRANCH   1  10
ATOM      7  C   UNL     1       0.399  10.420  19.262  0.00  0.00    +0.000 A 
ATOM      8  C   UNL     1       1.127   9.832  18.214  0.00  0.00    +0.000 A 
ATOM      9  C   UNL     1       1.831   8.639  18.411  0.00  0.00    +0.000 A 
ATOM     10  C   UNL     1       1.840   8.025  19.664  0.00  0.00    +0.000 A 
ATOM     11  C   UNL     1       1.196   8.670  20.727  0.00  0.00    +0.000 A 
ATOM     12  C   UNL     1       0.480   9.863  20.546  0.00  0.00    +0.000 A 
BRANCH   7  14
ATOM     13  C   UNL     1      -1.665  11.315  18.531  0.00  0.00    +0.000 C 
ATOM     14  O   UNL     1      -0.356  11.541  19.053  0.00  0.00    +0.000 OA
ENDBRANCH   7  14
BRANCH  12  15
ATOM     15  O   UNL     1      -0.090  10.293  21.714  0.00  0.00    +0.000 OA
ATOM     16  C   UNL     1      -0.353   9.351  22.741  0.00  0.00    +0.000 C 
ENDBRANCH  12  15
ENDBRANCH   1  10
BRANCH   3  17
ATOM     17  C   UNL     1       4.628   3.953  19.118  0.00  0.00    +0.000 C 
ATOM     18  O   UNL     1       4.888   2.916  19.724  0.00  0.00    +0.000 OA
BRANCH  17  19
ATOM     19  C   UNL     1       5.366   4.248  17.866  0.00  0.00    +0.000 A 
ATOM     20  C   UNL     1       4.709   4.038  16.644  0.00  0.00    +0.000 A 
ATOM     21  C   UNL     1       5.391   4.211  15.440  0.00  0.00    +0.000 A 
ATOM     22  C   UNL     1       6.732   4.579  15.461  0.00  0.00    +0.000 A 
ATOM     23  F   UNL     1       7.393   4.723  14.306  0.00  0.00    +0.000 F 
ATOM     24  C   UNL     1       7.400   4.786  16.664  0.00  0.00    +0.000 A 
ATOM     25  C   UNL     1       6.717   4.624  17.872  0.00  0.00    +0.000 A 
ENDBRANCH  17  19
ENDBRANCH   3  17
TORSDOF 5
ENDMDL
MODEL 6
REMARK VINA RESULT:      -7.9      5.781      7.228
REMARK  Name = 
REMARK  7 active torsions:
REMARK  status: ('A' for Active; 'I' for Inactive)
REMARK    1  A    between atoms: C_1  and  O_2
REMARK    2  A    between atoms: O_2  and  C_3
REMARK    3  A    between atoms: C_6  and  C_7
REMARK    4  A    between atoms: C_9  and  C_10
REMARK    5  A    between atoms: C_10  and  C_12
REMARK    6  A    between atoms: C_22  and  O_23
REMARK    7  A    between atoms: O_23  and  C_24
REMARK                            x       y       z     vdW  Elec       q    Type
REMARK                         _______ _______ _______ _____ _____    ______ ____
ROOT
ATOM      1  C   UNL     1       2.521   6.594  19.836  0.00  0.00    +0.000 A 
ATOM      2  N   UNL     1       3.539   6.066  19.178  0.00  0.00    +0.000 NA
ATOM      3  C   UNL     1       3.675   4.767  19.643  0.00  0.00    +0.000 A 
ATOM      4  C   UNL     1       2.718   4.520  20.607  0.00  0.00    +0.000 A 
ATOM      5  N   UNL     1       2.015   5.678  20.731  0.00  0.00    +0.000 N 
ATOM      6  H   UNL     1       1.212   5.829  21.327  0.00  0.00    +0.000 HD
ENDROOT
BRANCH   1  10
ATOM      7  C   UNL     1       0.488  10.305  19.185  0.00  0.00    +0.000 A 
ATOM      8  C   UNL     1       1.174   9.669  18.137  0.00  0.00    +0.000 A 
ATOM      9  C   UNL     1       1.869   8.475  18.356  0.00  0.00    +0.000 A 
ATOM     10  C   UNL     1       1.913   7.907  19.630  0.00  0.00    +0.000 A 
ATOM     11  C   UNL     1       1.312   8.599  20.688  0.00  0.00    +0.000 A 
ATOM     12  C   UNL     1       0.604   9.794  20.486  0.00  0.00    +0.000 A 
BRANCH   7  14
ATOM     13  C   UNL     1      -1.528  11.210  18.341  0.00  0.00    +0.000 C 
ATOM     14  O   UNL     1      -0.261  11.427  18.960  0.00  0.00    +0.000 OA
ENDBRANCH   7  14
BRANCH  12  15
ATOM     15  O   UNL     1       0.079  10.275  21.655  0.00  0.00    +0.000 OA
ATOM     16  C   UNL     1      -0.480   9.362  22.586  0.00  0.00    +0.000 C 
ENDBRANCH  12  15
ENDBRANCH   1  10
BRANCH   3  17
ATOM     17  C   UNL     1       4.640   3.787  19.149  0.00  0.00    +0.000 C 
ATOM     18  O   UNL     1       4.883   2.753  19.769  0.00  0.00    +0.000 OA
BRANCH  17  19
ATOM     19  C   UNL     1       5.375   4.048  17.888  0.00  0.00    +0.000 A 
ATOM     20  C   UNL     1       6.657   4.612  17.973  0.00  0.00    +0.000 A 
ATOM     21  C   UNL     1       7.349   4.962  16.814  0.00  0.00    +0.000 A 
ATOM     22  C   UNL     1       6.752   4.761  15.574  0.00  0.00    +0.000 A 
ATOM     23  F   UNL     1       7.406   5.118  14.462  0.00  0.00    +0.000 F 
ATOM     24  C   UNL     1       5.480   4.208  15.472  0.00  0.00    +0.000 A 
ATOM     25  C   UNL     1       4.787   3.846  16.631  0.00  0.00    +0.000 A 
ENDBRANCH  17  19
ENDBRANCH   3  17
TORSDOF 5
ENDMDL
MODEL 7
REMARK VINA RESULT:      -7.8      1.113      1.656
REMARK  Name = 
REMARK  7 active torsions:
REMARK  status: ('A' for Active; 'I' for Inactive)
REMARK    1  A    between atoms: C_1  and  O_2
REMARK    2  A    between atoms: O_2  and  C_3
REMARK    3  A    between atoms: C_6  and  C_7
REMARK    4  A    between atoms: C_9  and  C_10
REMARK    5  A    between atoms: C_10  and  C_12
REMARK    6  A    between atoms: C_22  and  O_23
REMARK    7  A    between atoms: O_23  and  C_24
REMARK                            x       y       z     vdW  Elec       q    Type
REMARK                         _______ _______ _______ _____ _____    ______ ____
ROOT
ATOM      1  C   UNL     1       8.378   8.636  18.372  0.00  0.00    +0.000 A 
ATOM      2  N   UNL     1       7.558   8.383  17.368  0.00  0.00    +0.000 NA
ATOM      3  C   UNL     1       7.236   7.037  17.456  0.00  0.00    +0.000 A 
ATOM      4  C   UNL     1       7.886   6.476  18.537  0.00  0.00    +0.000 A 
ATOM      5  N   UNL     1       8.613   7.485  19.090  0.00  0.00    +0.000 N 
ATOM      6  H   UNL     1       9.179   7.425  19.926  0.00  0.00    +0.000 HD
ENDROOT
BRANCH   1  10
ATOM      7  C   UNL     1      10.219  12.327  19.519  0.00  0.00    +0.000 A 
ATOM      8  C   UNL     1       9.805  11.401  20.490  0.00  0.00    +0.000 A 
ATOM      9  C   UNL     1       9.170  10.210  20.119  0.00  0.00    +0.000 A 
ATOM     10  C   UNL     1       8.916   9.935  18.775  0.00  0.00    +0.000 A 
ATOM     11  C   UNL     1       9.242  10.909  17.823  0.00  0.00    +0.000 A 
ATOM     12  C   UNL     1       9.886  12.105  18.176  0.00  0.00    +0.000 A 
BRANCH   7  14
ATOM     13  C   UNL     1      10.116  14.585  20.218  0.00  0.00    +0.000 C 
ATOM     14  O   UNL     1      10.913  13.453  19.870  0.00  0.00    +0.000 OA
ENDBRANCH   7  14
BRANCH  12  15
ATOM     15  O   UNL     1      10.132  12.889  17.081  0.00  0.00    +0.000 OA
ATOM     16  C   UNL     1      11.476  13.165  16.719  0.00  0.00    +0.000 C 
ENDBRANCH  12  15
ENDBRANCH   1  10
BRANCH   3  17
ATOM     17  C   UNL     1       6.302   6.330  16.581  0.00  0.00    +0.000 C 
ATOM     18  O   UNL     1       6.563   6.118  15.398  0.00  0.00    +0.000 OA
BRANCH  17  19
ATOM     19  C   UNL     1       4.992   5.880  17.111  0.00  0.00    +0.000 A 
ATOM     20  C   UNL     1       4.063   6.858  17.499  0.00  0.00    +0.000 A 
ATOM     21  C   UNL     1       2.856   6.486  18.089  0.00  0.00    +0.000 A 
ATOM     22  C   UNL     1       2.587   5.139  18.305  0.00  0.00    +0.000 A 
ATOM     23  F   UNL     1       1.438   4.782  18.892  0.00  0.00    +0.000 F 
ATOM     24  C   UNL     1       3.499   4.157  17.931  0.00  0.00    +0.000 A 
ATOM     25  C   UNL     1       4.706   4.525  17.329  0.00  0.00    +0.000 A 
ENDBRANCH  17  19
ENDBRANCH   3  17
TORSDOF 5
ENDMDL
MODEL 8
REMARK VINA RESULT:      -7.7      1.062      2.257
REMARK  Name = 
REMARK  7 active torsions:
REMARK  status: ('A' for Active; 'I' for Inactive)
REMARK    1  A    between atoms: C_1  and  O_2
REMARK    2  A    between atoms: O_2  and  C_3
REMARK    3  A    between atoms: C_6  and  C_7
REMARK    4  A    between atoms: C_9  and  C_10
REMARK    5  A    between atoms: C_10  and  C_12
REMARK    6  A    between atoms: C_22  and  O_23
REMARK    7  A    between atoms: O_23  and  C_24
REMARK                            x       y       z     vdW  Elec       q    Type
REMARK                         _______ _______ _______ _____ _____    ______ ____
ROOT
ATOM      1  C   UNL     1       8.236   8.752  18.065  0.00  0.00    +0.000 A 
ATOM      2  N   UNL     1       7.428   8.292  17.126  0.00  0.00    +0.000 NA
ATOM      3  C   UNL     1       7.189   6.961  17.434  0.00  0.00    +0.000 A 
ATOM      4  C   UNL     1       7.877   6.621  18.581  0.00  0.00    +0.000 A 
ATOM      5  N   UNL     1       8.544   7.747  18.955  0.00  0.00    +0.000 N 
ATOM      6  H   UNL     1       9.116   7.856  19.782  0.00  0.00    +0.000 HD
ENDROOT
BRANCH   1  10
ATOM      7  C   UNL     1       9.381  12.811  18.804  0.00  0.00    +0.000 A 
ATOM      8  C   UNL     1       8.476  12.496  17.776  0.00  0.00    +0.000 A 
ATOM      9  C   UNL     1       8.129  11.167  17.509  0.00  0.00    +0.000 A 
ATOM     10  C   UNL     1       8.696  10.128  18.247  0.00  0.00    +0.000 A 
ATOM     11  C   UNL     1       9.671  10.443  19.201  0.00  0.00    +0.000 A 
ATOM     12  C   UNL     1      10.027  11.771  19.487  0.00  0.00    +0.000 A 
BRANCH   7  14
ATOM     13  C   UNL     1       8.839  14.689  20.136  0.00  0.00    +0.000 C 
ATOM     14  O   UNL     1       9.661  14.111  19.123  0.00  0.00    +0.000 OA
ENDBRANCH   7  14
BRANCH  12  15
ATOM     15  O   UNL     1      10.975  11.840  20.472  0.00  0.00    +0.000 OA
ATOM     16  C   UNL     1      12.332  12.040  20.109  0.00  0.00    +0.000 C 
ENDBRANCH  12  15
ENDBRANCH   1  10
BRANCH   3  17
ATOM     17  C   UNL     1       6.297   6.068  16.697  0.00  0.00    +0.000 C 
ATOM     18  O   UNL     1       6.584   5.652  15.576  0.00  0.00    +0.000 OA
BRANCH  17  19
ATOM     19  C   UNL     1       4.996   5.673  17.290  0.00  0.00    +0.000 A 
ATOM     20  C   UNL     1       4.051   6.679  17.544  0.00  0.00    +0.000 A 
ATOM     21  C   UNL     1       2.851   6.370  18.185  0.00  0.00    +0.000 A 
ATOM     22  C   UNL     1       2.607   5.061  18.585  0.00  0.00    +0.000 A 
ATOM     23  F   UNL     1       1.466   4.769  19.221  0.00  0.00    +0.000 F 
ATOM     24  C   UNL     1       3.535   4.053  18.345  0.00  0.00    +0.000 A 
ATOM     25  C   UNL     1       4.734   4.356  17.693  0.00  0.00    +0.000 A 
ENDBRANCH  17  19
ENDBRANCH   3  17
TORSDOF 5
ENDMDL
MODEL 9
REMARK VINA RESULT:      -7.7      1.320      1.429
REMARK  Name = 
REMARK  7 active torsions:
REMARK  status: ('A' for Active; 'I' for Inactive)
REMARK    1  A    between atoms: C_1  and  O_2
REMARK    2  A    between atoms: O_2  and  C_3
REMARK    3  A    between atoms: C_6  and  C_7
REMARK    4  A    between atoms: C_9  and  C_10
REMARK    5  A    between atoms: C_10  and  C_12
REMARK    6  A    between atoms: C_22  and  O_23
REMARK    7  A    between atoms: O_23  and  C_24
REMARK                            x       y       z     vdW  Elec       q    Type
REMARK                         _______ _______ _______ _____ _____    ______ ____
ROOT
ATOM      1  C   UNL     1       8.376   8.558  18.377  0.00  0.00    +0.000 A 
ATOM      2  N   UNL     1       7.505   8.391  17.398  0.00  0.00    +0.000 NA
ATOM      3  C   UNL     1       7.082   7.073  17.470  0.00  0.00    +0.000 A 
ATOM      4  C   UNL     1       7.724   6.439  18.514  0.00  0.00    +0.000 A 
ATOM      5  N   UNL     1       8.545   7.375  19.062  0.00  0.00    +0.000 N 
ATOM      6  H   UNL     1       9.132   7.252  19.876  0.00  0.00    +0.000 HD
ENDROOT
BRANCH   1  10
ATOM      7  C   UNL     1      10.523  12.045  19.625  0.00  0.00    +0.000 A 
ATOM      8  C   UNL     1       9.726  11.330  20.535  0.00  0.00    +0.000 A 
ATOM      9  C   UNL     1       8.995  10.211  20.121  0.00  0.00    +0.000 A 
ATOM     10  C   UNL     1       9.027   9.801  18.787  0.00  0.00    +0.000 A 
ATOM     11  C   UNL     1       9.742  10.579  17.868  0.00  0.00    +0.000 A 
ATOM     12  C   UNL     1      10.487  11.700  18.267  0.00  0.00    +0.000 A 
BRANCH   7  14
ATOM     13  C   UNL     1      10.611  14.159  20.683  0.00  0.00    +0.000 C 
ATOM     14  O   UNL     1      11.303  13.089  20.041  0.00  0.00    +0.000 OA
ENDBRANCH   7  14
BRANCH  12  15
ATOM     15  O   UNL     1      11.127  12.285  17.208  0.00  0.00    +0.000 OA
ATOM     16  C   UNL     1      10.864  13.647  16.911  0.00  0.00    +0.000 C 
ENDBRANCH  12  15
ENDBRANCH   1  10
BRANCH   3  17
ATOM     17  C   UNL     1       6.067   6.460  16.614  0.00  0.00    +0.000 C 
ATOM     18  O   UNL     1       6.217   6.375  15.397  0.00  0.00    +0.000 OA
BRANCH  17  19
ATOM     19  C   UNL     1       4.808   5.954  17.211  0.00  0.00    +0.000 A 
ATOM     20  C   UNL     1       4.561   4.573  17.163  0.00  0.00    +0.000 A 
ATOM     21  C   UNL     1       3.350   4.059  17.627  0.00  0.00    +0.000 A 
ATOM     22  C   UNL     1       2.384   4.928  18.123  0.00  0.00    +0.000 A 
ATOM     23  F   UNL     1       1.213   4.437  18.547  0.00  0.00    +0.000 F 
ATOM     24  C   UNL     1       2.611   6.299  18.172  0.00  0.00    +0.000 A 
ATOM     25  C   UNL     1       3.827   6.818  17.718  0.00  0.00    +0.000 A 
ENDBRANCH  17  19
ENDBRANCH   3  17
TORSDOF 5
ENDMDL
