MODEL 1
REMARK VINA RESULT:      -8.3      0.000      0.000
REMARK  Name = 
REMARK  5 active torsions:
REMARK  status: ('A' for Active; 'I' for Inactive)
REMARK    1  A    between atoms: C_1  and  N_2
REMARK    2  A    between atoms: C_4  and  C_5
REMARK    3  A    between atoms: C_9  and  O_10
REMARK    4  A    between atoms: O_10  and  C_11
REMARK    5  A    between atoms: C_11  and  C_12
REMARK                            x       y       z     vdW  Elec       q    Type
REMARK                         _______ _______ _______ _____ _____    ______ ____
ROOT
ATOM      1  C   UNL     1       3.914   4.242  17.444  0.00  0.00    +0.000 A 
ATOM      2  C   UNL     1       4.774   4.276  16.335  0.00  0.00    +0.000 A 
ATOM      3  C   UNL     1       5.247   5.493  15.842  0.00  0.00    +0.000 A 
ATOM      4  C   UNL     1       4.851   6.687  16.440  0.00  0.00    +0.000 A 
ATOM      5  C   UNL     1       3.971   6.676  17.522  0.00  0.00    +0.000 A 
ATOM      6  C   UNL     1       3.533   5.456  18.042  0.00  0.00    +0.000 A 
ENDROOT
BRANCH   1  10
ATOM      7  C   UNL     1       1.665   2.442  21.201  0.00  0.00    +0.000 C 
ATOM      8  N   UNL     1       2.102   2.755  19.865  0.00  0.00    +0.000 N 
ATOM      9  C   UNL     1       3.485   2.842  19.511  0.00  0.00    +0.000 C 
ATOM     10  C   UNL     1       3.453   2.907  17.992  0.00  0.00    +0.000 C 
ATOM     11  O   UNL     1       2.091   2.624  17.626  0.00  0.00    +0.000 OA
ATOM     12  C   UNL     1       1.332   2.515  18.756  0.00  0.00    +0.000 C 
ATOM     13  O   UNL     1       0.144   2.231  18.744  0.00  0.00    +0.000 OA
ENDBRANCH   1  10
BRANCH   5  14
ATOM     14  O   UNL     1       3.615   7.908  17.997  0.00  0.00    +0.000 OA
BRANCH  14  15
ATOM     15  C   UNL     1       2.300   8.355  17.647  0.00  0.00    +0.000 C 
BRANCH  15  16
ATOM     16  C   UNL     1       1.614   8.799  18.903  0.00  0.00    +0.000 A 
ATOM     17  N   UNL     1       0.912   9.912  18.985  0.00  0.00    +0.000 NA
ATOM     18  C   UNL     1       0.421  10.070  20.266  0.00  0.00    +0.000 A 
ATOM     19  C   UNL     1      -0.346  11.162  20.718  0.00  0.00    +0.000 A 
ATOM     20  C   UNL     1      -0.764  11.213  22.050  0.00  0.00    +0.000 A 
ATOM     21  C   UNL     1      -0.434  10.187  22.929  0.00  0.00    +0.000 A 
ATOM     22  C   UNL     1       0.315   9.084  22.500  0.00  0.00    +0.000 A 
ATOM     23  C   UNL     1       0.737   9.048  21.162  0.00  0.00    +0.000 A 
ATOM     24  S   UNL     1       1.666   7.852  20.336  0.00  0.00    +0.000 S 
ENDBRANCH  15  16
ENDBRANCH  14  15
ENDBRANCH   5  14
TORSDOF 4
ENDMDL
MODEL 2
REMARK VINA RESULT:      -8.1      0.839      1.280
REMARK  Name = 
REMARK  5 active torsions:
REMARK  status: ('A' for Active; 'I' for Inactive)
REMARK    1  A    between atoms: C_1  and  N_2
REMARK    2  A    between atoms: C_4  and  C_5
REMARK    3  A    between atoms: C_9  and  O_10
REMARK    4  A    between atoms: O_10  and  C_11
REMARK    5  A    between atoms: C_11  and  C_12
REMARK                            x       y       z     vdW  Elec       q    Type
REMARK                         _______ _______ _______ _____ _____    ______ ____
ROOT
ATOM      1  C   UNL     1       4.042   4.408  17.592  0.00  0.00    +0.000 A 
ATOM      2  C   UNL     1       5.043   4.421  16.608  0.00  0.00    +0.000 A 
ATOM      3  C   UNL     1       5.522   5.629  16.100  0.00  0.00    +0.000 A 
ATOM      4  C   UNL     1       4.992   6.834  16.558  0.00  0.00    +0.000 A 
ATOM      5  C   UNL     1       3.974   6.841  17.511  0.00  0.00    +0.000 A 
ATOM      6  C   UNL     1       3.526   5.632  18.050  0.00  0.00    +0.000 A 
ENDROOT
BRANCH   1  10
ATOM      7  C   UNL     1       1.317   2.720  21.077  0.00  0.00    +0.000 C 
ATOM      8  N   UNL     1       1.948   2.971  19.806  0.00  0.00    +0.000 N 
ATOM      9  C   UNL     1       3.362   3.126  19.669  0.00  0.00    +0.000 C 
ATOM     10  C   UNL     1       3.573   3.085  18.163  0.00  0.00    +0.000 C 
ATOM     11  O   UNL     1       2.307   2.686  17.611  0.00  0.00    +0.000 OA
ATOM     12  C   UNL     1       1.382   2.603  18.612  0.00  0.00    +0.000 C 
ATOM     13  O   UNL     1       0.229   2.239  18.435  0.00  0.00    +0.000 OA
ENDBRANCH   1  10
BRANCH   5  14
ATOM     14  O   UNL     1       3.499   8.078  17.849  0.00  0.00    +0.000 OA
BRANCH  14  15
ATOM     15  C   UNL     1       2.109   8.304  17.589  0.00  0.00    +0.000 C 
BRANCH  15  16
ATOM     16  C   UNL     1       1.509   8.938  18.808  0.00  0.00    +0.000 A 
ATOM     17  N   UNL     1       1.480   8.350  19.986  0.00  0.00    +0.000 NA
ATOM     18  C   UNL     1       0.847   9.160  20.907  0.00  0.00    +0.000 A 
ATOM     19  C   UNL     1       0.613   8.835  22.258  0.00  0.00    +0.000 A 
ATOM     20  C   UNL     1      -0.062   9.738  23.083  0.00  0.00    +0.000 A 
ATOM     21  C   UNL     1      -0.495  10.960  22.579  0.00  0.00    +0.000 A 
ATOM     22  C   UNL     1      -0.261  11.313  21.245  0.00  0.00    +0.000 A 
ATOM     23  C   UNL     1       0.411  10.394  20.423  0.00  0.00    +0.000 A 
ATOM     24  S   UNL     1       0.840  10.521  18.757  0.00  0.00    +0.000 S 
ENDBRANCH  15  16
ENDBRANCH  14  15
ENDBRANCH   5  14
TORSDOF 4
ENDMDL
MODEL 3
REMARK VINA RESULT:      -7.8      2.614      4.164
REMARK  Name = 
REMARK  5 active torsions:
REMARK  status: ('A' for Active; 'I' for Inactive)
REMARK    1  A    between atoms: C_1  and  N_2
REMARK    2  A    between atoms: C_4  and  C_5
REMARK    3  A    between atoms: C_9  and  O_10
REMARK    4  A    between atoms: O_10  and  C_11
REMARK    5  A    between atoms: C_11  and  C_12
REMARK                            x       y       z     vdW  Elec       q    Type
REMARK                         _______ _______ _______ _____ _____    ______ ____
ROOT
ATOM      1  C   UNL     1       4.452   4.741  17.136  0.00  0.00    +0.000 A 
ATOM      2  C   UNL     1       3.294   3.984  17.379  0.00  0.00    +0.000 A 
ATOM      3  C   UNL     1       2.130   4.598  17.843  0.00  0.00    +0.000 A 
ATOM      4  C   UNL     1       2.117   5.970  18.085  0.00  0.00    +0.000 A 
ATOM      5  C   UNL     1       3.266   6.734  17.881  0.00  0.00    +0.000 A 
ATOM      6  C   UNL     1       4.418   6.125  17.376  0.00  0.00    +0.000 A 
ENDROOT
BRANCH   1  10
ATOM      7  C   UNL     1       6.452   3.648  12.986  0.00  0.00    +0.000 C 
ATOM      8  N   UNL     1       6.206   4.102  14.331  0.00  0.00    +0.000 N 
ATOM      9  C   UNL     1       5.439   3.343  15.268  0.00  0.00    +0.000 C 
ATOM     10  C   UNL     1       5.688   4.060  16.586  0.00  0.00    +0.000 C 
ATOM     11  O   UNL     1       6.739   5.003  16.314  0.00  0.00    +0.000 OA
ATOM     12  C   UNL     1       7.035   4.980  14.982  0.00  0.00    +0.000 C 
ATOM     13  O   UNL     1       7.924   5.649  14.478  0.00  0.00    +0.000 OA
ENDBRANCH   1  10
BRANCH   5  14
ATOM     14  O   UNL     1       3.150   8.060  18.198  0.00  0.00    +0.000 OA
BRANCH  14  15
ATOM     15  C   UNL     1       1.944   8.700  17.767  0.00  0.00    +0.000 C 
BRANCH  15  16
ATOM     16  C   UNL     1       1.303   9.331  18.966  0.00  0.00    +0.000 A 
ATOM     17  N   UNL     1       1.175   8.713  20.123  0.00  0.00    +0.000 NA
ATOM     18  C   UNL     1       0.527   9.529  21.029  0.00  0.00    +0.000 A 
ATOM     19  C   UNL     1       0.197   9.180  22.353  0.00  0.00    +0.000 A 
ATOM     20  C   UNL     1      -0.482  10.093  23.164  0.00  0.00    +0.000 A 
ATOM     21  C   UNL     1      -0.825  11.348  22.672  0.00  0.00    +0.000 A 
ATOM     22  C   UNL     1      -0.495  11.724  21.364  0.00  0.00    +0.000 A 
ATOM     23  C   UNL     1       0.180  10.795  20.556  0.00  0.00    +0.000 A 
ATOM     24  S   UNL     1       0.714  10.945  18.923  0.00  0.00    +0.000 S 
ENDBRANCH  15  16
ENDBRANCH  14  15
ENDBRANCH   5  14
TORSDOF 4
ENDMDL
MODEL 4
REMARK VINA RESULT:      -7.8      2.702      4.160
REMARK  Name = 
REMARK  5 active torsions:
REMARK  status: ('A' for Active; 'I' for Inactive)
REMARK    1  A    between atoms: C_1  and  N_2
REMARK    2  A    between atoms: C_4  and  C_5
REMARK    3  A    between atoms: C_9  and  O_10
REMARK    4  A    between atoms: O_10  and  C_11
REMARK    5  A    between atoms: C_11  and  C_12
REMARK                            x       y       z     vdW  Elec       q    Type
REMARK                         _______ _______ _______ _____ _____    ______ ____
ROOT
ATOM      1  C   UNL     1       4.607   4.807  17.476  0.00  0.00    +0.000 A 
ATOM      2  C   UNL     1       3.903   3.661  17.073  0.00  0.00    +0.000 A 
ATOM      3  C   UNL     1       2.521   3.581  17.247  0.00  0.00    +0.000 A 
ATOM      4  C   UNL     1       1.832   4.636  17.841  0.00  0.00    +0.000 A 
ATOM      5  C   UNL     1       2.518   5.769  18.279  0.00  0.00    +0.000 A 
ATOM      6  C   UNL     1       3.895   5.866  18.065  0.00  0.00    +0.000 A 
ENDROOT
BRANCH   1  10
ATOM      7  C   UNL     1       8.232   7.778  18.147  0.00  0.00    +0.000 C 
ATOM      8  N   UNL     1       7.383   6.616  18.091  0.00  0.00    +0.000 N 
ATOM      9  C   UNL     1       6.580   6.307  16.950  0.00  0.00    +0.000 C 
ATOM     10  C   UNL     1       6.100   4.891  17.233  0.00  0.00    +0.000 C 
ATOM     11  O   UNL     1       6.852   4.456  18.379  0.00  0.00    +0.000 OA
ATOM     12  C   UNL     1       7.614   5.490  18.840  0.00  0.00    +0.000 C 
ATOM     13  O   UNL     1       8.390   5.389  19.779  0.00  0.00    +0.000 OA
ENDBRANCH   1  10
BRANCH   5  14
ATOM     14  O   UNL     1       1.746   6.719  18.890  0.00  0.00    +0.000 OA
BRANCH  14  15
ATOM     15  C   UNL     1       2.201   7.159  20.174  0.00  0.00    +0.000 C 
BRANCH  15  16
ATOM     16  C   UNL     1       1.340   8.310  20.599  0.00  0.00    +0.000 A 
ATOM     17  N   UNL     1       0.901   8.465  21.831  0.00  0.00    +0.000 NA
ATOM     18  C   UNL     1       0.115   9.597  21.917  0.00  0.00    +0.000 A 
ATOM     19  C   UNL     1      -0.542  10.050  23.079  0.00  0.00    +0.000 A 
ATOM     20  C   UNL     1      -1.329  11.203  23.027  0.00  0.00    +0.000 A 
ATOM     21  C   UNL     1      -1.459  11.911  21.836  0.00  0.00    +0.000 A 
ATOM     22  C   UNL     1      -0.804  11.489  20.672  0.00  0.00    +0.000 A 
ATOM     23  C   UNL     1      -0.023  10.324  20.734  0.00  0.00    +0.000 A 
ATOM     24  S   UNL     1       0.890   9.548  19.494  0.00  0.00    +0.000 S 
ENDBRANCH  15  16
ENDBRANCH  14  15
ENDBRANCH   5  14
TORSDOF 4
ENDMDL
MODEL 5
REMARK VINA RESULT:      -7.8      2.375      4.168
REMARK  Name = 
REMARK  5 active torsions:
REMARK  status: ('A' for Active; 'I' for Inactive)
REMARK    1  A    between atoms: C_1  and  N_2
REMARK    2  A    between atoms: C_4  and  C_5
REMARK    3  A    between atoms: C_9  and  O_10
REMARK    4  A    between atoms: O_10  and  C_11
REMARK    5  A    between atoms: C_11  and  C_12
REMARK                            x       y       z     vdW  Elec       q    Type
REMARK                         _______ _______ _______ _____ _____    ______ ____
ROOT
ATOM      1  C   UNL     1       4.333   4.116  17.829  0.00  0.00    +0.000 A 
ATOM      2  C   UNL     1       3.424   3.106  17.476  0.00  0.00    +0.000 A 
ATOM      3  C   UNL     1       2.075   3.216  17.816  0.00  0.00    +0.000 A 
ATOM      4  C   UNL     1       1.626   4.327  18.526  0.00  0.00    +0.000 A 
ATOM      5  C   UNL     1       2.519   5.325  18.915  0.00  0.00    +0.000 A 
ATOM      6  C   UNL     1       3.861   5.234  18.537  0.00  0.00    +0.000 A 
ENDROOT
BRANCH   1  10
ATOM      7  C   UNL     1       7.103   4.944  14.079  0.00  0.00    +0.000 C 
ATOM      8  N   UNL     1       6.551   4.874  15.408  0.00  0.00    +0.000 N 
ATOM      9  C   UNL     1       5.951   3.685  15.928  0.00  0.00    +0.000 C 
ATOM     10  C   UNL     1       5.784   3.996  17.407  0.00  0.00    +0.000 C 
ATOM     11  O   UNL     1       6.503   5.223  17.623  0.00  0.00    +0.000 OA
ATOM     12  C   UNL     1       6.962   5.695  16.427  0.00  0.00    +0.000 C 
ATOM     13  O   UNL     1       7.648   6.700  16.318  0.00  0.00    +0.000 OA
ENDBRANCH   1  10
BRANCH   5  14
ATOM     14  O   UNL     1       1.975   6.343  19.649  0.00  0.00    +0.000 OA
BRANCH  14  15
ATOM     15  C   UNL     1       2.297   7.668  19.212  0.00  0.00    +0.000 C 
BRANCH  15  16
ATOM     16  C   UNL     1       1.435   8.627  19.975  0.00  0.00    +0.000 A 
ATOM     17  N   UNL     1       1.081   8.438  21.230  0.00  0.00    +0.000 NA
ATOM     18  C   UNL     1       0.270   9.470  21.657  0.00  0.00    +0.000 A 
ATOM     19  C   UNL     1      -0.313   9.575  22.935  0.00  0.00    +0.000 A 
ATOM     20  C   UNL     1      -1.136  10.664  23.235  0.00  0.00    +0.000 A 
ATOM     21  C   UNL     1      -1.374  11.648  22.281  0.00  0.00    +0.000 A 
ATOM     22  C   UNL     1      -0.793  11.574  21.009  0.00  0.00    +0.000 A 
ATOM     23  C   UNL     1       0.025  10.471  20.716  0.00  0.00    +0.000 A 
ATOM     24  S   UNL     1       0.869  10.085  19.262  0.00  0.00    +0.000 S 
ENDBRANCH  15  16
ENDBRANCH  14  15
ENDBRANCH   5  14
TORSDOF 4
ENDMDL
MODEL 6
REMARK VINA RESULT:      -7.7      2.556      3.909
REMARK  Name = 
REMARK  5 active torsions:
REMARK  status: ('A' for Active; 'I' for Inactive)
REMARK    1  A    between atoms: C_1  and  N_2
REMARK    2  A    between atoms: C_4  and  C_5
REMARK    3  A    between atoms: C_9  and  O_10
REMARK    4  A    between atoms: O_10  and  C_11
REMARK    5  A    between atoms: C_11  and  C_12
REMARK                            x       y       z     vdW  Elec       q    Type
REMARK                         _______ _______ _______ _____ _____    ______ ____
ROOT
ATOM      1  C   UNL     1       4.635   4.914  17.515  0.00  0.00    +0.000 A 
ATOM      2  C   UNL     1       3.992   3.668  17.595  0.00  0.00    +0.000 A 
ATOM      3  C   UNL     1       2.607   3.594  17.744  0.00  0.00    +0.000 A 
ATOM      4  C   UNL     1       1.853   4.762  17.834  0.00  0.00    +0.000 A 
ATOM      5  C   UNL     1       2.476   6.009  17.791  0.00  0.00    +0.000 A 
ATOM      6  C   UNL     1       3.858   6.082  17.598  0.00  0.00    +0.000 A 
ENDROOT
BRANCH   1  10
ATOM      7  C   UNL     1       8.309   7.791  18.315  0.00  0.00    +0.000 C 
ATOM      8  N   UNL     1       7.436   6.649  18.220  0.00  0.00    +0.000 N 
ATOM      9  C   UNL     1       6.650   6.379  17.057  0.00  0.00    +0.000 C 
ATOM     10  C   UNL     1       6.134   4.970  17.304  0.00  0.00    +0.000 C 
ATOM     11  O   UNL     1       6.852   4.497  18.457  0.00  0.00    +0.000 OA
ATOM     12  C   UNL     1       7.627   5.505  18.952  0.00  0.00    +0.000 C 
ATOM     13  O   UNL     1       8.381   5.370  19.904  0.00  0.00    +0.000 OA
ENDBRANCH   1  10
BRANCH   5  14
ATOM     14  O   UNL     1       1.643   7.084  17.937  0.00  0.00    +0.000 OA
BRANCH  14  15
ATOM     15  C   UNL     1       2.263   8.298  18.372  0.00  0.00    +0.000 C 
BRANCH  15  16
ATOM     16  C   UNL     1       1.450   8.853  19.502  0.00  0.00    +0.000 A 
ATOM     17  N   UNL     1       0.745   9.962  19.407  0.00  0.00    +0.000 NA
ATOM     18  C   UNL     1       0.122  10.235  20.608  0.00  0.00    +0.000 A 
ATOM     19  C   UNL     1      -0.687  11.358  20.873  0.00  0.00    +0.000 A 
ATOM     20  C   UNL     1      -1.242  11.529  22.144  0.00  0.00    +0.000 A 
ATOM     21  C   UNL     1      -1.007  10.592  23.145  0.00  0.00    +0.000 A 
ATOM     22  C   UNL     1      -0.219   9.461  22.902  0.00  0.00    +0.000 A 
ATOM     23  C   UNL     1       0.341   9.303  21.624  0.00  0.00    +0.000 A 
ATOM     24  S   UNL     1       1.349   8.043  21.015  0.00  0.00    +0.000 S 
ENDBRANCH  15  16
ENDBRANCH  14  15
ENDBRANCH   5  14
TORSDOF 4
ENDMDL
MODEL 7
REMARK VINA RESULT:      -7.6      2.519      4.097
REMARK  Name = 
REMARK  5 active torsions:
REMARK  status: ('A' for Active; 'I' for Inactive)
REMARK    1  A    between atoms: C_1  and  N_2
REMARK    2  A    between atoms: C_4  and  C_5
REMARK    3  A    between atoms: C_9  and  O_10
REMARK    4  A    between atoms: O_10  and  C_11
REMARK    5  A    between atoms: C_11  and  C_12
REMARK                            x       y       z     vdW  Elec       q    Type
REMARK                         _______ _______ _______ _____ _____    ______ ____
ROOT
ATOM      1  C   UNL     1       3.508   4.021  19.217  0.00  0.00    +0.000 A 
ATOM      2  C   UNL     1       2.638   2.921  19.284  0.00  0.00    +0.000 A 
ATOM      3  C   UNL     1       1.377   3.049  19.868  0.00  0.00    +0.000 A 
ATOM      4  C   UNL     1       0.981   4.272  20.405  0.00  0.00    +0.000 A 
ATOM      5  C   UNL     1       1.843   5.368  20.377  0.00  0.00    +0.000 A 
ATOM      6  C   UNL     1       3.088   5.250  19.755  0.00  0.00    +0.000 A 
ENDROOT
BRANCH   1  10
ATOM      7  C   UNL     1       6.835   6.663  17.126  0.00  0.00    +0.000 C 
ATOM      8  N   UNL     1       6.134   5.703  17.940  0.00  0.00    +0.000 N 
ATOM      9  C   UNL     1       5.078   4.888  17.427  0.00  0.00    +0.000 C 
ATOM     10  C   UNL     1       4.852   3.870  18.535  0.00  0.00    +0.000 C 
ATOM     11  O   UNL     1       5.940   4.061  19.455  0.00  0.00    +0.000 OA
ATOM     12  C   UNL     1       6.688   5.132  19.058  0.00  0.00    +0.000 C 
ATOM     13  O   UNL     1       7.704   5.494  19.631  0.00  0.00    +0.000 OA
ENDBRANCH   1  10
BRANCH   5  14
ATOM     14  O   UNL     1       1.366   6.502  20.976  0.00  0.00    +0.000 OA
BRANCH  14  15
ATOM     15  C   UNL     1       1.890   7.737  20.478  0.00  0.00    +0.000 C 
BRANCH  15  16
ATOM     16  C   UNL     1       0.928   8.827  20.843  0.00  0.00    +0.000 A 
ATOM     17  N   UNL     1       0.318   9.579  19.950  0.00  0.00    +0.000 NA
ATOM     18  C   UNL     1      -0.485  10.509  20.579  0.00  0.00    +0.000 A 
ATOM     19  C   UNL     1      -1.260  11.492  19.932  0.00  0.00    +0.000 A 
ATOM     20  C   UNL     1      -2.015  12.391  20.690  0.00  0.00    +0.000 A 
ATOM     21  C   UNL     1      -2.012  12.314  22.079  0.00  0.00    +0.000 A 
ATOM     22  C   UNL     1      -1.263  11.336  22.745  0.00  0.00    +0.000 A 
ATOM     23  C   UNL     1      -0.501  10.443  21.973  0.00  0.00    +0.000 A 
ATOM     24  S   UNL     1       0.521   9.150  22.481  0.00  0.00    +0.000 S 
ENDBRANCH  15  16
ENDBRANCH  14  15
ENDBRANCH   5  14
TORSDOF 4
ENDMDL
MODEL 8
REMARK VINA RESULT:      -7.5      1.460      1.887
REMARK  Name = 
REMARK  5 active torsions:
REMARK  status: ('A' for Active; 'I' for Inactive)
REMARK    1  A    between atoms: C_1  and  N_2
REMARK    2  A    between atoms: C_4  and  C_5
REMARK    3  A    between atoms: C_9  and  O_10
REMARK    4  A    between atoms: O_10  and  C_11
REMARK    5  A    between atoms: C_11  and  C_12
REMARK                            x       y       z     vdW  Elec       q    Type
REMARK                         _______ _______ _______ _____ _____    ______ ____
ROOT
ATOM      1  C   UNL     1       4.012   4.257  17.521  0.00  0.00    +0.000 A 
ATOM      2  C   UNL     1       4.996   4.253  16.520  0.00  0.00    +0.000 A 
ATOM      3  C   UNL     1       5.452   5.451  15.968  0.00  0.00    +0.000 A 
ATOM      4  C   UNL     1       4.915   6.662  16.398  0.00  0.00    +0.000 A 
ATOM      5  C   UNL     1       3.912   6.686  17.367  0.00  0.00    +0.000 A 
ATOM      6  C   UNL     1       3.488   5.489  17.949  0.00  0.00    +0.000 A 
ENDROOT
BRANCH   1  10
ATOM      7  C   UNL     1       1.479   2.645  21.181  0.00  0.00    +0.000 C 
ATOM      8  N   UNL     1       2.038   2.870  19.873  0.00  0.00    +0.000 N 
ATOM      9  C   UNL     1       3.443   3.014  19.654  0.00  0.00    +0.000 C 
ATOM     10  C   UNL     1       3.568   2.947  18.139  0.00  0.00    +0.000 C 
ATOM     11  O   UNL     1       2.271   2.547  17.666  0.00  0.00    +0.000 OA
ATOM     12  C   UNL     1       1.403   2.487  18.719  0.00  0.00    +0.000 C 
ATOM     13  O   UNL     1       0.241   2.128  18.613  0.00  0.00    +0.000 OA
ENDBRANCH   1  10
BRANCH   5  14
ATOM     14  O   UNL     1       3.427   7.927  17.675  0.00  0.00    +0.000 OA
BRANCH  14  15
ATOM     15  C   UNL     1       2.014   8.008  17.889  0.00  0.00    +0.000 C 
BRANCH  15  16
ATOM     16  C   UNL     1       1.713   9.352  18.482  0.00  0.00    +0.000 A 
ATOM     17  N   UNL     1       2.052  10.487  17.904  0.00  0.00    +0.000 NA
ATOM     18  C   UNL     1       1.668  11.554  18.691  0.00  0.00    +0.000 A 
ATOM     19  C   UNL     1       1.898  12.912  18.395  0.00  0.00    +0.000 A 
ATOM     20  C   UNL     1       1.477  13.899  19.290  0.00  0.00    +0.000 A 
ATOM     21  C   UNL     1       0.823  13.547  20.466  0.00  0.00    +0.000 A 
ATOM     22  C   UNL     1       0.569  12.205  20.776  0.00  0.00    +0.000 A 
ATOM     23  C   UNL     1       1.005  11.222  19.873  0.00  0.00    +0.000 A 
ATOM     24  S   UNL     1       0.857   9.506  19.964  0.00  0.00    +0.000 S 
ENDBRANCH  15  16
ENDBRANCH  14  15
ENDBRANCH   5  14
TORSDOF 4
ENDMDL
MODEL 9
REMARK VINA RESULT:      -7.5      3.119      4.539
REMARK  Name = 
REMARK  5 active torsions:
REMARK  status: ('A' for Active; 'I' for Inactive)
REMARK    1  A    between atoms: C_1  and  N_2
REMARK    2  A    between atoms: C_4  and  C_5
REMARK    3  A    between atoms: C_9  and  O_10
REMARK    4  A    between atoms: O_10  and  C_11
REMARK    5  A    between atoms: C_11  and  C_12
REMARK                            x       y       z     vdW  Elec       q    Type
REMARK                         _______ _______ _______ _____ _____    ______ ____
ROOT
ATOM      1  C   UNL     1       3.732   5.198  18.574  0.00  0.00    +0.000 A 
ATOM      2  C   UNL     1       3.254   5.048  19.885  0.00  0.00    +0.000 A 
ATOM      3  C   UNL     1       2.380   5.988  20.433  0.00  0.00    +0.000 A 
ATOM      4  C   UNL     1       1.991   7.095  19.682  0.00  0.00    +0.000 A 
ATOM      5  C   UNL     1       2.481   7.280  18.390  0.00  0.00    +0.000 A 
ATOM      6  C   UNL     1       3.322   6.316  17.828  0.00  0.00    +0.000 A 
ENDROOT
BRANCH   1  10
ATOM      7  C   UNL     1       7.016   4.704  15.199  0.00  0.00    +0.000 C 
ATOM      8  N   UNL     1       6.283   4.661  16.438  0.00  0.00    +0.000 N 
ATOM      9  C   UNL     1       4.893   4.331  16.496  0.00  0.00    +0.000 C 
ATOM     10  C   UNL     1       4.641   4.139  17.984  0.00  0.00    +0.000 C 
ATOM     11  O   UNL     1       5.943   4.154  18.596  0.00  0.00    +0.000 OA
ATOM     12  C   UNL     1       6.885   4.438  17.650  0.00  0.00    +0.000 C 
ATOM     13  O   UNL     1       8.084   4.468  17.882  0.00  0.00    +0.000 OA
ENDBRANCH   1  10
BRANCH   5  14
ATOM     14  O   UNL     1       2.069   8.426  17.767  0.00  0.00    +0.000 OA
BRANCH  14  15
ATOM     15  C   UNL     1       1.882   9.564  18.616  0.00  0.00    +0.000 C 
BRANCH  15  16
ATOM     16  C   UNL     1       0.461  10.019  18.470  0.00  0.00    +0.000 A 
ATOM     17  N   UNL     1      -0.355   9.548  17.549  0.00  0.00    +0.000 NA
ATOM     18  C   UNL     1      -1.585  10.168  17.641  0.00  0.00    +0.000 A 
ATOM     19  C   UNL     1      -2.686   9.930  16.795  0.00  0.00    +0.000 A 
ATOM     20  C   UNL     1      -3.873  10.644  16.982  0.00  0.00    +0.000 A 
ATOM     21  C   UNL     1      -3.974  11.582  18.005  0.00  0.00    +0.000 A 
ATOM     22  C   UNL     1      -2.899  11.826  18.868  0.00  0.00    +0.000 A 
ATOM     23  C   UNL     1      -1.709  11.108  18.665  0.00  0.00    +0.000 A 
ATOM     24  S   UNL     1      -0.222  11.181  19.536  0.00  0.00    +0.000 S 
ENDBRANCH  15  16
ENDBRANCH  14  15
ENDBRANCH   5  14
TORSDOF 4
ENDMDL
