MODEL 1
REMARK VINA RESULT:      -7.0      0.000      0.000
REMARK  Name = 
REMARK  9 active torsions:
REMARK  status: ('A' for Active; 'I' for Inactive)
REMARK    1  A    between atoms: C_1  and  O_2
REMARK    2  A    between atoms: O_2  and  C_3
REMARK    3  A    between atoms: C_3  and  C_5
REMARK    4  A    between atoms: C_5  and  C_6
REMARK    5  A    between atoms: C_6  and  C_7
REMARK    6  A    between atoms: C_7  and  C_8
REMARK    7  A    between atoms: C_7  and  N_12
REMARK    8  A    between atoms: C_8  and  O_10
REMARK    9  A    between atoms: O_10  and  C_11
REMARK                            x       y       z     vdW  Elec       q    Type
REMARK                         _______ _______ _______ _____ _____    ______ ____
ROOT
ATOM      1  C   UNL     1       5.651   4.079  16.700  0.00  0.00    +0.000 C 
ENDROOT
BRANCH   1   2
ATOM      2  N   UNL     1       4.496   4.329  17.630  0.00  0.00    +0.000 N 
ATOM      3  C   UNL     1       3.759   3.319  18.240  0.00  0.00    +0.000 C 
ATOM      4  S   UNL     1       3.932   1.665  18.089  0.00  0.00    +0.000 S 
ATOM      5  C   UNL     1       2.756   3.970  19.092  0.00  0.00    +0.000 A 
ATOM      6  C   UNL     1       1.764   3.440  19.909  0.00  0.00    +0.000 A 
ATOM      7  C   UNL     1       0.989   4.324  20.668  0.00  0.00    +0.000 A 
ATOM      8  C   UNL     1       1.219   5.707  20.607  0.00  0.00    +0.000 A 
ATOM      9  C   UNL     1       2.202   6.227  19.760  0.00  0.00    +0.000 A 
ATOM     10  C   UNL     1       2.946   5.337  18.996  0.00  0.00    +0.000 A 
ATOM     11  C   UNL     1       4.013   5.578  18.013  0.00  0.00    +0.000 C 
ATOM     12  S   UNL     1       4.481   7.103  17.519  0.00  0.00    +0.000 S 
ENDBRANCH   1   2
BRANCH   1  13
ATOM     13  C   UNL     1       7.030   4.383  17.324  0.00  0.00    +0.000 C 
ATOM     14  O   UNL     1       8.062   4.466  16.668  0.00  0.00    +0.000 OA
BRANCH  13  15
ATOM     15  O   UNL     1       6.980   4.551  18.670  0.00  0.00    +0.000 OA
ATOM     16  C   UNL     1       7.638   5.725  19.153  0.00  0.00    +0.000 C 
ENDBRANCH  13  15
ENDBRANCH   1  13
BRANCH   1  17
ATOM     17  C   UNL     1       5.446   4.732  15.320  0.00  0.00    +0.000 C 
BRANCH  17  18
ATOM     18  C   UNL     1       5.791   3.839  14.120  0.00  0.00    +0.000 C 
BRANCH  18  19
ATOM     19  C   UNL     1       6.847   4.481  13.246  0.00  0.00    +0.000 C 
ATOM     20  O   UNL     1       7.604   5.375  13.595  0.00  0.00    +0.000 OA
BRANCH  19  22
ATOM     21  C   UNL     1       5.936   2.797  11.898  0.00  0.00    +0.000 C 
ATOM     22  O   UNL     1       6.835   3.903  12.012  0.00  0.00    +0.000 OA
ENDBRANCH  19  22
ENDBRANCH  18  19
ENDBRANCH  17  18
ENDBRANCH   1  17
TORSDOF 7
ENDMDL
MODEL 2
REMARK VINA RESULT:      -6.7      0.886      1.115
REMARK  Name = 
REMARK  9 active torsions:
REMARK  status: ('A' for Active; 'I' for Inactive)
REMARK    1  A    between atoms: C_1  and  O_2
REMARK    2  A    between atoms: O_2  and  C_3
REMARK    3  A    between atoms: C_3  and  C_5
REMARK    4  A    between atoms: C_5  and  C_6
REMARK    5  A    between atoms: C_6  and  C_7
REMARK    6  A    between atoms: C_7  and  C_8
REMARK    7  A    between atoms: C_7  and  N_12
REMARK    8  A    between atoms: C_8  and  O_10
REMARK    9  A    between atoms: O_10  and  C_11
REMARK                            x       y       z     vdW  Elec       q    Type
REMARK                         _______ _______ _______ _____ _____    ______ ____
ROOT
ATOM      1  C   UNL     1       5.731   4.131  16.394  0.00  0.00    +0.000 C 
ENDROOT
BRANCH   1   2
ATOM      2  N   UNL     1       4.618   4.411  17.366  0.00  0.00    +0.000 N 
ATOM      3  C   UNL     1       3.909   3.419  18.037  0.00  0.00    +0.000 C 
ATOM      4  S   UNL     1       4.075   1.762  17.928  0.00  0.00    +0.000 S 
ATOM      5  C   UNL     1       2.944   4.097  18.913  0.00  0.00    +0.000 A 
ATOM      6  C   UNL     1       1.989   3.593  19.788  0.00  0.00    +0.000 A 
ATOM      7  C   UNL     1       1.248   4.501  20.554  0.00  0.00    +0.000 A 
ATOM      8  C   UNL     1       1.475   5.881  20.442  0.00  0.00    +0.000 A 
ATOM      9  C   UNL     1       2.419   6.373  19.537  0.00  0.00    +0.000 A 
ATOM     10  C   UNL     1       3.130   5.461  18.768  0.00  0.00    +0.000 A 
ATOM     11  C   UNL     1       4.153   5.671  17.733  0.00  0.00    +0.000 C 
ATOM     12  S   UNL     1       4.599   7.180  17.174  0.00  0.00    +0.000 S 
ENDBRANCH   1   2
BRANCH   1  13
ATOM     13  C   UNL     1       7.054   4.848  16.739  0.00  0.00    +0.000 C 
ATOM     14  O   UNL     1       7.568   5.696  16.019  0.00  0.00    +0.000 OA
BRANCH  13  15
ATOM     15  O   UNL     1       7.586   4.444  17.921  0.00  0.00    +0.000 OA
ATOM     16  C   UNL     1       7.728   5.477  18.899  0.00  0.00    +0.000 C 
ENDBRANCH  13  15
ENDBRANCH   1  13
BRANCH   1  17
ATOM     17  C   UNL     1       5.295   4.325  14.930  0.00  0.00    +0.000 C 
BRANCH  17  18
ATOM     18  C   UNL     1       6.423   4.218  13.894  0.00  0.00    +0.000 C 
BRANCH  18  19
ATOM     19  C   UNL     1       5.965   3.469  12.661  0.00  0.00    +0.000 C 
ATOM     20  O   UNL     1       6.691   2.830  11.914  0.00  0.00    +0.000 OA
BRANCH  19  22
ATOM     21  C   UNL     1       4.128   3.193  11.237  0.00  0.00    +0.000 C 
ATOM     22  O   UNL     1       4.617   3.606  12.515  0.00  0.00    +0.000 OA
ENDBRANCH  19  22
ENDBRANCH  18  19
ENDBRANCH  17  18
ENDBRANCH   1  17
TORSDOF 7
ENDMDL
MODEL 3
REMARK VINA RESULT:      -6.6      0.418      2.114
REMARK  Name = 
REMARK  9 active torsions:
REMARK  status: ('A' for Active; 'I' for Inactive)
REMARK    1  A    between atoms: C_1  and  O_2
REMARK    2  A    between atoms: O_2  and  C_3
REMARK    3  A    between atoms: C_3  and  C_5
REMARK    4  A    between atoms: C_5  and  C_6
REMARK    5  A    between atoms: C_6  and  C_7
REMARK    6  A    between atoms: C_7  and  C_8
REMARK    7  A    between atoms: C_7  and  N_12
REMARK    8  A    between atoms: C_8  and  O_10
REMARK    9  A    between atoms: O_10  and  C_11
REMARK                            x       y       z     vdW  Elec       q    Type
REMARK                         _______ _______ _______ _____ _____    ______ ____
ROOT
ATOM      1  C   UNL     1       5.724   4.322  16.623  0.00  0.00    +0.000 C 
ENDROOT
BRANCH   1   2
ATOM      2  N   UNL     1       4.615   4.434  17.633  0.00  0.00    +0.000 N 
ATOM      3  C   UNL     1       4.106   5.644  18.094  0.00  0.00    +0.000 C 
ATOM      4  S   UNL     1       4.580   7.194  17.697  0.00  0.00    +0.000 S 
ATOM      5  C   UNL     1       3.020   5.326  19.030  0.00  0.00    +0.000 A 
ATOM      6  C   UNL     1       2.187   6.148  19.780  0.00  0.00    +0.000 A 
ATOM      7  C   UNL     1       1.180   5.548  20.546  0.00  0.00    +0.000 A 
ATOM      8  C   UNL     1       1.017   4.155  20.543  0.00  0.00    +0.000 A 
ATOM      9  C   UNL     1       1.880   3.340  19.806  0.00  0.00    +0.000 A 
ATOM     10  C   UNL     1       2.889   3.949  19.071  0.00  0.00    +0.000 A 
ATOM     11  C   UNL     1       3.947   3.368  18.231  0.00  0.00    +0.000 C 
ATOM     12  S   UNL     1       4.212   1.725  18.091  0.00  0.00    +0.000 S 
ENDBRANCH   1   2
BRANCH   1  13
ATOM     13  C   UNL     1       7.039   5.000  17.066  0.00  0.00    +0.000 C 
ATOM     14  O   UNL     1       7.609   5.859  16.404  0.00  0.00    +0.000 OA
BRANCH  13  15
ATOM     15  O   UNL     1       7.495   4.547  18.262  0.00  0.00    +0.000 OA
ATOM     16  C   UNL     1       7.755   5.566  19.230  0.00  0.00    +0.000 C 
ENDBRANCH  13  15
ENDBRANCH   1  13
BRANCH   1  17
ATOM     17  C   UNL     1       5.274   4.729  15.208  0.00  0.00    +0.000 C 
BRANCH  17  18
ATOM     18  C   UNL     1       5.668   3.751  14.093  0.00  0.00    +0.000 C 
BRANCH  18  19
ATOM     19  C   UNL     1       6.725   4.347  13.189  0.00  0.00    +0.000 C 
ATOM     20  O   UNL     1       7.455   5.284  13.480  0.00  0.00    +0.000 OA
BRANCH  19  22
ATOM     21  C   UNL     1       5.671   2.753  11.838  0.00  0.00    +0.000 C 
ATOM     22  O   UNL     1       6.751   3.674  12.005  0.00  0.00    +0.000 OA
ENDBRANCH  19  22
ENDBRANCH  18  19
ENDBRANCH  17  18
ENDBRANCH   1  17
TORSDOF 7
ENDMDL
MODEL 4
REMARK VINA RESULT:      -6.5      0.763      1.147
REMARK  Name = 
REMARK  9 active torsions:
REMARK  status: ('A' for Active; 'I' for Inactive)
REMARK    1  A    between atoms: C_1  and  O_2
REMARK    2  A    between atoms: O_2  and  C_3
REMARK    3  A    between atoms: C_3  and  C_5
REMARK    4  A    between atoms: C_5  and  C_6
REMARK    5  A    between atoms: C_6  and  C_7
REMARK    6  A    between atoms: C_7  and  C_8
REMARK    7  A    between atoms: C_7  and  N_12
REMARK    8  A    between atoms: C_8  and  O_10
REMARK    9  A    between atoms: O_10  and  C_11
REMARK                            x       y       z     vdW  Elec       q    Type
REMARK                         _______ _______ _______ _____ _____    ______ ____
ROOT
ATOM      1  C   UNL     1       5.781   4.100  16.556  0.00  0.00    +0.000 C 
ENDROOT
BRANCH   1   2
ATOM      2  N   UNL     1       4.641   4.398  17.492  0.00  0.00    +0.000 N 
ATOM      3  C   UNL     1       3.903   3.418  18.150  0.00  0.00    +0.000 C 
ATOM      4  S   UNL     1       4.059   1.759  18.060  0.00  0.00    +0.000 S 
ATOM      5  C   UNL     1       2.917   4.112  18.989  0.00  0.00    +0.000 A 
ATOM      6  C   UNL     1       1.932   3.623  19.839  0.00  0.00    +0.000 A 
ATOM      7  C   UNL     1       1.175   4.544  20.573  0.00  0.00    +0.000 A 
ATOM      8  C   UNL     1       1.417   5.922  20.456  0.00  0.00    +0.000 A 
ATOM      9  C   UNL     1       2.393   6.398  19.576  0.00  0.00    +0.000 A 
ATOM     10  C   UNL     1       3.119   5.473  18.837  0.00  0.00    +0.000 A 
ATOM     11  C   UNL     1       4.175   5.665  17.832  0.00  0.00    +0.000 C 
ATOM     12  S   UNL     1       4.651   7.165  17.274  0.00  0.00    +0.000 S 
ENDBRANCH   1   2
BRANCH   1  13
ATOM     13  C   UNL     1       7.079   4.865  16.894  0.00  0.00    +0.000 C 
ATOM     14  O   UNL     1       7.588   5.690  16.145  0.00  0.00    +0.000 OA
BRANCH  13  15
ATOM     15  O   UNL     1       7.594   4.530  18.105  0.00  0.00    +0.000 OA
ATOM     16  C   UNL     1       7.729   5.619  19.021  0.00  0.00    +0.000 C 
ENDBRANCH  13  15
ENDBRANCH   1  13
BRANCH   1  17
ATOM     17  C   UNL     1       5.372   4.214  15.076  0.00  0.00    +0.000 C 
BRANCH  17  18
ATOM     18  C   UNL     1       6.242   3.416  14.097  0.00  0.00    +0.000 C 
BRANCH  18  19
ATOM     19  C   UNL     1       5.831   3.673  12.663  0.00  0.00    +0.000 C 
ATOM     20  O   UNL     1       4.691   3.592  12.231  0.00  0.00    +0.000 OA
BRANCH  19  22
ATOM     21  C   UNL     1       7.654   5.128  12.463  0.00  0.00    +0.000 C 
ATOM     22  O   UNL     1       6.924   4.022  11.928  0.00  0.00    +0.000 OA
ENDBRANCH  19  22
ENDBRANCH  18  19
ENDBRANCH  17  18
ENDBRANCH   1  17
TORSDOF 7
ENDMDL
MODEL 5
REMARK VINA RESULT:      -6.4      2.894      4.718
REMARK  Name = 
REMARK  9 active torsions:
REMARK  status: ('A' for Active; 'I' for Inactive)
REMARK    1  A    between atoms: C_1  and  O_2
REMARK    2  A    between atoms: O_2  and  C_3
REMARK    3  A    between atoms: C_3  and  C_5
REMARK    4  A    between atoms: C_5  and  C_6
REMARK    5  A    between atoms: C_6  and  C_7
REMARK    6  A    between atoms: C_7  and  C_8
REMARK    7  A    between atoms: C_7  and  N_12
REMARK    8  A    between atoms: C_8  and  O_10
REMARK    9  A    between atoms: O_10  and  C_11
REMARK                            x       y       z     vdW  Elec       q    Type
REMARK                         _______ _______ _______ _____ _____    ______ ____
ROOT
ATOM      1  C   UNL     1       4.398   4.421  18.383  0.00  0.00    +0.000 C 
ENDROOT
BRANCH   1   2
ATOM      2  N   UNL     1       3.652   5.713  18.577  0.00  0.00    +0.000 N 
ATOM      3  C   UNL     1       3.754   6.802  17.717  0.00  0.00    +0.000 C 
ATOM      4  S   UNL     1       4.691   6.964  16.345  0.00  0.00    +0.000 S 
ATOM      5  C   UNL     1       2.851   7.841  18.228  0.00  0.00    +0.000 A 
ATOM      6  C   UNL     1       2.571   9.122  17.765  0.00  0.00    +0.000 A 
ATOM      7  C   UNL     1       1.596   9.869  18.434  0.00  0.00    +0.000 A 
ATOM      8  C   UNL     1       0.915   9.330  19.536  0.00  0.00    +0.000 A 
ATOM      9  C   UNL     1       1.227   8.052  20.007  0.00  0.00    +0.000 A 
ATOM     10  C   UNL     1       2.214   7.332  19.346  0.00  0.00    +0.000 A 
ATOM     11  C   UNL     1       2.769   5.997  19.615  0.00  0.00    +0.000 C 
ATOM     12  S   UNL     1       2.349   5.077  20.945  0.00  0.00    +0.000 S 
ENDBRANCH   1   2
BRANCH   1  13
ATOM     13  C   UNL     1       5.932   4.566  18.484  0.00  0.00    +0.000 C 
ATOM     14  O   UNL     1       6.704   4.149  17.630  0.00  0.00    +0.000 OA
BRANCH  13  15
ATOM     15  O   UNL     1       6.333   5.203  19.614  0.00  0.00    +0.000 OA
ATOM     16  C   UNL     1       7.686   5.665  19.593  0.00  0.00    +0.000 C 
ENDBRANCH  13  15
ENDBRANCH   1  13
BRANCH   1  17
ATOM     17  C   UNL     1       3.937   3.660  17.126  0.00  0.00    +0.000 C 
BRANCH  17  18
ATOM     18  C   UNL     1       2.709   2.760  17.324  0.00  0.00    +0.000 C 
BRANCH  18  19
ATOM     19  C   UNL     1       2.917   1.794  18.470  0.00  0.00    +0.000 C 
ATOM     20  O   UNL     1       3.869   1.036  18.590  0.00  0.00    +0.000 OA
BRANCH  19  22
ATOM     21  C   UNL     1       0.721   2.527  18.815  0.00  0.00    +0.000 C 
ATOM     22  O   UNL     1       1.888   1.904  19.356  0.00  0.00    +0.000 OA
ENDBRANCH  19  22
ENDBRANCH  18  19
ENDBRANCH  17  18
ENDBRANCH   1  17
TORSDOF 7
ENDMDL
MODEL 6
REMARK VINA RESULT:      -6.4      0.842      1.353
REMARK  Name = 
REMARK  9 active torsions:
REMARK  status: ('A' for Active; 'I' for Inactive)
REMARK    1  A    between atoms: C_1  and  O_2
REMARK    2  A    between atoms: O_2  and  C_3
REMARK    3  A    between atoms: C_3  and  C_5
REMARK    4  A    between atoms: C_5  and  C_6
REMARK    5  A    between atoms: C_6  and  C_7
REMARK    6  A    between atoms: C_7  and  C_8
REMARK    7  A    between atoms: C_7  and  N_12
REMARK    8  A    between atoms: C_8  and  O_10
REMARK    9  A    between atoms: O_10  and  C_11
REMARK                            x       y       z     vdW  Elec       q    Type
REMARK                         _______ _______ _______ _____ _____    ______ ____
ROOT
ATOM      1  C   UNL     1       5.640   4.195  17.013  0.00  0.00    +0.000 C 
ENDROOT
BRANCH   1   2
ATOM      2  N   UNL     1       4.561   4.773  17.888  0.00  0.00    +0.000 N 
ATOM      3  C   UNL     1       3.845   4.035  18.825  0.00  0.00    +0.000 C 
ATOM      4  S   UNL     1       3.964   2.409  19.184  0.00  0.00    +0.000 S 
ATOM      5  C   UNL     1       2.922   4.962  19.492  0.00  0.00    +0.000 A 
ATOM      6  C   UNL     1       1.979   4.756  20.492  0.00  0.00    +0.000 A 
ATOM      7  C   UNL     1       1.283   5.867  20.984  0.00  0.00    +0.000 A 
ATOM      8  C   UNL     1       1.543   7.151  20.483  0.00  0.00    +0.000 A 
ATOM      9  C   UNL     1       2.475   7.338  19.459  0.00  0.00    +0.000 A 
ATOM     10  C   UNL     1       3.140   6.223  18.965  0.00  0.00    +0.000 A 
ATOM     11  C   UNL     1       4.139   6.101  17.893  0.00  0.00    +0.000 C 
ATOM     12  S   UNL     1       4.609   7.376  16.923  0.00  0.00    +0.000 S 
ENDBRANCH   1   2
BRANCH   1  13
ATOM     13  C   UNL     1       7.070   4.472  17.524  0.00  0.00    +0.000 C 
ATOM     14  O   UNL     1       8.056   4.470  16.796  0.00  0.00    +0.000 OA
BRANCH  13  15
ATOM     15  O   UNL     1       7.121   4.718  18.858  0.00  0.00    +0.000 OA
ATOM     16  C   UNL     1       7.839   5.899  19.223  0.00  0.00    +0.000 C 
ENDBRANCH  13  15
ENDBRANCH   1  13
BRANCH   1  17
ATOM     17  C   UNL     1       5.442   4.547  15.527  0.00  0.00    +0.000 C 
BRANCH  17  18
ATOM     18  C   UNL     1       5.934   3.484  14.535  0.00  0.00    +0.000 C 
BRANCH  18  19
ATOM     19  C   UNL     1       6.616   4.120  13.344  0.00  0.00    +0.000 C 
ATOM     20  O   UNL     1       6.556   3.710  12.194  0.00  0.00    +0.000 OA
BRANCH  19  22
ATOM     21  C   UNL     1       8.292   5.666  12.813  0.00  0.00    +0.000 C 
ATOM     22  O   UNL     1       7.300   5.229  13.744  0.00  0.00    +0.000 OA
ENDBRANCH  19  22
ENDBRANCH  18  19
ENDBRANCH  17  18
ENDBRANCH   1  17
TORSDOF 7
ENDMDL
MODEL 7
REMARK VINA RESULT:      -6.3      0.822      1.366
REMARK  Name = 
REMARK  9 active torsions:
REMARK  status: ('A' for Active; 'I' for Inactive)
REMARK    1  A    between atoms: C_1  and  O_2
REMARK    2  A    between atoms: O_2  and  C_3
REMARK    3  A    between atoms: C_3  and  C_5
REMARK    4  A    between atoms: C_5  and  C_6
REMARK    5  A    between atoms: C_6  and  C_7
REMARK    6  A    between atoms: C_7  and  C_8
REMARK    7  A    between atoms: C_7  and  N_12
REMARK    8  A    between atoms: C_8  and  O_10
REMARK    9  A    between atoms: O_10  and  C_11
REMARK                            x       y       z     vdW  Elec       q    Type
REMARK                         _______ _______ _______ _____ _____    ______ ____
ROOT
ATOM      1  C   UNL     1       5.700   4.426  16.640  0.00  0.00    +0.000 C 
ENDROOT
BRANCH   1   2
ATOM      2  N   UNL     1       4.529   4.464  17.584  0.00  0.00    +0.000 N 
ATOM      3  C   UNL     1       3.941   3.330  18.135  0.00  0.00    +0.000 C 
ATOM      4  S   UNL     1       4.336   1.727  17.891  0.00  0.00    +0.000 S 
ATOM      5  C   UNL     1       2.866   3.790  19.024  0.00  0.00    +0.000 A 
ATOM      6  C   UNL     1       1.962   3.086  19.810  0.00  0.00    +0.000 A 
ATOM      7  C   UNL     1       1.080   3.813  20.618  0.00  0.00    +0.000 A 
ATOM      8  C   UNL     1       1.120   5.216  20.635  0.00  0.00    +0.000 A 
ATOM      9  C   UNL     1       2.016   5.910  19.818  0.00  0.00    +0.000 A 
ATOM     10  C   UNL     1       2.868   5.174  19.005  0.00  0.00    +0.000 A 
ATOM     11  C   UNL     1       3.885   5.613  18.037  0.00  0.00    +0.000 C 
ATOM     12  S   UNL     1       4.137   7.213  17.629  0.00  0.00    +0.000 S 
ENDBRANCH   1   2
BRANCH   1  13
ATOM     13  C   UNL     1       7.009   4.971  17.250  0.00  0.00    +0.000 C 
ATOM     14  O   UNL     1       7.607   4.416  18.164  0.00  0.00    +0.000 OA
BRANCH  13  15
ATOM     15  O   UNL     1       7.427   6.124  16.669  0.00  0.00    +0.000 OA
ATOM     16  C   UNL     1       7.696   7.192  17.581  0.00  0.00    +0.000 C 
ENDBRANCH  13  15
ENDBRANCH   1  13
BRANCH   1  17
ATOM     17  C   UNL     1       5.366   5.033  15.265  0.00  0.00    +0.000 C 
BRANCH  17  18
ATOM     18  C   UNL     1       5.296   4.027  14.108  0.00  0.00    +0.000 C 
BRANCH  18  19
ATOM     19  C   UNL     1       6.527   4.115  13.231  0.00  0.00    +0.000 C 
ATOM     20  O   UNL     1       6.741   3.425  12.245  0.00  0.00    +0.000 OA
BRANCH  19  22
ATOM     21  C   UNL     1       8.197   5.666  12.698  0.00  0.00    +0.000 C 
ATOM     22  O   UNL     1       7.357   5.089  13.699  0.00  0.00    +0.000 OA
ENDBRANCH  19  22
ENDBRANCH  18  19
ENDBRANCH  17  18
ENDBRANCH   1  17
TORSDOF 7
ENDMDL
MODEL 8
REMARK VINA RESULT:      -6.2      0.548      2.362
REMARK  Name = 
REMARK  9 active torsions:
REMARK  status: ('A' for Active; 'I' for Inactive)
REMARK    1  A    between atoms: C_1  and  O_2
REMARK    2  A    between atoms: O_2  and  C_3
REMARK    3  A    between atoms: C_3  and  C_5
REMARK    4  A    between atoms: C_5  and  C_6
REMARK    5  A    between atoms: C_6  and  C_7
REMARK    6  A    between atoms: C_7  and  C_8
REMARK    7  A    between atoms: C_7  and  N_12
REMARK    8  A    between atoms: C_8  and  O_10
REMARK    9  A    between atoms: O_10  and  C_11
REMARK                            x       y       z     vdW  Elec       q    Type
REMARK                         _______ _______ _______ _____ _____    ______ ____
ROOT
ATOM      1  C   UNL     1       5.775   4.169  16.742  0.00  0.00    +0.000 C 
ENDROOT
BRANCH   1   2
ATOM      2  N   UNL     1       4.638   4.347  17.711  0.00  0.00    +0.000 N 
ATOM      3  C   UNL     1       4.172   5.586  18.139  0.00  0.00    +0.000 C 
ATOM      4  S   UNL     1       4.734   7.106  17.740  0.00  0.00    +0.000 S 
ATOM      5  C   UNL     1       3.040   5.334  19.040  0.00  0.00    +0.000 A 
ATOM      6  C   UNL     1       2.222   6.205  19.749  0.00  0.00    +0.000 A 
ATOM      7  C   UNL     1       1.161   5.665  20.485  0.00  0.00    +0.000 A 
ATOM      8  C   UNL     1       0.931   4.281  20.495  0.00  0.00    +0.000 A 
ATOM      9  C   UNL     1       1.779   3.416  19.799  0.00  0.00    +0.000 A 
ATOM     10  C   UNL     1       2.841   3.965  19.092  0.00  0.00    +0.000 A 
ATOM     11  C   UNL     1       3.899   3.323  18.298  0.00  0.00    +0.000 C 
ATOM     12  S   UNL     1       4.089   1.667  18.187  0.00  0.00    +0.000 S 
ENDBRANCH   1   2
BRANCH   1  13
ATOM     13  C   UNL     1       7.098   4.812  17.212  0.00  0.00    +0.000 C 
ATOM     14  O   UNL     1       7.766   5.564  16.512  0.00  0.00    +0.000 OA
BRANCH  13  15
ATOM     15  O   UNL     1       7.442   4.459  18.477  0.00  0.00    +0.000 OA
ATOM     16  C   UNL     1       7.817   5.550  19.322  0.00  0.00    +0.000 C 
ENDBRANCH  13  15
ENDBRANCH   1  13
BRANCH   1  17
ATOM     17  C   UNL     1       5.387   4.551  15.302  0.00  0.00    +0.000 C 
BRANCH  17  18
ATOM     18  C   UNL     1       5.765   3.521  14.230  0.00  0.00    +0.000 C 
BRANCH  18  19
ATOM     19  C   UNL     1       6.616   4.146  13.146  0.00  0.00    +0.000 C 
ATOM     20  O   UNL     1       6.680   3.759  11.988  0.00  0.00    +0.000 OA
BRANCH  19  22
ATOM     21  C   UNL     1       8.314   5.717  12.787  0.00  0.00    +0.000 C 
ATOM     22  O   UNL     1       7.292   5.216  13.651  0.00  0.00    +0.000 OA
ENDBRANCH  19  22
ENDBRANCH  18  19
ENDBRANCH  17  18
ENDBRANCH   1  17
TORSDOF 7
ENDMDL
MODEL 9
REMARK VINA RESULT:      -6.1      2.709      4.365
REMARK  Name = 
REMARK  9 active torsions:
REMARK  status: ('A' for Active; 'I' for Inactive)
REMARK    1  A    between atoms: C_1  and  O_2
REMARK    2  A    between atoms: O_2  and  C_3
REMARK    3  A    between atoms: C_3  and  C_5
REMARK    4  A    between atoms: C_5  and  C_6
REMARK    5  A    between atoms: C_6  and  C_7
REMARK    6  A    between atoms: C_7  and  C_8
REMARK    7  A    between atoms: C_7  and  N_12
REMARK    8  A    between atoms: C_8  and  O_10
REMARK    9  A    between atoms: O_10  and  C_11
REMARK                            x       y       z     vdW  Elec       q    Type
REMARK                         _______ _______ _______ _____ _____    ______ ____
ROOT
ATOM      1  C   UNL     1       4.899   4.319  18.282  0.00  0.00    +0.000 C 
ENDROOT
BRANCH   1   2
ATOM      2  N   UNL     1       4.027   5.538  18.406  0.00  0.00    +0.000 N 
ATOM      3  C   UNL     1       3.140   5.752  19.456  0.00  0.00    +0.000 C 
ATOM      4  S   UNL     1       2.808   4.763  20.759  0.00  0.00    +0.000 S 
ATOM      5  C   UNL     1       2.513   7.061  19.232  0.00  0.00    +0.000 A 
ATOM      6  C   UNL     1       1.554   7.755  19.961  0.00  0.00    +0.000 A 
ATOM      7  C   UNL     1       1.194   9.037  19.528  0.00  0.00    +0.000 A 
ATOM      8  C   UNL     1       1.796   9.603  18.394  0.00  0.00    +0.000 A 
ATOM      9  C   UNL     1       2.738   8.881  17.656  0.00  0.00    +0.000 A 
ATOM     10  C   UNL     1       3.067   7.601  18.084  0.00  0.00    +0.000 A 
ATOM     11  C   UNL     1       3.988   6.607  17.514  0.00  0.00    +0.000 C 
ATOM     12  S   UNL     1       4.786   6.819  16.062  0.00  0.00    +0.000 S 
ENDBRANCH   1   2
BRANCH   1  13
ATOM     13  C   UNL     1       6.411   4.634  18.267  0.00  0.00    +0.000 C 
ATOM     14  O   UNL     1       7.135   4.409  17.305  0.00  0.00    +0.000 OA
BRANCH  13  15
ATOM     15  O   UNL     1       6.851   5.185  19.427  0.00  0.00    +0.000 OA
ATOM     16  C   UNL     1       7.952   6.085  19.283  0.00  0.00    +0.000 C 
ENDBRANCH  13  15
ENDBRANCH   1  13
BRANCH   1  17
ATOM     17  C   UNL     1       4.457   3.394  17.133  0.00  0.00    +0.000 C 
BRANCH  17  18
ATOM     18  C   UNL     1       2.938   3.249  16.962  0.00  0.00    +0.000 C 
BRANCH  18  19
ATOM     19  C   UNL     1       2.363   2.282  17.974  0.00  0.00    +0.000 C 
ATOM     20  O   UNL     1       3.004   1.444  18.593  0.00  0.00    +0.000 OA
BRANCH  19  22
ATOM     21  C   UNL     1       0.552   2.425  19.450  0.00  0.00    +0.000 C 
ATOM     22  O   UNL     1       1.023   2.493  18.103  0.00  0.00    +0.000 OA
ENDBRANCH  19  22
ENDBRANCH  18  19
ENDBRANCH  17  18
ENDBRANCH   1  17
TORSDOF 7
ENDMDL
