MODEL 1
REMARK VINA RESULT:      -7.1      0.000      0.000
REMARK  Name = 
REMARK  4 active torsions:
REMARK  status: ('A' for Active; 'I' for Inactive)
REMARK    1  A    between atoms: C_2  and  C_3
REMARK    2  A    between atoms: C_3  and  O_4
REMARK    3  A    between atoms: O_4  and  C_5
REMARK    4  A    between atoms: C_13  and  C_14
REMARK                            x       y       z     vdW  Elec       q    Type
REMARK                         _______ _______ _______ _____ _____    ______ ____
ROOT
ATOM      1  O   UNL     1       2.363   6.590  19.966  0.00  0.00    +0.000 OA
ATOM      2  C   UNL     1       3.145   6.138  19.128  0.00  0.00    +0.000 C 
ATOM      3  N   UNL     1       4.485   6.117  19.430  0.00  0.00    +0.000 N 
ATOM      4  C   UNL     1       5.463   5.703  18.571  0.00  0.00    +0.000 A 
ATOM      5  N   UNL     1       5.374   5.539  17.280  0.00  0.00    +0.000 NA
ATOM      6  C   UNL     1       6.562   5.035  16.795  0.00  0.00    +0.000 A 
ATOM      7  C   UNL     1       7.524   4.781  17.752  0.00  0.00    +0.000 A 
ATOM      8  S   UNL     1       6.964   5.333  19.285  0.00  0.00    +0.000 S 
ATOM      9  H   UNL     1       4.740   6.384  20.368  0.00  0.00    +0.000 HD
ENDROOT
BRANCH   6  10
ATOM     10  C   UNL     1       6.757   4.790  15.341  0.00  0.00    +0.000 A 
ATOM     11  C   UNL     1       6.026   3.895  14.580  0.00  0.00    +0.000 A 
ATOM     12  C   UNL     1       6.519   3.984  13.257  0.00  0.00    +0.000 A 
ATOM     13  C   UNL     1       7.519   4.925  13.290  0.00  0.00    +0.000 A 
ATOM     14  O   UNL     1       7.667   5.427  14.545  0.00  0.00    +0.000 OA
ENDBRANCH   6  10
BRANCH   2  15
ATOM     15  C   UNL     1       2.687   5.533  17.790  0.00  0.00    +0.000 C 
BRANCH  15  16
ATOM     16  O   UNL     1       1.400   4.929  17.763  0.00  0.00    +0.000 OA
BRANCH  16  17
ATOM     17  C   UNL     1       1.482   3.524  17.984  0.00  0.00    +0.000 C 
ATOM     18  C   UNL     1       2.869   2.999  17.650  0.00  0.00    +0.000 C 
ATOM     19  C   UNL     1       2.920   1.648  18.354  0.00  0.00    +0.000 C 
ATOM     20  C   UNL     1       2.011   1.779  19.573  0.00  0.00    +0.000 C 
ATOM     21  C   UNL     1       1.344   3.144  19.456  0.00  0.00    +0.000 C 
ENDBRANCH  16  17
ENDBRANCH  15  16
ENDBRANCH   2  15
TORSDOF 4
ENDMDL
MODEL 2
REMARK VINA RESULT:      -6.8      2.926      4.689
REMARK  Name = 
REMARK  4 active torsions:
REMARK  status: ('A' for Active; 'I' for Inactive)
REMARK    1  A    between atoms: C_2  and  C_3
REMARK    2  A    between atoms: C_3  and  O_4
REMARK    3  A    between atoms: O_4  and  C_5
REMARK    4  A    between atoms: C_13  and  C_14
REMARK                            x       y       z     vdW  Elec       q    Type
REMARK                         _______ _______ _______ _____ _____    ______ ____
ROOT
ATOM      1  O   UNL     1       3.796   1.098  17.894  0.00  0.00    +0.000 OA
ATOM      2  C   UNL     1       3.595   2.308  17.792  0.00  0.00    +0.000 C 
ATOM      3  N   UNL     1       4.680   3.143  17.675  0.00  0.00    +0.000 N 
ATOM      4  C   UNL     1       4.602   4.506  17.619  0.00  0.00    +0.000 A 
ATOM      5  N   UNL     1       3.589   5.261  17.943  0.00  0.00    +0.000 NA
ATOM      6  C   UNL     1       3.888   6.578  17.667  0.00  0.00    +0.000 A 
ATOM      7  C   UNL     1       5.123   6.789  17.087  0.00  0.00    +0.000 A 
ATOM      8  S   UNL     1       5.987   5.300  17.026  0.00  0.00    +0.000 S 
ATOM      9  H   UNL     1       5.581   2.701  17.578  0.00  0.00    +0.000 HD
ENDROOT
BRANCH   6  10
ATOM     10  C   UNL     1       2.924   7.667  17.980  0.00  0.00    +0.000 A 
ATOM     11  C   UNL     1       2.263   7.823  19.185  0.00  0.00    +0.000 A 
ATOM     12  C   UNL     1       1.461   8.982  19.067  0.00  0.00    +0.000 A 
ATOM     13  C   UNL     1       1.680   9.462  17.798  0.00  0.00    +0.000 A 
ATOM     14  O   UNL     1       2.570   8.680  17.133  0.00  0.00    +0.000 OA
ENDBRANCH   6  10
BRANCH   2  15
ATOM     15  C   UNL     1       2.187   2.924  17.721  0.00  0.00    +0.000 C 
BRANCH  15  16
ATOM     16  O   UNL     1       1.168   2.289  18.482  0.00  0.00    +0.000 OA
BRANCH  16  17
ATOM     17  C   UNL     1       1.031   2.887  19.767  0.00  0.00    +0.000 C 
ATOM     18  C   UNL     1       2.093   2.371  20.725  0.00  0.00    +0.000 C 
ATOM     19  C   UNL     1       2.098   3.404  21.845  0.00  0.00    +0.000 C 
ATOM     20  C   UNL     1       1.690   4.724  21.196  0.00  0.00    +0.000 C 
ATOM     21  C   UNL     1       1.313   4.388  19.759  0.00  0.00    +0.000 C 
ENDBRANCH  16  17
ENDBRANCH  15  16
ENDBRANCH   2  15
TORSDOF 4
ENDMDL
MODEL 3
REMARK VINA RESULT:      -6.7      2.016      6.237
REMARK  Name = 
REMARK  4 active torsions:
REMARK  status: ('A' for Active; 'I' for Inactive)
REMARK    1  A    between atoms: C_2  and  C_3
REMARK    2  A    between atoms: C_3  and  O_4
REMARK    3  A    between atoms: O_4  and  C_5
REMARK    4  A    between atoms: C_13  and  C_14
REMARK                            x       y       z     vdW  Elec       q    Type
REMARK                         _______ _______ _______ _____ _____    ______ ____
ROOT
ATOM      1  O   UNL     1       8.067   5.528  13.786  0.00  0.00    +0.000 OA
ATOM      2  C   UNL     1       7.244   5.224  14.650  0.00  0.00    +0.000 C 
ATOM      3  N   UNL     1       7.547   5.492  15.963  0.00  0.00    +0.000 N 
ATOM      4  C   UNL     1       6.755   5.150  17.023  0.00  0.00    +0.000 A 
ATOM      5  N   UNL     1       5.767   4.298  17.039  0.00  0.00    +0.000 NA
ATOM      6  C   UNL     1       5.176   4.301  18.284  0.00  0.00    +0.000 A 
ATOM      7  C   UNL     1       5.708   5.202  19.183  0.00  0.00    +0.000 A 
ATOM      8  S   UNL     1       7.087   5.961  18.483  0.00  0.00    +0.000 S 
ATOM      9  H   UNL     1       8.391   6.016  16.133  0.00  0.00    +0.000 HD
ENDROOT
BRANCH   6  10
ATOM     10  C   UNL     1       4.045   3.387  18.600  0.00  0.00    +0.000 A 
ATOM     11  C   UNL     1       3.047   3.644  19.523  0.00  0.00    +0.000 A 
ATOM     12  C   UNL     1       2.171   2.534  19.500  0.00  0.00    +0.000 A 
ATOM     13  C   UNL     1       2.687   1.667  18.569  0.00  0.00    +0.000 A 
ATOM     14  O   UNL     1       3.818   2.175  18.010  0.00  0.00    +0.000 OA
ENDBRANCH   6  10
BRANCH   2  15
ATOM     15  C   UNL     1       5.866   4.624  14.326  0.00  0.00    +0.000 C 
BRANCH  15  16
ATOM     16  O   UNL     1       5.589   4.348  12.959  0.00  0.00    +0.000 OA
BRANCH  16  17
ATOM     17  C   UNL     1       6.069   3.061  12.581  0.00  0.00    +0.000 C 
ATOM     18  C   UNL     1       5.075   2.353  11.674  0.00  0.00    +0.000 C 
ATOM     19  C   UNL     1       5.906   1.257  11.019  0.00  0.00    +0.000 C 
ATOM     20  C   UNL     1       7.331   1.800  10.948  0.00  0.00    +0.000 C 
ATOM     21  C   UNL     1       7.314   3.124  11.700  0.00  0.00    +0.000 C 
ENDBRANCH  16  17
ENDBRANCH  15  16
ENDBRANCH   2  15
TORSDOF 4
ENDMDL
MODEL 4
REMARK VINA RESULT:      -6.7      2.340      3.649
REMARK  Name = 
REMARK  4 active torsions:
REMARK  status: ('A' for Active; 'I' for Inactive)
REMARK    1  A    between atoms: C_2  and  C_3
REMARK    2  A    between atoms: C_3  and  O_4
REMARK    3  A    between atoms: O_4  and  C_5
REMARK    4  A    between atoms: C_13  and  C_14
REMARK                            x       y       z     vdW  Elec       q    Type
REMARK                         _______ _______ _______ _____ _____    ______ ____
ROOT
ATOM      1  O   UNL     1       2.140   2.559  17.322  0.00  0.00    +0.000 OA
ATOM      2  C   UNL     1       3.025   3.412  17.256  0.00  0.00    +0.000 C 
ATOM      3  N   UNL     1       4.061   3.212  16.375  0.00  0.00    +0.000 N 
ATOM      4  C   UNL     1       5.137   4.044  16.247  0.00  0.00    +0.000 A 
ATOM      5  N   UNL     1       5.533   4.970  17.077  0.00  0.00    +0.000 NA
ATOM      6  C   UNL     1       6.614   5.638  16.541  0.00  0.00    +0.000 A 
ATOM      7  C   UNL     1       6.989   5.226  15.279  0.00  0.00    +0.000 A 
ATOM      8  S   UNL     1       6.045   3.861  14.818  0.00  0.00    +0.000 S 
ATOM      9  H   UNL     1       3.982   2.418  15.759  0.00  0.00    +0.000 HD
ENDROOT
BRANCH   6  10
ATOM     10  C   UNL     1       7.299   6.721  17.297  0.00  0.00    +0.000 A 
ATOM     11  C   UNL     1       7.921   6.566  18.523  0.00  0.00    +0.000 A 
ATOM     12  C   UNL     1       8.452   7.829  18.875  0.00  0.00    +0.000 A 
ATOM     13  C   UNL     1       8.121   8.677  17.847  0.00  0.00    +0.000 A 
ATOM     14  O   UNL     1       7.429   8.017  16.880  0.00  0.00    +0.000 OA
ENDBRANCH   6  10
BRANCH   2  15
ATOM     15  C   UNL     1       2.993   4.723  18.060  0.00  0.00    +0.000 C 
BRANCH  15  16
ATOM     16  O   UNL     1       1.766   5.060  18.694  0.00  0.00    +0.000 OA
BRANCH  16  17
ATOM     17  C   UNL     1       1.733   4.598  20.040  0.00  0.00    +0.000 C 
ATOM     18  C   UNL     1       0.752   3.446  20.199  0.00  0.00    +0.000 C 
ATOM     19  C   UNL     1       1.169   2.799  21.514  0.00  0.00    +0.000 C 
ATOM     20  C   UNL     1       2.670   3.047  21.644  0.00  0.00    +0.000 C 
ATOM     21  C   UNL     1       3.047   3.958  20.483  0.00  0.00    +0.000 C 
ENDBRANCH  16  17
ENDBRANCH  15  16
ENDBRANCH   2  15
TORSDOF 4
ENDMDL
MODEL 5
REMARK VINA RESULT:      -6.6      1.930      6.136
REMARK  Name = 
REMARK  4 active torsions:
REMARK  status: ('A' for Active; 'I' for Inactive)
REMARK    1  A    between atoms: C_2  and  C_3
REMARK    2  A    between atoms: C_3  and  O_4
REMARK    3  A    between atoms: O_4  and  C_5
REMARK    4  A    between atoms: C_13  and  C_14
REMARK                            x       y       z     vdW  Elec       q    Type
REMARK                         _______ _______ _______ _____ _____    ______ ____
ROOT
ATOM      1  O   UNL     1       7.657   6.653  16.294  0.00  0.00    +0.000 OA
ATOM      2  C   UNL     1       6.561   6.200  16.622  0.00  0.00    +0.000 C 
ATOM      3  N   UNL     1       5.641   7.057  17.177  0.00  0.00    +0.000 N 
ATOM      4  C   UNL     1       4.415   6.675  17.644  0.00  0.00    +0.000 A 
ATOM      5  N   UNL     1       4.006   5.467  17.918  0.00  0.00    +0.000 NA
ATOM      6  C   UNL     1       2.678   5.502  18.288  0.00  0.00    +0.000 A 
ATOM      7  C   UNL     1       2.090   6.749  18.241  0.00  0.00    +0.000 A 
ATOM      8  S   UNL     1       3.285   7.931  17.860  0.00  0.00    +0.000 S 
ATOM      9  H   UNL     1       5.886   8.035  17.191  0.00  0.00    +0.000 HD
ENDROOT
BRANCH   6  10
ATOM     10  C   UNL     1       1.962   4.264  18.699  0.00  0.00    +0.000 A 
ATOM     11  C   UNL     1       1.273   4.100  19.888  0.00  0.00    +0.000 A 
ATOM     12  C   UNL     1       0.734   2.793  19.872  0.00  0.00    +0.000 A 
ATOM     13  C   UNL     1       1.127   2.238  18.679  0.00  0.00    +0.000 A 
ATOM     14  O   UNL     1       1.865   3.122  17.955  0.00  0.00    +0.000 OA
ENDBRANCH   6  10
BRANCH   2  15
ATOM     15  C   UNL     1       6.146   4.740  16.379  0.00  0.00    +0.000 C 
BRANCH  15  16
ATOM     16  O   UNL     1       5.355   4.478  15.227  0.00  0.00    +0.000 OA
BRANCH  16  17
ATOM     17  C   UNL     1       6.126   3.871  14.195  0.00  0.00    +0.000 C 
ATOM     18  C   UNL     1       5.238   3.411  13.049  0.00  0.00    +0.000 C 
ATOM     19  C   UNL     1       6.213   3.228  11.892  0.00  0.00    +0.000 C 
ATOM     20  C   UNL     1       7.340   4.230  12.133  0.00  0.00    +0.000 C 
ATOM     21  C   UNL     1       7.064   4.852  13.496  0.00  0.00    +0.000 C 
ENDBRANCH  16  17
ENDBRANCH  15  16
ENDBRANCH   2  15
TORSDOF 4
ENDMDL
MODEL 6
REMARK VINA RESULT:      -6.6      1.859      6.049
REMARK  Name = 
REMARK  4 active torsions:
REMARK  status: ('A' for Active; 'I' for Inactive)
REMARK    1  A    between atoms: C_2  and  C_3
REMARK    2  A    between atoms: C_3  and  O_4
REMARK    3  A    between atoms: O_4  and  C_5
REMARK    4  A    between atoms: C_13  and  C_14
REMARK                            x       y       z     vdW  Elec       q    Type
REMARK                         _______ _______ _______ _____ _____    ______ ____
ROOT
ATOM      1  O   UNL     1       7.864   7.381  16.716  0.00  0.00    +0.000 OA
ATOM      2  C   UNL     1       6.846   6.720  16.919  0.00  0.00    +0.000 C 
ATOM      3  N   UNL     1       5.723   7.373  17.367  0.00  0.00    +0.000 N 
ATOM      4  C   UNL     1       4.549   6.753  17.692  0.00  0.00    +0.000 A 
ATOM      5  N   UNL     1       4.352   5.484  17.919  0.00  0.00    +0.000 NA
ATOM      6  C   UNL     1       3.010   5.256  18.138  0.00  0.00    +0.000 A 
ATOM      7  C   UNL     1       2.202   6.369  18.024  0.00  0.00    +0.000 A 
ATOM      8  S   UNL     1       3.181   7.765  17.780  0.00  0.00    +0.000 S 
ATOM      9  H   UNL     1       5.771   8.379  17.408  0.00  0.00    +0.000 HD
ENDROOT
BRANCH   6  10
ATOM     10  C   UNL     1       2.505   3.896  18.466  0.00  0.00    +0.000 A 
ATOM     11  C   UNL     1       1.438   3.623  19.303  0.00  0.00    +0.000 A 
ATOM     12  C   UNL     1       1.285   2.217  19.328  0.00  0.00    +0.000 A 
ATOM     13  C   UNL     1       2.266   1.717  18.507  0.00  0.00    +0.000 A 
ATOM     14  O   UNL     1       3.007   2.724  17.972  0.00  0.00    +0.000 OA
ENDBRANCH   6  10
BRANCH   2  15
ATOM     15  C   UNL     1       6.749   5.213  16.632  0.00  0.00    +0.000 C 
BRANCH  15  16
ATOM     16  O   UNL     1       7.559   4.705  15.579  0.00  0.00    +0.000 OA
BRANCH  16  17
ATOM     17  C   UNL     1       6.898   4.805  14.321  0.00  0.00    +0.000 C 
ATOM     18  C   UNL     1       7.900   4.976  13.190  0.00  0.00    +0.000 C 
ATOM     19  C   UNL     1       7.101   4.609  11.945  0.00  0.00    +0.000 C 
ATOM     20  C   UNL     1       6.057   3.594  12.403  0.00  0.00    +0.000 C 
ATOM     21  C   UNL     1       6.182   3.518  13.919  0.00  0.00    +0.000 C 
ENDBRANCH  16  17
ENDBRANCH  15  16
ENDBRANCH   2  15
TORSDOF 4
ENDMDL
MODEL 7
REMARK VINA RESULT:      -6.6      2.682      5.959
REMARK  Name = 
REMARK  4 active torsions:
REMARK  status: ('A' for Active; 'I' for Inactive)
REMARK    1  A    between atoms: C_2  and  C_3
REMARK    2  A    between atoms: C_3  and  O_4
REMARK    3  A    between atoms: O_4  and  C_5
REMARK    4  A    between atoms: C_13  and  C_14
REMARK                            x       y       z     vdW  Elec       q    Type
REMARK                         _______ _______ _______ _____ _____    ______ ____
ROOT
ATOM      1  O   UNL     1       3.916   1.573  17.626  0.00  0.00    +0.000 OA
ATOM      2  C   UNL     1       3.680   2.744  17.926  0.00  0.00    +0.000 C 
ATOM      3  N   UNL     1       2.952   2.992  19.064  0.00  0.00    +0.000 N 
ATOM      4  C   UNL     1       2.567   4.236  19.477  0.00  0.00    +0.000 A 
ATOM      5  N   UNL     1       2.548   5.338  18.780  0.00  0.00    +0.000 NA
ATOM      6  C   UNL     1       2.168   6.389  19.587  0.00  0.00    +0.000 A 
ATOM      7  C   UNL     1       1.950   6.062  20.910  0.00  0.00    +0.000 A 
ATOM      8  S   UNL     1       2.085   4.356  21.106  0.00  0.00    +0.000 S 
ATOM      9  H   UNL     1       2.737   2.197  19.644  0.00  0.00    +0.000 HD
ENDROOT
BRANCH   6  10
ATOM     10  C   UNL     1       2.019   7.765  19.040  0.00  0.00    +0.000 A 
ATOM     11  C   UNL     1       2.549   8.206  17.840  0.00  0.00    +0.000 A 
ATOM     12  C   UNL     1       2.162   9.558  17.694  0.00  0.00    +0.000 A 
ATOM     13  C   UNL     1       1.423   9.861  18.811  0.00  0.00    +0.000 A 
ATOM     14  O   UNL     1       1.322   8.781  19.630  0.00  0.00    +0.000 OA
ENDBRANCH   6  10
BRANCH   2  15
ATOM     15  C   UNL     1       4.219   3.942  17.127  0.00  0.00    +0.000 C 
BRANCH  15  16
ATOM     16  O   UNL     1       5.426   3.743  16.402  0.00  0.00    +0.000 OA
BRANCH  16  17
ATOM     17  C   UNL     1       6.309   4.850  16.549  0.00  0.00    +0.000 C 
ATOM     18  C   UNL     1       5.535   6.156  16.647  0.00  0.00    +0.000 C 
ATOM     19  C   UNL     1       6.546   7.128  17.243  0.00  0.00    +0.000 C 
ATOM     20  C   UNL     1       7.475   6.283  18.111  0.00  0.00    +0.000 C 
ATOM     21  C   UNL     1       7.072   4.834  17.871  0.00  0.00    +0.000 C 
ENDBRANCH  16  17
ENDBRANCH  15  16
ENDBRANCH   2  15
TORSDOF 4
ENDMDL
MODEL 8
REMARK VINA RESULT:      -6.6      2.256      6.299
REMARK  Name = 
REMARK  4 active torsions:
REMARK  status: ('A' for Active; 'I' for Inactive)
REMARK    1  A    between atoms: C_2  and  C_3
REMARK    2  A    between atoms: C_3  and  O_4
REMARK    3  A    between atoms: O_4  and  C_5
REMARK    4  A    between atoms: C_13  and  C_14
REMARK                            x       y       z     vdW  Elec       q    Type
REMARK                         _______ _______ _______ _____ _____    ______ ____
ROOT
ATOM      1  O   UNL     1       5.715   3.892  14.468  0.00  0.00    +0.000 OA
ATOM      2  C   UNL     1       5.199   4.431  15.447  0.00  0.00    +0.000 C 
ATOM      3  N   UNL     1       4.631   3.631  16.409  0.00  0.00    +0.000 N 
ATOM      4  C   UNL     1       3.971   4.099  17.510  0.00  0.00    +0.000 A 
ATOM      5  N   UNL     1       3.511   5.302  17.714  0.00  0.00    +0.000 NA
ATOM      6  C   UNL     1       2.980   5.385  18.983  0.00  0.00    +0.000 A 
ATOM      7  C   UNL     1       3.093   4.238  19.741  0.00  0.00    +0.000 A 
ATOM      8  S   UNL     1       3.756   2.976  18.773  0.00  0.00    +0.000 S 
ATOM      9  H   UNL     1       4.761   2.637  16.303  0.00  0.00    +0.000 HD
ENDROOT
BRANCH   6  10
ATOM     10  C   UNL     1       2.342   6.639  19.469  0.00  0.00    +0.000 A 
ATOM     11  C   UNL     1       1.855   6.840  20.748  0.00  0.00    +0.000 A 
ATOM     12  C   UNL     1       1.350   8.160  20.792  0.00  0.00    +0.000 A 
ATOM     13  C   UNL     1       1.557   8.684  19.539  0.00  0.00    +0.000 A 
ATOM     14  O   UNL     1       2.165   7.775  18.730  0.00  0.00    +0.000 OA
ENDBRANCH   6  10
BRANCH   2  15
ATOM     15  C   UNL     1       5.218   5.951  15.679  0.00  0.00    +0.000 C 
BRANCH  15  16
ATOM     16  O   UNL     1       6.489   6.555  15.887  0.00  0.00    +0.000 OA
BRANCH  16  17
ATOM     17  C   UNL     1       6.760   6.730  17.274  0.00  0.00    +0.000 C 
ATOM     18  C   UNL     1       7.407   5.486  17.864  0.00  0.00    +0.000 C 
ATOM     19  C   UNL     1       8.027   5.987  19.163  0.00  0.00    +0.000 C 
ATOM     20  C   UNL     1       8.381   7.452  18.918  0.00  0.00    +0.000 C 
ATOM     21  C   UNL     1       7.818   7.797  17.545  0.00  0.00    +0.000 C 
ENDBRANCH  16  17
ENDBRANCH  15  16
ENDBRANCH   2  15
TORSDOF 4
ENDMDL
MODEL 9
REMARK VINA RESULT:      -6.5      2.716      4.321
REMARK  Name = 
REMARK  4 active torsions:
REMARK  status: ('A' for Active; 'I' for Inactive)
REMARK    1  A    between atoms: C_2  and  C_3
REMARK    2  A    between atoms: C_3  and  O_4
REMARK    3  A    between atoms: O_4  and  C_5
REMARK    4  A    between atoms: C_13  and  C_14
REMARK                            x       y       z     vdW  Elec       q    Type
REMARK                         _______ _______ _______ _____ _____    ______ ____
ROOT
ATOM      1  O   UNL     1       1.387   2.715  22.119  0.00  0.00    +0.000 OA
ATOM      2  C   UNL     1       2.116   3.257  21.288  0.00  0.00    +0.000 C 
ATOM      3  N   UNL     1       2.623   2.491  20.266  0.00  0.00    +0.000 N 
ATOM      4  C   UNL     1       3.493   2.950  19.317  0.00  0.00    +0.000 A 
ATOM      5  N   UNL     1       4.208   4.040  19.350  0.00  0.00    +0.000 NA
ATOM      6  C   UNL     1       4.895   4.178  18.163  0.00  0.00    +0.000 A 
ATOM      7  C   UNL     1       4.645   3.197  17.225  0.00  0.00    +0.000 A 
ATOM      8  S   UNL     1       3.629   1.990  17.917  0.00  0.00    +0.000 S 
ATOM      9  H   UNL     1       2.283   1.544  20.200  0.00  0.00    +0.000 HD
ENDROOT
BRANCH   6  10
ATOM     10  C   UNL     1       5.827   5.316  17.942  0.00  0.00    +0.000 A 
ATOM     11  C   UNL     1       7.154   5.346  18.333  0.00  0.00    +0.000 A 
ATOM     12  C   UNL     1       7.675   6.595  17.921  0.00  0.00    +0.000 A 
ATOM     13  C   UNL     1       6.637   7.251  17.305  0.00  0.00    +0.000 A 
ATOM     14  O   UNL     1       5.514   6.484  17.304  0.00  0.00    +0.000 OA
ENDBRANCH   6  10
BRANCH   2  15
ATOM     15  C   UNL     1       2.432   4.762  21.300  0.00  0.00    +0.000 C 
BRANCH  15  16
ATOM     16  O   UNL     1       1.498   5.621  20.661  0.00  0.00    +0.000 OA
BRANCH  16  17
ATOM     17  C   UNL     1       2.147   6.735  20.055  0.00  0.00    +0.000 C 
ATOM     18  C   UNL     1       2.089   6.642  18.538  0.00  0.00    +0.000 C 
ATOM     19  C   UNL     1       2.391   8.064  18.080  0.00  0.00    +0.000 C 
ATOM     20  C   UNL     1       1.876   8.978  19.190  0.00  0.00    +0.000 C 
ATOM     21  C   UNL     1       1.432   8.058  20.320  0.00  0.00    +0.000 C 
ENDBRANCH  16  17
ENDBRANCH  15  16
ENDBRANCH   2  15
TORSDOF 4
ENDMDL
