MODEL 1
REMARK VINA RESULT:      -7.0      0.000      0.000
REMARK  Name = 
REMARK  5 active torsions:
REMARK  status: ('A' for Active; 'I' for Inactive)
REMARK    1  A    between atoms: C_2  and  C_9
REMARK    2  A    between atoms: N_3  and  C_4
REMARK    3  A    between atoms: N_17  and  O_18
REMARK    4  A    between atoms: O_18  and  S_19
REMARK    5  A    between atoms: S_19  and  O_22
REMARK                            x       y       z     vdW  Elec       q    Type
REMARK                         _______ _______ _______ _____ _____    ______ ____
ROOT
ATOM      1  C   UNL     1       5.693   5.409  17.792  0.00  0.00    +0.000 C 
ATOM      2  C   UNL     1       4.820   6.467  17.057  0.00  0.00    +0.000 C 
ATOM      3  C   UNL     1       4.987   6.423  15.529  0.00  0.00    +0.000 C 
ATOM      4  C   UNL     1       5.003   4.961  14.982  0.00  0.00    +0.000 C 
ATOM      5  C   UNL     1       4.683   3.975  16.096  0.00  0.00    +0.000 C 
ATOM      6  N   UNL     1       5.835   4.205  16.942  0.00  0.00    +0.000 N 
ATOM      7  C   UNL     1       6.948   4.301  16.010  0.00  0.00    +0.000 C 
ATOM      8  O   UNL     1       8.131   4.303  16.306  0.00  0.00    +0.000 OA
ATOM      9  N   UNL     1       6.397   4.624  14.710  0.00  0.00    +0.000 N 
ENDROOT
BRANCH   1  11
ATOM     10  O   UNL     1       5.724   4.912  20.178  0.00  0.00    +0.000 OA
ATOM     11  C   UNL     1       5.050   5.120  19.170  0.00  0.00    +0.000 C 
ATOM     12  N   UNL     1       3.681   4.977  19.174  0.00  0.00    +0.000 N 
ATOM     13  H   UNL     1       3.191   5.058  18.289  0.00  0.00    +0.000 HD
BRANCH  12  14
ATOM     14  C   UNL     1       2.971   4.625  20.401  0.00  0.00    +0.000 C 
ATOM     15  C   UNL     1       2.840   3.120  20.570  0.00  0.00    +0.000 C 
ATOM     16  C   UNL     1       1.486   2.822  19.959  0.00  0.00    +0.000 C 
ATOM     17  N   UNL     1       0.637   3.922  20.424  0.00  0.00    +0.000 NA
ATOM     18  C   UNL     1       1.507   5.118  20.416  0.00  0.00    +0.000 C 
ATOM     19  H   UNL     1       0.363   3.738  21.391  0.00  0.00    +0.000 HD
ENDBRANCH  12  14
ENDBRANCH   1  11
BRANCH   9  20
ATOM     20  O   UNL     1       6.409   3.396  13.952  0.00  0.00    +0.000 OA
BRANCH  20  21
ATOM     21  S   UNL     1       6.362   3.573  12.327  0.00  0.00    +0.000 S 
ATOM     22  O   UNL     1       4.987   3.604  11.874  0.00  0.00    +0.000 OA
ATOM     23  O   UNL     1       7.298   4.610  11.955  0.00  0.00    +0.000 OA
BRANCH  21  24
ATOM     24  O   UNL     1       6.962   2.189  11.745  0.00  0.00    +0.000 OA
ATOM     25  H   UNL     1       7.672   1.909  12.363  0.00  0.00    +0.000 HD
ENDBRANCH  21  24
ENDBRANCH  20  21
ENDBRANCH   9  20
TORSDOF 5
ENDMDL
MODEL 2
REMARK VINA RESULT:      -6.8      3.249      4.531
REMARK  Name = 
REMARK  5 active torsions:
REMARK  status: ('A' for Active; 'I' for Inactive)
REMARK    1  A    between atoms: C_2  and  C_9
REMARK    2  A    between atoms: N_3  and  C_4
REMARK    3  A    between atoms: N_17  and  O_18
REMARK    4  A    between atoms: O_18  and  S_19
REMARK    5  A    between atoms: S_19  and  O_22
REMARK                            x       y       z     vdW  Elec       q    Type
REMARK                         _______ _______ _______ _____ _____    ______ ____
ROOT
ATOM      1  C   UNL     1       2.358   5.845  18.933  0.00  0.00    +0.000 C 
ATOM      2  C   UNL     1       1.787   4.449  18.548  0.00  0.00    +0.000 C 
ATOM      3  C   UNL     1       2.674   3.697  17.542  0.00  0.00    +0.000 C 
ATOM      4  C   UNL     1       4.189   3.809  17.896  0.00  0.00    +0.000 C 
ATOM      5  C   UNL     1       4.370   4.499  19.241  0.00  0.00    +0.000 C 
ATOM      6  N   UNL     1       3.838   5.802  18.901  0.00  0.00    +0.000 N 
ATOM      7  C   UNL     1       4.382   6.077  17.580  0.00  0.00    +0.000 C 
ATOM      8  O   UNL     1       4.342   7.147  16.998  0.00  0.00    +0.000 OA
ATOM      9  N   UNL     1       4.763   4.806  16.998  0.00  0.00    +0.000 N 
ENDROOT
BRANCH   1  11
ATOM     10  O   UNL     1       1.390   5.409  21.127  0.00  0.00    +0.000 OA
ATOM     11  C   UNL     1       1.781   6.244  20.313  0.00  0.00    +0.000 C 
ATOM     12  N   UNL     1       1.609   7.593  20.521  0.00  0.00    +0.000 N 
ATOM     13  H   UNL     1       1.855   8.228  19.768  0.00  0.00    +0.000 HD
BRANCH  12  14
ATOM     14  C   UNL     1       0.999   8.086  21.754  0.00  0.00    +0.000 C 
ATOM     15  C   UNL     1      -0.437   8.537  21.537  0.00  0.00    +0.000 C 
ATOM     16  C   UNL     1      -0.293  10.022  21.273  0.00  0.00    +0.000 C 
ATOM     17  N   UNL     1       0.720  10.459  22.237  0.00  0.00    +0.000 NA
ATOM     18  C   UNL     1       1.694   9.348  22.311  0.00  0.00    +0.000 C 
ATOM     19  H   UNL     1       0.280  10.554  23.154  0.00  0.00    +0.000 HD
ENDBRANCH  12  14
ENDBRANCH   1  11
BRANCH   9  20
ATOM     20  O   UNL     1       6.200   4.725  17.117  0.00  0.00    +0.000 OA
BRANCH  20  21
ATOM     21  S   UNL     1       7.045   5.498  15.950  0.00  0.00    +0.000 S 
ATOM     22  O   UNL     1       7.592   6.733  16.473  0.00  0.00    +0.000 OA
ATOM     23  O   UNL     1       7.884   4.531  15.278  0.00  0.00    +0.000 OA
BRANCH  21  24
ATOM     24  O   UNL     1       5.931   5.960  14.872  0.00  0.00    +0.000 OA
ATOM     25  H   UNL     1       6.284   6.763  14.432  0.00  0.00    +0.000 HD
ENDBRANCH  21  24
ENDBRANCH  20  21
ENDBRANCH   9  20
TORSDOF 5
ENDMDL
MODEL 3
REMARK VINA RESULT:      -6.7      3.259      4.462
REMARK  Name = 
REMARK  5 active torsions:
REMARK  status: ('A' for Active; 'I' for Inactive)
REMARK    1  A    between atoms: C_2  and  C_9
REMARK    2  A    between atoms: N_3  and  C_4
REMARK    3  A    between atoms: N_17  and  O_18
REMARK    4  A    between atoms: O_18  and  S_19
REMARK    5  A    between atoms: S_19  and  O_22
REMARK                            x       y       z     vdW  Elec       q    Type
REMARK                         _______ _______ _______ _____ _____    ______ ____
ROOT
ATOM      1  C   UNL     1       2.306   6.070  18.827  0.00  0.00    +0.000 C 
ATOM      2  C   UNL     1       2.054   4.559  18.553  0.00  0.00    +0.000 C 
ATOM      3  C   UNL     1       2.999   3.978  17.487  0.00  0.00    +0.000 C 
ATOM      4  C   UNL     1       4.470   4.465  17.679  0.00  0.00    +0.000 C 
ATOM      5  C   UNL     1       4.602   5.257  18.973  0.00  0.00    +0.000 C 
ATOM      6  N   UNL     1       3.743   6.375  18.643  0.00  0.00    +0.000 N 
ATOM      7  C   UNL     1       4.081   6.692  17.264  0.00  0.00    +0.000 C 
ATOM      8  O   UNL     1       3.732   7.686  16.652  0.00  0.00    +0.000 OA
ATOM      9  N   UNL     1       4.702   5.514  16.691  0.00  0.00    +0.000 N 
ENDROOT
BRANCH   1  11
ATOM     10  O   UNL     1       1.421   5.529  21.033  0.00  0.00    +0.000 OA
ATOM     11  C   UNL     1       1.779   6.403  20.244  0.00  0.00    +0.000 C 
ATOM     12  N   UNL     1       1.610   7.740  20.520  0.00  0.00    +0.000 N 
ATOM     13  H   UNL     1       1.827   8.410  19.789  0.00  0.00    +0.000 HD
BRANCH  12  14
ATOM     14  C   UNL     1       1.045   8.173  21.796  0.00  0.00    +0.000 C 
ATOM     15  C   UNL     1      -0.430   8.519  21.676  0.00  0.00    +0.000 C 
ATOM     16  C   UNL     1      -0.412  10.014  21.426  0.00  0.00    +0.000 C 
ATOM     17  N   UNL     1       0.625  10.513  22.332  0.00  0.00    +0.000 NA
ATOM     18  C   UNL     1       1.680   9.477  22.328  0.00  0.00    +0.000 C 
ATOM     19  H   UNL     1       0.238  10.566  23.276  0.00  0.00    +0.000 HD
ENDBRANCH  12  14
ENDBRANCH   1  11
BRANCH   9  20
ATOM     20  O   UNL     1       6.120   5.781  16.664  0.00  0.00    +0.000 OA
BRANCH  20  21
ATOM     21  S   UNL     1       7.014   4.734  15.783  0.00  0.00    +0.000 S 
ATOM     22  O   UNL     1       6.188   3.629  15.342  0.00  0.00    +0.000 OA
ATOM     23  O   UNL     1       7.814   5.491  14.847  0.00  0.00    +0.000 OA
BRANCH  21  24
ATOM     24  O   UNL     1       8.049   4.083  16.843  0.00  0.00    +0.000 OA
ATOM     25  H   UNL     1       7.827   3.129  16.901  0.00  0.00    +0.000 HD
ENDBRANCH  21  24
ENDBRANCH  20  21
ENDBRANCH   9  20
TORSDOF 5
ENDMDL
MODEL 4
REMARK VINA RESULT:      -6.5      4.155      5.372
REMARK  Name = 
REMARK  5 active torsions:
REMARK  status: ('A' for Active; 'I' for Inactive)
REMARK    1  A    between atoms: C_2  and  C_9
REMARK    2  A    between atoms: N_3  and  C_4
REMARK    3  A    between atoms: N_17  and  O_18
REMARK    4  A    between atoms: O_18  and  S_19
REMARK    5  A    between atoms: S_19  and  O_22
REMARK                            x       y       z     vdW  Elec       q    Type
REMARK                         _______ _______ _______ _____ _____    ______ ____
ROOT
ATOM      1  C   UNL     1       2.398   7.185  18.133  0.00  0.00    +0.000 C 
ATOM      2  C   UNL     1       1.555   5.882  18.244  0.00  0.00    +0.000 C 
ATOM      3  C   UNL     1       2.343   4.624  17.842  0.00  0.00    +0.000 C 
ATOM      4  C   UNL     1       3.790   4.626  18.425  0.00  0.00    +0.000 C 
ATOM      5  C   UNL     1       3.978   5.801  19.374  0.00  0.00    +0.000 C 
ATOM      6  N   UNL     1       3.817   6.885  18.428  0.00  0.00    +0.000 N 
ATOM      7  C   UNL     1       4.558   6.449  17.255  0.00  0.00    +0.000 C 
ATOM      8  O   UNL     1       4.844   7.138  16.291  0.00  0.00    +0.000 OA
ATOM      9  N   UNL     1       4.686   5.008  17.337  0.00  0.00    +0.000 N 
ENDROOT
BRANCH   1  11
ATOM     10  O   UNL     1       1.672   8.064  20.288  0.00  0.00    +0.000 OA
ATOM     11  C   UNL     1       1.781   8.246  19.076  0.00  0.00    +0.000 C 
ATOM     12  N   UNL     1       1.241   9.352  18.460  0.00  0.00    +0.000 N 
ATOM     13  H   UNL     1       1.270   9.396  17.446  0.00  0.00    +0.000 HD
BRANCH  12  14
ATOM     14  C   UNL     1       0.561  10.383  19.240  0.00  0.00    +0.000 C 
ATOM     15  C   UNL     1      -0.952  10.269  19.137  0.00  0.00    +0.000 C 
ATOM     16  C   UNL     1      -1.290  11.213  18.001  0.00  0.00    +0.000 C 
ATOM     17  N   UNL     1      -0.424  12.372  18.232  0.00  0.00    +0.000 NA
ATOM     18  C   UNL     1       0.850  11.814  18.735  0.00  0.00    +0.000 C 
ATOM     19  H   UNL     1      -0.832  12.944  18.973  0.00  0.00    +0.000 HD
ENDBRANCH  12  14
ENDBRANCH   1  11
BRANCH   9  20
ATOM     20  O   UNL     1       6.037   4.749  17.773  0.00  0.00    +0.000 OA
BRANCH  20  21
ATOM     21  S   UNL     1       7.133   4.541  16.578  0.00  0.00    +0.000 S 
ATOM     22  O   UNL     1       8.382   4.059  17.132  0.00  0.00    +0.000 OA
ATOM     23  O   UNL     1       6.487   3.858  15.480  0.00  0.00    +0.000 OA
BRANCH  21  24
ATOM     24  O   UNL     1       7.459   6.036  16.054  0.00  0.00    +0.000 OA
ATOM     25  H   UNL     1       8.051   6.443  16.723  0.00  0.00    +0.000 HD
ENDBRANCH  21  24
ENDBRANCH  20  21
ENDBRANCH   9  20
TORSDOF 5
ENDMDL
MODEL 5
REMARK VINA RESULT:      -6.4      3.334      6.910
REMARK  Name = 
REMARK  5 active torsions:
REMARK  status: ('A' for Active; 'I' for Inactive)
REMARK    1  A    between atoms: C_2  and  C_9
REMARK    2  A    between atoms: N_3  and  C_4
REMARK    3  A    between atoms: N_17  and  O_18
REMARK    4  A    between atoms: O_18  and  S_19
REMARK    5  A    between atoms: S_19  and  O_22
REMARK                            x       y       z     vdW  Elec       q    Type
REMARK                         _______ _______ _______ _____ _____    ______ ____
ROOT
ATOM      1  C   UNL     1       5.086   4.866  15.577  0.00  0.00    +0.000 C 
ATOM      2  C   UNL     1       5.255   6.319  16.107  0.00  0.00    +0.000 C 
ATOM      3  C   UNL     1       5.099   6.420  17.634  0.00  0.00    +0.000 C 
ATOM      4  C   UNL     1       5.839   5.265  18.378  0.00  0.00    +0.000 C 
ATOM      5  C   UNL     1       6.657   4.439  17.394  0.00  0.00    +0.000 C 
ATOM      6  N   UNL     1       5.575   3.906  16.592  0.00  0.00    +0.000 N 
ATOM      7  C   UNL     1       4.555   3.542  17.562  0.00  0.00    +0.000 C 
ATOM      8  O   UNL     1       3.555   2.883  17.337  0.00  0.00    +0.000 OA
ATOM      9  N   UNL     1       4.823   4.293  18.772  0.00  0.00    +0.000 N 
ENDROOT
BRANCH   1  11
ATOM     10  O   UNL     1       6.713   5.534  13.889  0.00  0.00    +0.000 OA
ATOM     11  C   UNL     1       5.818   4.756  14.217  0.00  0.00    +0.000 C 
ATOM     12  N   UNL     1       5.318   3.818  13.343  0.00  0.00    +0.000 N 
ATOM     13  H   UNL     1       4.510   3.276  13.634  0.00  0.00    +0.000 HD
BRANCH  12  14
ATOM     14  C   UNL     1       5.877   3.676  12.000  0.00  0.00    +0.000 C 
ATOM     15  C   UNL     1       5.069   2.712  11.147  0.00  0.00    +0.000 C 
ATOM     16  C   UNL     1       5.786   1.392  11.348  0.00  0.00    +0.000 C 
ATOM     17  N   UNL     1       7.206   1.751  11.316  0.00  0.00    +0.000 NA
ATOM     18  C   UNL     1       7.294   3.062  11.996  0.00  0.00    +0.000 C 
ATOM     19  H   UNL     1       7.489   1.881  10.343  0.00  0.00    +0.000 HD
ENDBRANCH  12  14
ENDBRANCH   1  11
BRANCH   9  20
ATOM     20  O   UNL     1       5.439   3.367  19.692  0.00  0.00    +0.000 OA
BRANCH  20  21
ATOM     21  S   UNL     1       4.434   2.257  20.349  0.00  0.00    +0.000 S 
ATOM     22  O   UNL     1       5.080   1.611  21.473  0.00  0.00    +0.000 OA
ATOM     23  O   UNL     1       3.122   2.849  20.476  0.00  0.00    +0.000 OA
BRANCH  21  24
ATOM     24  O   UNL     1       4.305   1.103  19.223  0.00  0.00    +0.000 OA
ATOM     25  H   UNL     1       3.597   0.494  19.526  0.00  0.00    +0.000 HD
ENDBRANCH  21  24
ENDBRANCH  20  21
ENDBRANCH   9  20
TORSDOF 5
ENDMDL
MODEL 6
REMARK VINA RESULT:      -6.2      3.368      6.962
REMARK  Name = 
REMARK  5 active torsions:
REMARK  status: ('A' for Active; 'I' for Inactive)
REMARK    1  A    between atoms: C_2  and  C_9
REMARK    2  A    between atoms: N_3  and  C_4
REMARK    3  A    between atoms: N_17  and  O_18
REMARK    4  A    between atoms: O_18  and  S_19
REMARK    5  A    between atoms: S_19  and  O_22
REMARK                            x       y       z     vdW  Elec       q    Type
REMARK                         _______ _______ _______ _____ _____    ______ ____
ROOT
ATOM      1  C   UNL     1       6.149   5.337  16.096  0.00  0.00    +0.000 C 
ATOM      2  C   UNL     1       7.089   4.656  17.133  0.00  0.00    +0.000 C 
ATOM      3  C   UNL     1       6.410   4.426  18.494  0.00  0.00    +0.000 C 
ATOM      4  C   UNL     1       4.955   3.883  18.339  0.00  0.00    +0.000 C 
ATOM      5  C   UNL     1       4.657   3.573  16.879  0.00  0.00    +0.000 C 
ATOM      6  N   UNL     1       4.752   4.913  16.338  0.00  0.00    +0.000 N 
ATOM      7  C   UNL     1       4.072   5.744  17.320  0.00  0.00    +0.000 C 
ATOM      8  O   UNL     1       3.754   6.911  17.172  0.00  0.00    +0.000 OA
ATOM      9  N   UNL     1       4.055   5.010  18.569  0.00  0.00    +0.000 N 
ENDROOT
BRANCH   1  11
ATOM     10  O   UNL     1       7.738   5.412  14.248  0.00  0.00    +0.000 OA
ATOM     11  C   UNL     1       6.662   4.994  14.676  0.00  0.00    +0.000 C 
ATOM     12  N   UNL     1       5.783   4.305  13.873  0.00  0.00    +0.000 N 
ATOM     13  H   UNL     1       4.868   4.078  14.251  0.00  0.00    +0.000 HD
BRANCH  12  14
ATOM     14  C   UNL     1       6.125   3.994  12.486  0.00  0.00    +0.000 C 
ATOM     15  C   UNL     1       4.910   4.052  11.575  0.00  0.00    +0.000 C 
ATOM     16  C   UNL     1       4.431   2.615  11.550  0.00  0.00    +0.000 C 
ATOM     17  N   UNL     1       5.665   1.830  11.463  0.00  0.00    +0.000 NA
ATOM     18  C   UNL     1       6.647   2.552  12.301  0.00  0.00    +0.000 C 
ATOM     19  H   UNL     1       5.999   1.850  10.498  0.00  0.00    +0.000 HD
ENDBRANCH  12  14
ENDBRANCH   1  11
BRANCH   9  20
ATOM     20  O   UNL     1       2.719   4.480  18.705  0.00  0.00    +0.000 OA
BRANCH  20  21
ATOM     21  S   UNL     1       2.204   4.263  20.242  0.00  0.00    +0.000 S 
ATOM     22  O   UNL     1       0.756   4.225  20.275  0.00  0.00    +0.000 OA
ATOM     23  O   UNL     1       2.996   3.216  20.845  0.00  0.00    +0.000 OA
BRANCH  21  24
ATOM     24  O   UNL     1       2.602   5.632  21.006  0.00  0.00    +0.000 OA
ATOM     25  H   UNL     1       3.583   5.658  21.041  0.00  0.00    +0.000 HD
ENDBRANCH  21  24
ENDBRANCH  20  21
ENDBRANCH   9  20
TORSDOF 5
ENDMDL
MODEL 7
REMARK VINA RESULT:      -6.2      3.441      6.978
REMARK  Name = 
REMARK  5 active torsions:
REMARK  status: ('A' for Active; 'I' for Inactive)
REMARK    1  A    between atoms: C_2  and  C_9
REMARK    2  A    between atoms: N_3  and  C_4
REMARK    3  A    between atoms: N_17  and  O_18
REMARK    4  A    between atoms: O_18  and  S_19
REMARK    5  A    between atoms: S_19  and  O_22
REMARK                            x       y       z     vdW  Elec       q    Type
REMARK                         _______ _______ _______ _____ _____    ______ ____
ROOT
ATOM      1  C   UNL     1       5.990   5.329  16.294  0.00  0.00    +0.000 C 
ATOM      2  C   UNL     1       6.963   4.754  17.363  0.00  0.00    +0.000 C 
ATOM      3  C   UNL     1       6.283   4.507  18.720  0.00  0.00    +0.000 C 
ATOM      4  C   UNL     1       4.878   3.846  18.560  0.00  0.00    +0.000 C 
ATOM      5  C   UNL     1       4.630   3.473  17.105  0.00  0.00    +0.000 C 
ATOM      6  N   UNL     1       4.627   4.801  16.528  0.00  0.00    +0.000 N 
ATOM      7  C   UNL     1       3.867   5.601  17.476  0.00  0.00    +0.000 C 
ATOM      8  O   UNL     1       3.458   6.735  17.291  0.00  0.00    +0.000 OA
ATOM      9  N   UNL     1       3.888   4.902  18.745  0.00  0.00    +0.000 N 
ENDROOT
BRANCH   1  11
ATOM     10  O   UNL     1       7.668   5.355  14.526  0.00  0.00    +0.000 OA
ATOM     11  C   UNL     1       6.551   4.990  14.892  0.00  0.00    +0.000 C 
ATOM     12  N   UNL     1       5.675   4.371  14.030  0.00  0.00    +0.000 N 
ATOM     13  H   UNL     1       4.732   4.189  14.358  0.00  0.00    +0.000 HD
BRANCH  12  14
ATOM     14  C   UNL     1       6.067   4.073  12.654  0.00  0.00    +0.000 C 
ATOM     15  C   UNL     1       4.894   4.184  11.693  0.00  0.00    +0.000 C 
ATOM     16  C   UNL     1       4.373   2.763  11.621  0.00  0.00    +0.000 C 
ATOM     17  N   UNL     1       5.586   1.943  11.573  0.00  0.00    +0.000 NA
ATOM     18  C   UNL     1       6.552   2.620  12.464  0.00  0.00    +0.000 C 
ATOM     19  H   UNL     1       5.961   1.968  10.623  0.00  0.00    +0.000 HD
ENDBRANCH  12  14
ENDBRANCH   1  11
BRANCH   9  20
ATOM     20  O   UNL     1       2.596   4.271  18.877  0.00  0.00    +0.000 OA
BRANCH  20  21
ATOM     21  S   UNL     1       1.944   4.314  20.376  0.00  0.00    +0.000 S 
ATOM     22  O   UNL     1       2.632   3.377  21.240  0.00  0.00    +0.000 OA
ATOM     23  O   UNL     1       1.770   5.697  20.758  0.00  0.00    +0.000 OA
BRANCH  21  24
ATOM     24  O   UNL     1       0.458   3.701  20.196  0.00  0.00    +0.000 OA
ATOM     25  H   UNL     1       0.327   3.563  19.233  0.00  0.00    +0.000 HD
ENDBRANCH  21  24
ENDBRANCH  20  21
ENDBRANCH   9  20
TORSDOF 5
ENDMDL
MODEL 8
REMARK VINA RESULT:      -6.1      3.494      7.063
REMARK  Name = 
REMARK  5 active torsions:
REMARK  status: ('A' for Active; 'I' for Inactive)
REMARK    1  A    between atoms: C_2  and  C_9
REMARK    2  A    between atoms: N_3  and  C_4
REMARK    3  A    between atoms: N_17  and  O_18
REMARK    4  A    between atoms: O_18  and  S_19
REMARK    5  A    between atoms: S_19  and  O_22
REMARK                            x       y       z     vdW  Elec       q    Type
REMARK                         _______ _______ _______ _____ _____    ______ ____
ROOT
ATOM      1  C   UNL     1       4.733   5.132  15.983  0.00  0.00    +0.000 C 
ATOM      2  C   UNL     1       5.191   6.462  16.649  0.00  0.00    +0.000 C 
ATOM      3  C   UNL     1       4.767   6.569  18.123  0.00  0.00    +0.000 C 
ATOM      4  C   UNL     1       4.992   5.232  18.897  0.00  0.00    +0.000 C 
ATOM      5  C   UNL     1       5.727   4.228  18.019  0.00  0.00    +0.000 C 
ATOM      6  N   UNL     1       4.723   4.049  16.991  0.00  0.00    +0.000 N 
ATOM      7  C   UNL     1       3.469   3.973  17.725  0.00  0.00    +0.000 C 
ATOM      8  O   UNL     1       2.391   3.635  17.267  0.00  0.00    +0.000 OA
ATOM      9  N   UNL     1       3.688   4.587  19.019  0.00  0.00    +0.000 N 
ENDROOT
BRANCH   1  11
ATOM     10  O   UNL     1       6.814   5.275  14.720  0.00  0.00    +0.000 OA
ATOM     11  C   UNL     1       5.662   4.846  14.778  0.00  0.00    +0.000 C 
ATOM     12  N   UNL     1       5.080   4.194  13.715  0.00  0.00    +0.000 N 
ATOM     13  H   UNL     1       4.095   3.957  13.782  0.00  0.00    +0.000 HD
BRANCH  12  14
ATOM     14  C   UNL     1       5.835   3.939  12.490  0.00  0.00    +0.000 C 
ATOM     15  C   UNL     1       4.923   3.724  11.294  0.00  0.00    +0.000 C 
ATOM     16  C   UNL     1       4.764   2.218  11.250  0.00  0.00    +0.000 C 
ATOM     17  N   UNL     1       6.107   1.710  11.543  0.00  0.00    +0.000 NA
ATOM     18  C   UNL     1       6.664   2.637  12.551  0.00  0.00    +0.000 C 
ATOM     19  H   UNL     1       6.676   1.784  10.698  0.00  0.00    +0.000 HD
ENDBRANCH  12  14
ENDBRANCH   1  11
BRANCH   9  20
ATOM     20  O   UNL     1       3.825   3.502  19.961  0.00  0.00    +0.000 OA
BRANCH  20  21
ATOM     21  S   UNL     1       2.501   3.188  20.867  0.00  0.00    +0.000 S 
ATOM     22  O   UNL     1       2.871   2.398  22.024  0.00  0.00    +0.000 OA
ATOM     23  O   UNL     1       1.743   4.410  21.005  0.00  0.00    +0.000 OA
BRANCH  21  24
ATOM     24  O   UNL     1       1.605   2.196  19.956  0.00  0.00    +0.000 OA
ATOM     25  H   UNL     1       0.730   2.628  19.850  0.00  0.00    +0.000 HD
ENDBRANCH  21  24
ENDBRANCH  20  21
ENDBRANCH   9  20
TORSDOF 5
ENDMDL
MODEL 9
REMARK VINA RESULT:      -6.1      9.598     11.477
REMARK  Name = 
REMARK  5 active torsions:
REMARK  status: ('A' for Active; 'I' for Inactive)
REMARK    1  A    between atoms: C_2  and  C_9
REMARK    2  A    between atoms: N_3  and  C_4
REMARK    3  A    between atoms: N_17  and  O_18
REMARK    4  A    between atoms: O_18  and  S_19
REMARK    5  A    between atoms: S_19  and  O_22
REMARK                            x       y       z     vdW  Elec       q    Type
REMARK                         _______ _______ _______ _____ _____    ______ ____
ROOT
ATOM      1  C   UNL     1      -4.299  11.795  17.406  0.00  0.00    +0.000 C 
ATOM      2  C   UNL     1      -4.220  11.287  15.938  0.00  0.00    +0.000 C 
ATOM      3  C   UNL     1      -2.839  10.713  15.577  0.00  0.00    +0.000 C 
ATOM      4  C   UNL     1      -2.266   9.807  16.711  0.00  0.00    +0.000 C 
ATOM      5  C   UNL     1      -3.306   9.603  17.804  0.00  0.00    +0.000 C 
ATOM      6  N   UNL     1      -3.421  10.970  18.266  0.00  0.00    +0.000 N 
ATOM      7  C   UNL     1      -2.049  11.453  18.299  0.00  0.00    +0.000 C 
ATOM      8  O   UNL     1      -1.668  12.493  18.809  0.00  0.00    +0.000 OA
ATOM      9  N   UNL     1      -1.270  10.600  17.425  0.00  0.00    +0.000 N 
ENDROOT
BRANCH   1  11
ATOM     10  O   UNL     1      -6.685  12.213  17.128  0.00  0.00    +0.000 OA
ATOM     11  C   UNL     1      -5.783  11.783  17.847  0.00  0.00    +0.000 C 
ATOM     12  N   UNL     1      -6.019  11.385  19.143  0.00  0.00    +0.000 N 
ATOM     13  H   UNL     1      -5.221  11.140  19.720  0.00  0.00    +0.000 HD
BRANCH  12  14
ATOM     14  C   UNL     1      -7.371  11.408  19.696  0.00  0.00    +0.000 C 
ATOM     15  C   UNL     1      -7.619  12.649  20.539  0.00  0.00    +0.000 C 
ATOM     16  C   UNL     1      -7.288  12.183  21.942  0.00  0.00    +0.000 C 
ATOM     17  N   UNL     1      -7.863  10.837  22.014  0.00  0.00    +0.000 NA
ATOM     18  C   UNL     1      -7.644  10.246  20.676  0.00  0.00    +0.000 C 
ATOM     19  H   UNL     1      -8.870  10.919  22.162  0.00  0.00    +0.000 HD
ENDBRANCH  12  14
ENDBRANCH   1  11
BRANCH   9  20
ATOM     20  O   UNL     1      -0.537   9.704  18.288  0.00  0.00    +0.000 OA
BRANCH  20  21
ATOM     21  S   UNL     1       1.042  10.071  18.502  0.00  0.00    +0.000 S 
ATOM     22  O   UNL     1       1.386   9.969  19.906  0.00  0.00    +0.000 OA
ATOM     23  O   UNL     1       1.812   9.385  17.490  0.00  0.00    +0.000 OA
BRANCH  21  24
ATOM     24  O   UNL     1       1.147  11.649  18.162  0.00  0.00    +0.000 OA
ATOM     25  H   UNL     1       0.607  12.117  18.835  0.00  0.00    +0.000 HD
ENDBRANCH  21  24
ENDBRANCH  20  21
ENDBRANCH   9  20
TORSDOF 5
ENDMDL
