MODEL 1
REMARK VINA RESULT:      -7.9      0.000      0.000
REMARK  Name = 
REMARK  5 active torsions:
REMARK  status: ('A' for Active; 'I' for Inactive)
REMARK    1  A    between atoms: C_1  and  O_2
REMARK    2  A    between atoms: O_2  and  C_3
REMARK    3  A    between atoms: C_8  and  N_9
REMARK    4  A    between atoms: N_12  and  C_13
REMARK    5  A    between atoms: C_13  and  C_14
REMARK                            x       y       z     vdW  Elec       q    Type
REMARK                         _______ _______ _______ _____ _____    ______ ____
ROOT
ATOM      1  C   UNL     1       8.204   8.622  18.972  0.00  0.00    +0.000 C 
ENDROOT
BRANCH   1   2
ATOM      2  C   UNL     1       9.025   9.819  18.408  0.00  0.00    +0.000 C 
ATOM      3  C   UNL     1       9.816  10.556  19.516  0.00  0.00    +0.000 C 
ATOM      4  C   UNL     1      10.866  11.474  18.824  0.00  0.00    +0.000 C 
ATOM      5  O   UNL     1      12.037  11.514  19.172  0.00  0.00    +0.000 OA
ATOM      6  C   UNL     1      10.246  12.408  17.859  0.00  0.00    +0.000 A 
ATOM      7  C   UNL     1       8.883  12.234  17.691  0.00  0.00    +0.000 A 
ATOM      8  N   UNL     1       8.387  13.399  18.270  0.00  0.00    +0.000 N 
ATOM      9  C   UNL     1       9.391  14.362  18.300  0.00  0.00    +0.000 A 
ATOM     10  C   UNL     1       9.461  15.660  18.818  0.00  0.00    +0.000 A 
ATOM     11  C   UNL     1      10.503  16.470  18.343  0.00  0.00    +0.000 A 
ATOM     12  C   UNL     1      11.407  15.995  17.391  0.00  0.00    +0.000 A 
ATOM     13  C   UNL     1      11.446  14.630  17.075  0.00  0.00    +0.000 A 
ATOM     14  C   UNL     1      10.465  13.782  17.625  0.00  0.00    +0.000 A 
ATOM     15  C   UNL     1       8.210  10.881  17.587  0.00  0.00    +0.000 C 
ATOM     16  H   UNL     1       7.453  13.529  18.637  0.00  0.00    +0.000 HD
ENDBRANCH   1   2
BRANCH   1  20
ATOM     17  N   UNL     1       5.658   5.764  18.122  0.00  0.00    +0.000 N 
ATOM     18  C   UNL     1       6.522   5.730  19.322  0.00  0.00    +0.000 C 
ATOM     19  C   UNL     1       7.983   6.120  18.945  0.00  0.00    +0.000 C 
ATOM     20  N   UNL     1       8.208   7.375  18.176  0.00  0.00    +0.000 NA
ATOM     21  C   UNL     1       7.207   7.410  17.070  0.00  0.00    +0.000 C 
ATOM     22  C   UNL     1       5.727   7.073  17.438  0.00  0.00    +0.000 C 
BRANCH  17  28
ATOM     23  C   UNL     1       4.314   3.903  17.113  0.00  0.00    +0.000 A 
ATOM     24  C   UNL     1       3.055   3.269  17.010  0.00  0.00    +0.000 A 
ATOM     25  C   UNL     1       1.988   3.649  17.829  0.00  0.00    +0.000 A 
ATOM     26  C   UNL     1       2.175   4.665  18.750  0.00  0.00    +0.000 A 
ATOM     27  C   UNL     1       3.400   5.326  18.824  0.00  0.00    +0.000 A 
ATOM     28  C   UNL     1       4.515   4.979  18.010  0.00  0.00    +0.000 A 
BRANCH  23  30
ATOM     29  C   UNL     1       5.564   4.171  15.103  0.00  0.00    +0.000 C 
ATOM     30  O   UNL     1       5.377   3.492  16.338  0.00  0.00    +0.000 OA
ENDBRANCH  23  30
ENDBRANCH  17  28
ENDBRANCH   1  20
TORSDOF 4
ENDMDL
MODEL 2
REMARK VINA RESULT:      -7.8      1.044      1.689
REMARK  Name = 
REMARK  5 active torsions:
REMARK  status: ('A' for Active; 'I' for Inactive)
REMARK    1  A    between atoms: C_1  and  O_2
REMARK    2  A    between atoms: O_2  and  C_3
REMARK    3  A    between atoms: C_8  and  N_9
REMARK    4  A    between atoms: N_12  and  C_13
REMARK    5  A    between atoms: C_13  and  C_14
REMARK                            x       y       z     vdW  Elec       q    Type
REMARK                         _______ _______ _______ _____ _____    ______ ____
ROOT
ATOM      1  C   UNL     1       8.162   8.509  18.976  0.00  0.00    +0.000 C 
ENDROOT
BRANCH   1   2
ATOM      2  C   UNL     1       8.968   9.705  18.389  0.00  0.00    +0.000 C 
ATOM      3  C   UNL     1       9.797  10.437  19.473  0.00  0.00    +0.000 C 
ATOM      4  C   UNL     1      10.827  11.353  18.750  0.00  0.00    +0.000 C 
ATOM      5  O   UNL     1      12.008  11.388  19.060  0.00  0.00    +0.000 OA
ATOM      6  C   UNL     1      10.180  12.291  17.807  0.00  0.00    +0.000 A 
ATOM      7  C   UNL     1       8.811  12.122  17.682  0.00  0.00    +0.000 A 
ATOM      8  N   UNL     1       8.338  13.287  18.279  0.00  0.00    +0.000 N 
ATOM      9  C   UNL     1       9.346  14.246  18.279  0.00  0.00    +0.000 A 
ATOM     10  C   UNL     1       9.436  15.543  18.798  0.00  0.00    +0.000 A 
ATOM     11  C   UNL     1      10.465  16.351  18.293  0.00  0.00    +0.000 A 
ATOM     12  C   UNL     1      11.336  15.876  17.311  0.00  0.00    +0.000 A 
ATOM     13  C   UNL     1      11.362  14.511  16.991  0.00  0.00    +0.000 A 
ATOM     14  C   UNL     1      10.396  13.665  17.570  0.00  0.00    +0.000 A 
ATOM     15  C   UNL     1       8.131  10.771  17.596  0.00  0.00    +0.000 C 
ATOM     16  H   UNL     1       7.416  13.419  18.676  0.00  0.00    +0.000 HD
ENDBRANCH   1   2
BRANCH   1  20
ATOM     17  N   UNL     1       5.537   5.760  18.012  0.00  0.00    +0.000 N 
ATOM     18  C   UNL     1       6.340   5.695  19.252  0.00  0.00    +0.000 C 
ATOM     19  C   UNL     1       7.833   6.019  18.945  0.00  0.00    +0.000 C 
ATOM     20  N   UNL     1       8.150   7.259  18.185  0.00  0.00    +0.000 NA
ATOM     21  C   UNL     1       7.205   7.332  17.031  0.00  0.00    +0.000 C 
ATOM     22  C   UNL     1       5.696   7.061  17.328  0.00  0.00    +0.000 C 
BRANCH  17  28
ATOM     23  C   UNL     1       3.044   5.492  18.031  0.00  0.00    +0.000 A 
ATOM     24  C   UNL     1       1.945   4.606  17.960  0.00  0.00    +0.000 A 
ATOM     25  C   UNL     1       2.128   3.254  17.653  0.00  0.00    +0.000 A 
ATOM     26  C   UNL     1       3.409   2.785  17.419  0.00  0.00    +0.000 A 
ATOM     27  C   UNL     1       4.501   3.643  17.534  0.00  0.00    +0.000 A 
ATOM     28  C   UNL     1       4.367   5.025  17.848  0.00  0.00    +0.000 A 
BRANCH  23  30
ATOM     29  C   UNL     1       2.354   7.172  19.574  0.00  0.00    +0.000 C 
ATOM     30  O   UNL     1       2.854   6.833  18.287  0.00  0.00    +0.000 OA
ENDBRANCH  23  30
ENDBRANCH  17  28
ENDBRANCH   1  20
TORSDOF 4
ENDMDL
MODEL 3
REMARK VINA RESULT:      -7.7      6.619     10.307
REMARK  Name = 
REMARK  5 active torsions:
REMARK  status: ('A' for Active; 'I' for Inactive)
REMARK    1  A    between atoms: C_1  and  O_2
REMARK    2  A    between atoms: O_2  and  C_3
REMARK    3  A    between atoms: C_8  and  N_9
REMARK    4  A    between atoms: N_12  and  C_13
REMARK    5  A    between atoms: C_13  and  C_14
REMARK                            x       y       z     vdW  Elec       q    Type
REMARK                         _______ _______ _______ _____ _____    ______ ____
ROOT
ATOM      1  C   UNL     1       1.570   8.274  20.631  0.00  0.00    +0.000 C 
ENDROOT
BRANCH   1   2
ATOM      2  C   UNL     1       2.062   7.309  19.512  0.00  0.00    +0.000 C 
ATOM      3  C   UNL     1       3.046   6.243  20.053  0.00  0.00    +0.000 C 
ATOM      4  C   UNL     1       3.187   5.131  18.973  0.00  0.00    +0.000 C 
ATOM      5  O   UNL     1       3.114   3.940  19.241  0.00  0.00    +0.000 OA
ATOM      6  C   UNL     1       3.607   5.670  17.662  0.00  0.00    +0.000 A 
ATOM      7  C   UNL     1       3.710   7.050  17.618  0.00  0.00    +0.000 A 
ATOM      8  N   UNL     1       5.086   7.216  17.490  0.00  0.00    +0.000 N 
ATOM      9  C   UNL     1       5.647   6.042  16.997  0.00  0.00    +0.000 A 
ATOM     10  C   UNL     1       6.964   5.640  16.743  0.00  0.00    +0.000 A 
ATOM     11  C   UNL     1       7.131   4.528  15.906  0.00  0.00    +0.000 A 
ATOM     12  C   UNL     1       6.029   3.875  15.349  0.00  0.00    +0.000 A 
ATOM     13  C   UNL     1       4.735   4.157  15.809  0.00  0.00    +0.000 A 
ATOM     14  C   UNL     1       4.561   5.209  16.731  0.00  0.00    +0.000 A 
ATOM     15  C   UNL     1       2.709   7.992  18.254  0.00  0.00    +0.000 C 
ATOM     16  H   UNL     1       5.610   8.047  17.735  0.00  0.00    +0.000 HD
ENDBRANCH   1   2
BRANCH   1  20
ATOM     17  N   UNL     1      -0.826  11.015  22.086  0.00  0.00    +0.000 N 
ATOM     18  C   UNL     1      -0.305   9.897  22.903  0.00  0.00    +0.000 C 
ATOM     19  C   UNL     1      -0.432   8.555  22.121  0.00  0.00    +0.000 C 
ATOM     20  N   UNL     1       0.110   8.485  20.736  0.00  0.00    +0.000 NA
ATOM     21  C   UNL     1      -0.335   9.714  20.017  0.00  0.00    +0.000 C 
ATOM     22  C   UNL     1      -0.168  11.076  20.763  0.00  0.00    +0.000 C 
BRANCH  17  28
ATOM     23  C   UNL     1      -0.679  13.410  22.815  0.00  0.00    +0.000 A 
ATOM     24  C   UNL     1      -1.276  14.470  23.534  0.00  0.00    +0.000 A 
ATOM     25  C   UNL     1      -2.562  14.346  24.066  0.00  0.00    +0.000 A 
ATOM     26  C   UNL     1      -3.255  13.161  23.883  0.00  0.00    +0.000 A 
ATOM     27  C   UNL     1      -2.653  12.096  23.215  0.00  0.00    +0.000 A 
ATOM     28  C   UNL     1      -1.346  12.171  22.660  0.00  0.00    +0.000 A 
BRANCH  23  30
ATOM     29  C   UNL     1       1.020  14.884  22.029  0.00  0.00    +0.000 C 
ATOM     30  O   UNL     1       0.570  13.554  22.251  0.00  0.00    +0.000 OA
ENDBRANCH  23  30
ENDBRANCH  17  28
ENDBRANCH   1  20
TORSDOF 4
ENDMDL
MODEL 4
REMARK VINA RESULT:      -7.6      6.435     10.221
REMARK  Name = 
REMARK  5 active torsions:
REMARK  status: ('A' for Active; 'I' for Inactive)
REMARK    1  A    between atoms: C_1  and  O_2
REMARK    2  A    between atoms: O_2  and  C_3
REMARK    3  A    between atoms: C_8  and  N_9
REMARK    4  A    between atoms: N_12  and  C_13
REMARK    5  A    between atoms: C_13  and  C_14
REMARK                            x       y       z     vdW  Elec       q    Type
REMARK                         _______ _______ _______ _____ _____    ______ ____
ROOT
ATOM      1  C   UNL     1       1.042   7.487  20.788  0.00  0.00    +0.000 C 
ENDROOT
BRANCH   1   2
ATOM      2  C   UNL     1       1.702   6.655  19.650  0.00  0.00    +0.000 C 
ATOM      3  C   UNL     1       2.801   5.704  20.186  0.00  0.00    +0.000 C 
ATOM      4  C   UNL     1       3.133   4.677  19.064  0.00  0.00    +0.000 C 
ATOM      5  O   UNL     1       3.211   3.475  19.275  0.00  0.00    +0.000 OA
ATOM      6  C   UNL     1       3.526   5.333  17.799  0.00  0.00    +0.000 A 
ATOM      7  C   UNL     1       3.441   6.715  17.822  0.00  0.00    +0.000 A 
ATOM      8  N   UNL     1       4.786   7.070  17.763  0.00  0.00    +0.000 N 
ATOM      9  C   UNL     1       5.520   6.008  17.244  0.00  0.00    +0.000 A 
ATOM     10  C   UNL     1       6.887   5.799  17.031  0.00  0.00    +0.000 A 
ATOM     11  C   UNL     1       7.236   4.763  16.152  0.00  0.00    +0.000 A 
ATOM     12  C   UNL     1       6.255   3.998  15.518  0.00  0.00    +0.000 A 
ATOM     13  C   UNL     1       4.918   4.081  15.932  0.00  0.00    +0.000 A 
ATOM     14  C   UNL     1       4.568   5.051  16.892  0.00  0.00    +0.000 A 
ATOM     15  C   UNL     1       2.298   7.481  18.455  0.00  0.00    +0.000 C 
ATOM     16  H   UNL     1       5.183   7.949  18.068  0.00  0.00    +0.000 HD
ENDBRANCH   1   2
BRANCH   1  20
ATOM     17  N   UNL     1      -0.311  10.921  22.111  0.00  0.00    +0.000 N 
ATOM     18  C   UNL     1      -0.385  10.532  20.687  0.00  0.00    +0.000 C 
ATOM     19  C   UNL     1       0.977   9.933  20.221  0.00  0.00    +0.000 C 
ATOM     20  N   UNL     1       1.587   8.841  21.029  0.00  0.00    +0.000 NA
ATOM     21  C   UNL     1       1.495   9.239  22.464  0.00  0.00    +0.000 C 
ATOM     22  C   UNL     1       0.123   9.793  22.963  0.00  0.00    +0.000 C 
BRANCH  17  28
ATOM     23  C   UNL     1      -0.741  13.288  22.820  0.00  0.00    +0.000 A 
ATOM     24  C   UNL     1      -1.596  14.187  23.496  0.00  0.00    +0.000 A 
ATOM     25  C   UNL     1      -2.848  13.778  23.963  0.00  0.00    +0.000 A 
ATOM     26  C   UNL     1      -3.248  12.469  23.758  0.00  0.00    +0.000 A 
ATOM     27  C   UNL     1      -2.390  11.565  23.134  0.00  0.00    +0.000 A 
ATOM     28  C   UNL     1      -1.105  11.932  22.645  0.00  0.00    +0.000 A 
BRANCH  23  30
ATOM     29  C   UNL     1       0.433  14.693  21.296  0.00  0.00    +0.000 C 
ATOM     30  O   UNL     1       0.472  13.707  22.320  0.00  0.00    +0.000 OA
ENDBRANCH  23  30
ENDBRANCH  17  28
ENDBRANCH   1  20
TORSDOF 4
ENDMDL
MODEL 5
REMARK VINA RESULT:      -7.5      6.313      7.907
REMARK  Name = 
REMARK  5 active torsions:
REMARK  status: ('A' for Active; 'I' for Inactive)
REMARK    1  A    between atoms: C_1  and  O_2
REMARK    2  A    between atoms: O_2  and  C_3
REMARK    3  A    between atoms: C_8  and  N_9
REMARK    4  A    between atoms: N_12  and  C_13
REMARK    5  A    between atoms: C_13  and  C_14
REMARK                            x       y       z     vdW  Elec       q    Type
REMARK                         _______ _______ _______ _____ _____    ______ ____
ROOT
ATOM      1  C   UNL     1       2.104   5.980  19.692  0.00  0.00    +0.000 C 
ENDROOT
BRANCH   1   2
ATOM      2  C   UNL     1       1.996   7.496  20.031  0.00  0.00    +0.000 C 
ATOM      3  C   UNL     1       0.939   7.775  21.126  0.00  0.00    +0.000 C 
ATOM      4  C   UNL     1       1.160   9.225  21.648  0.00  0.00    +0.000 C 
ATOM      5  O   UNL     1       1.198   9.497  22.839  0.00  0.00    +0.000 OA
ATOM      6  C   UNL     1       1.120  10.226  20.560  0.00  0.00    +0.000 A 
ATOM      7  C   UNL     1       0.982   9.686  19.293  0.00  0.00    +0.000 A 
ATOM      8  N   UNL     1      -0.303  10.105  18.958  0.00  0.00    +0.000 N 
ATOM      9  C   UNL     1      -0.651  11.197  19.747  0.00  0.00    +0.000 A 
ATOM     10  C   UNL     1      -1.821  11.955  19.873  0.00  0.00    +0.000 A 
ATOM     11  C   UNL     1      -1.694  13.206  20.496  0.00  0.00    +0.000 A 
ATOM     12  C   UNL     1      -0.454  13.662  20.947  0.00  0.00    +0.000 A 
ATOM     13  C   UNL     1       0.638  12.785  21.015  0.00  0.00    +0.000 A 
ATOM     14  C   UNL     1       0.496  11.488  20.484  0.00  0.00    +0.000 A 
ATOM     15  C   UNL     1       1.718   8.451  18.815  0.00  0.00    +0.000 C 
ATOM     16  H   UNL     1      -0.907   9.677  18.267  0.00  0.00    +0.000 HD
ENDBRANCH   1   2
BRANCH   1  20
ATOM     17  N   UNL     1       4.801   4.883  17.066  0.00  0.00    +0.000 N 
ATOM     18  C   UNL     1       3.722   3.981  17.524  0.00  0.00    +0.000 C 
ATOM     19  C   UNL     1       3.586   4.049  19.075  0.00  0.00    +0.000 C 
ATOM     20  N   UNL     1       3.458   5.384  19.720  0.00  0.00    +0.000 NA
ATOM     21  C   UNL     1       4.480   6.280  19.106  0.00  0.00    +0.000 C 
ATOM     22  C   UNL     1       4.597   6.266  17.548  0.00  0.00    +0.000 C 
BRANCH  17  28
ATOM     23  C   UNL     1       6.868   4.964  15.649  0.00  0.00    +0.000 A 
ATOM     24  C   UNL     1       7.434   4.798  14.365  0.00  0.00    +0.000 A 
ATOM     25  C   UNL     1       6.684   4.270  13.310  0.00  0.00    +0.000 A 
ATOM     26  C   UNL     1       5.367   3.909  13.535  0.00  0.00    +0.000 A 
ATOM     27  C   UNL     1       4.790   4.115  14.787  0.00  0.00    +0.000 A 
ATOM     28  C   UNL     1       5.509   4.652  15.891  0.00  0.00    +0.000 A 
BRANCH  23  30
ATOM     29  C   UNL     1       7.847   4.548  17.781  0.00  0.00    +0.000 C 
ATOM     30  O   UNL     1       7.625   5.441  16.698  0.00  0.00    +0.000 OA
ENDBRANCH  23  30
ENDBRANCH  17  28
ENDBRANCH   1  20
TORSDOF 4
ENDMDL
MODEL 6
REMARK VINA RESULT:      -7.5      7.420     11.729
REMARK  Name = 
REMARK  5 active torsions:
REMARK  status: ('A' for Active; 'I' for Inactive)
REMARK    1  A    between atoms: C_1  and  O_2
REMARK    2  A    between atoms: O_2  and  C_3
REMARK    3  A    between atoms: C_8  and  N_9
REMARK    4  A    between atoms: N_12  and  C_13
REMARK    5  A    between atoms: C_13  and  C_14
REMARK                            x       y       z     vdW  Elec       q    Type
REMARK                         _______ _______ _______ _____ _____    ______ ____
ROOT
ATOM      1  C   UNL     1       0.923   9.443  20.182  0.00  0.00    +0.000 C 
ENDROOT
BRANCH   1   2
ATOM      2  C   UNL     1       1.821   8.174  20.095  0.00  0.00    +0.000 C 
ATOM      3  C   UNL     1       1.925   7.631  18.649  0.00  0.00    +0.000 C 
ATOM      4  C   UNL     1       3.105   6.617  18.603  0.00  0.00    +0.000 C 
ATOM      5  O   UNL     1       3.958   6.640  17.728  0.00  0.00    +0.000 OA
ATOM      6  C   UNL     1       2.957   5.535  19.600  0.00  0.00    +0.000 A 
ATOM      7  C   UNL     1       1.860   5.673  20.433  0.00  0.00    +0.000 A 
ATOM      8  N   UNL     1       1.060   4.617  20.007  0.00  0.00    +0.000 N 
ATOM      9  C   UNL     1       1.851   3.676  19.354  0.00  0.00    +0.000 A 
ATOM     10  C   UNL     1       1.566   2.480  18.685  0.00  0.00    +0.000 A 
ATOM     11  C   UNL     1       2.643   1.608  18.470  0.00  0.00    +0.000 A 
ATOM     12  C   UNL     1       3.926   1.925  18.920  0.00  0.00    +0.000 A 
ATOM     13  C   UNL     1       4.215   3.221  19.370  0.00  0.00    +0.000 A 
ATOM     14  C   UNL     1       3.157   4.143  19.497  0.00  0.00    +0.000 A 
ATOM     15  C   UNL     1       1.424   6.989  21.046  0.00  0.00    +0.000 C 
ATOM     16  H   UNL     1       0.058   4.544  20.126  0.00  0.00    +0.000 HD
ENDBRANCH   1   2
BRANCH   1  20
ATOM     17  N   UNL     1      -0.977  12.053  22.408  0.00  0.00    +0.000 N 
ATOM     18  C   UNL     1      -0.489  12.371  21.048  0.00  0.00    +0.000 C 
ATOM     19  C   UNL     1       0.972  11.859  20.867  0.00  0.00    +0.000 C 
ATOM     20  N   UNL     1       1.278  10.444  21.212  0.00  0.00    +0.000 NA
ATOM     21  C   UNL     1       0.632  10.152  22.526  0.00  0.00    +0.000 C 
ATOM     22  C   UNL     1      -0.849  10.611  22.709  0.00  0.00    +0.000 C 
BRANCH  17  28
ATOM     23  C   UNL     1      -1.760  14.020  23.751  0.00  0.00    +0.000 A 
ATOM     24  C   UNL     1      -2.823  14.626  24.459  0.00  0.00    +0.000 A 
ATOM     25  C   UNL     1      -4.109  14.081  24.433  0.00  0.00    +0.000 A 
ATOM     26  C   UNL     1      -4.337  12.928  23.702  0.00  0.00    +0.000 A 
ATOM     27  C   UNL     1      -3.284  12.300  23.040  0.00  0.00    +0.000 A 
ATOM     28  C   UNL     1      -1.956  12.813  23.039  0.00  0.00    +0.000 A 
BRANCH  23  30
ATOM     29  C   UNL     1      -0.420  15.941  23.313  0.00  0.00    +0.000 C 
ATOM     30  O   UNL     1      -0.504  14.587  23.740  0.00  0.00    +0.000 OA
ENDBRANCH  23  30
ENDBRANCH  17  28
ENDBRANCH   1  20
TORSDOF 4
ENDMDL
MODEL 7
REMARK VINA RESULT:      -7.4      9.213     11.579
REMARK  Name = 
REMARK  5 active torsions:
REMARK  status: ('A' for Active; 'I' for Inactive)
REMARK    1  A    between atoms: C_1  and  O_2
REMARK    2  A    between atoms: O_2  and  C_3
REMARK    3  A    between atoms: C_8  and  N_9
REMARK    4  A    between atoms: N_12  and  C_13
REMARK    5  A    between atoms: C_13  and  C_14
REMARK                            x       y       z     vdW  Elec       q    Type
REMARK                         _______ _______ _______ _____ _____    ______ ____
ROOT
ATOM      1  C   UNL     1      -0.165  11.640  20.985  0.00  0.00    +0.000 C 
ENDROOT
BRANCH   1   2
ATOM      2  C   UNL     1      -1.261  12.642  21.454  0.00  0.00    +0.000 C 
ATOM      3  C   UNL     1      -1.630  12.446  22.945  0.00  0.00    +0.000 C 
ATOM      4  C   UNL     1      -2.435  13.695  23.407  0.00  0.00    +0.000 C 
ATOM      5  O   UNL     1      -2.188  14.290  24.446  0.00  0.00    +0.000 OA
ATOM      6  C   UNL     1      -3.623  13.942  22.563  0.00  0.00    +0.000 A 
ATOM      7  C   UNL     1      -3.746  13.082  21.485  0.00  0.00    +0.000 A 
ATOM      8  N   UNL     1      -4.866  12.342  21.854  0.00  0.00    +0.000 N 
ATOM      9  C   UNL     1      -5.598  13.056  22.798  0.00  0.00    +0.000 A 
ATOM     10  C   UNL     1      -6.749  12.766  23.539  0.00  0.00    +0.000 A 
ATOM     11  C   UNL     1      -7.414  13.856  24.120  0.00  0.00    +0.000 A 
ATOM     12  C   UNL     1      -6.947  15.159  23.943  0.00  0.00    +0.000 A 
ATOM     13  C   UNL     1      -5.675  15.385  23.399  0.00  0.00    +0.000 A 
ATOM     14  C   UNL     1      -4.949  14.285  22.902  0.00  0.00    +0.000 A 
ATOM     15  C   UNL     1      -2.586  12.651  20.611  0.00  0.00    +0.000 C 
ATOM     16  H   UNL     1      -5.108  11.420  21.514  0.00  0.00    +0.000 HD
ENDBRANCH   1   2
BRANCH   1  20
ATOM     17  N   UNL     1       1.478   8.448  19.409  0.00  0.00    +0.000 N 
ATOM     18  C   UNL     1       1.171   9.659  18.618  0.00  0.00    +0.000 C 
ATOM     19  C   UNL     1      -0.263  10.171  18.951  0.00  0.00    +0.000 C 
ATOM     20  N   UNL     1      -0.631  10.374  20.379  0.00  0.00    +0.000 NA
ATOM     21  C   UNL     1      -0.162   9.179  21.139  0.00  0.00    +0.000 C 
ATOM     22  C   UNL     1       1.292   8.682  20.857  0.00  0.00    +0.000 C 
BRANCH  17  28
ATOM     23  C   UNL     1       2.631   6.227  19.565  0.00  0.00    +0.000 A 
ATOM     24  C   UNL     1       3.671   5.395  19.094  0.00  0.00    +0.000 A 
ATOM     25  C   UNL     1       4.448   5.765  17.993  0.00  0.00    +0.000 A 
ATOM     26  C   UNL     1       4.189   6.969  17.361  0.00  0.00    +0.000 A 
ATOM     27  C   UNL     1       3.196   7.816  17.850  0.00  0.00    +0.000 A 
ATOM     28  C   UNL     1       2.382   7.486  18.969  0.00  0.00    +0.000 A 
BRANCH  23  30
ATOM     29  C   UNL     1       1.366   4.495  20.602  0.00  0.00    +0.000 C 
ATOM     30  O   UNL     1       1.837   5.836  20.621  0.00  0.00    +0.000 OA
ENDBRANCH  23  30
ENDBRANCH  17  28
ENDBRANCH   1  20
TORSDOF 4
ENDMDL
MODEL 8
REMARK VINA RESULT:      -7.4      7.132     11.496
REMARK  Name = 
REMARK  5 active torsions:
REMARK  status: ('A' for Active; 'I' for Inactive)
REMARK    1  A    between atoms: C_1  and  O_2
REMARK    2  A    between atoms: O_2  and  C_3
REMARK    3  A    between atoms: C_8  and  N_9
REMARK    4  A    between atoms: N_12  and  C_13
REMARK    5  A    between atoms: C_13  and  C_14
REMARK                            x       y       z     vdW  Elec       q    Type
REMARK                         _______ _______ _______ _____ _____    ______ ____
ROOT
ATOM      1  C   UNL     1       1.171   9.418  19.855  0.00  0.00    +0.000 C 
ENDROOT
BRANCH   1   2
ATOM      2  C   UNL     1       2.044   8.129  19.866  0.00  0.00    +0.000 C 
ATOM      3  C   UNL     1       2.260   7.559  18.443  0.00  0.00    +0.000 C 
ATOM      4  C   UNL     1       3.416   6.520  18.513  0.00  0.00    +0.000 C 
ATOM      5  O   UNL     1       4.342   6.510  17.715  0.00  0.00    +0.000 OA
ATOM      6  C   UNL     1       3.159   5.459  19.510  0.00  0.00    +0.000 A 
ATOM      7  C   UNL     1       1.997   5.634  20.244  0.00  0.00    +0.000 A 
ATOM      8  N   UNL     1       1.214   4.587  19.766  0.00  0.00    +0.000 N 
ATOM      9  C   UNL     1       2.037   3.619  19.198  0.00  0.00    +0.000 A 
ATOM     10  C   UNL     1       1.783   2.418  18.526  0.00  0.00    +0.000 A 
ATOM     11  C   UNL     1       2.855   1.520  18.417  0.00  0.00    +0.000 A 
ATOM     12  C   UNL     1       4.101   1.818  18.971  0.00  0.00    +0.000 A 
ATOM     13  C   UNL     1       4.379   3.115  19.425  0.00  0.00    +0.000 A 
ATOM     14  C   UNL     1       3.336   4.061  19.446  0.00  0.00    +0.000 A 
ATOM     15  C   UNL     1       1.540   6.968  20.797  0.00  0.00    +0.000 C 
ATOM     16  H   UNL     1       0.204   4.537  19.800  0.00  0.00    +0.000 HD
ENDBRANCH   1   2
BRANCH   1  20
ATOM     17  N   UNL     1      -1.241  11.522  22.120  0.00  0.00    +0.000 N 
ATOM     18  C   UNL     1      -0.289  10.534  22.673  0.00  0.00    +0.000 C 
ATOM     19  C   UNL     1      -0.344   9.213  21.848  0.00  0.00    +0.000 C 
ATOM     20  N   UNL     1      -0.211   9.293  20.367  0.00  0.00    +0.000 NA
ATOM     21  C   UNL     1      -1.089  10.404  19.897  0.00  0.00    +0.000 C 
ATOM     22  C   UNL     1      -1.010  11.754  20.679  0.00  0.00    +0.000 C 
BRANCH  17  28
ATOM     23  C   UNL     1      -1.185  13.714  23.336  0.00  0.00    +0.000 A 
ATOM     24  C   UNL     1      -1.832  14.586  24.241  0.00  0.00    +0.000 A 
ATOM     25  C   UNL     1      -3.128  14.324  24.693  0.00  0.00    +0.000 A 
ATOM     26  C   UNL     1      -3.780  13.188  24.244  0.00  0.00    +0.000 A 
ATOM     27  C   UNL     1      -3.130  12.300  23.389  0.00  0.00    +0.000 A 
ATOM     28  C   UNL     1      -1.810  12.520  22.905  0.00  0.00    +0.000 A 
BRANCH  23  30
ATOM     29  C   UNL     1       0.191  15.138  22.011  0.00  0.00    +0.000 C 
ATOM     30  O   UNL     1       0.075  14.002  22.857  0.00  0.00    +0.000 OA
ENDBRANCH  23  30
ENDBRANCH  17  28
ENDBRANCH   1  20
TORSDOF 4
ENDMDL
MODEL 9
REMARK VINA RESULT:      -7.4      1.123      1.400
REMARK  Name = 
REMARK  5 active torsions:
REMARK  status: ('A' for Active; 'I' for Inactive)
REMARK    1  A    between atoms: C_1  and  O_2
REMARK    2  A    between atoms: O_2  and  C_3
REMARK    3  A    between atoms: C_8  and  N_9
REMARK    4  A    between atoms: N_12  and  C_13
REMARK    5  A    between atoms: C_13  and  C_14
REMARK                            x       y       z     vdW  Elec       q    Type
REMARK                         _______ _______ _______ _____ _____    ______ ____
ROOT
ATOM      1  C   UNL     1       8.032   8.433  18.914  0.00  0.00    +0.000 C 
ENDROOT
BRANCH   1   2
ATOM      2  C   UNL     1       8.869   9.616  18.344  0.00  0.00    +0.000 C 
ATOM      3  C   UNL     1       9.660  10.357  19.450  0.00  0.00    +0.000 C 
ATOM      4  C   UNL     1      10.724  11.257  18.757  0.00  0.00    +0.000 C 
ATOM      5  O   UNL     1      11.893  11.288  19.113  0.00  0.00    +0.000 OA
ATOM      6  C   UNL     1      10.122  12.187  17.778  0.00  0.00    +0.000 A 
ATOM      7  C   UNL     1       8.758  12.026  17.601  0.00  0.00    +0.000 A 
ATOM      8  N   UNL     1       8.270  13.201  18.165  0.00  0.00    +0.000 N 
ATOM      9  C   UNL     1       9.283  14.154  18.192  0.00  0.00    +0.000 A 
ATOM     10  C   UNL     1       9.363  15.456  18.698  0.00  0.00    +0.000 A 
ATOM     11  C   UNL     1      10.417  16.251  18.223  0.00  0.00    +0.000 A 
ATOM     12  C   UNL     1      11.322  15.758  17.282  0.00  0.00    +0.000 A 
ATOM     13  C   UNL     1      11.350  14.389  16.981  0.00  0.00    +0.000 A 
ATOM     14  C   UNL     1      10.356  13.556  17.532  0.00  0.00    +0.000 A 
ATOM     15  C   UNL     1       8.072  10.678  17.505  0.00  0.00    +0.000 C 
ATOM     16  H   UNL     1       7.334  13.345  18.523  0.00  0.00    +0.000 HD
ENDBRANCH   1   2
BRANCH   1  20
ATOM     17  N   UNL     1       5.345   5.637  18.339  0.00  0.00    +0.000 N 
ATOM     18  C   UNL     1       6.407   5.523  19.361  0.00  0.00    +0.000 C 
ATOM     19  C   UNL     1       7.782   5.940  18.758  0.00  0.00    +0.000 C 
ATOM     20  N   UNL     1       7.882   7.244  18.048  0.00  0.00    +0.000 NA
ATOM     21  C   UNL     1       6.701   7.353  17.142  0.00  0.00    +0.000 C 
ATOM     22  C   UNL     1       5.306   6.990  17.742  0.00  0.00    +0.000 C 
BRANCH  17  28
ATOM     23  C   UNL     1       4.065   3.565  18.935  0.00  0.00    +0.000 A 
ATOM     24  C   UNL     1       2.867   2.828  18.794  0.00  0.00    +0.000 A 
ATOM     25  C   UNL     1       1.755   3.378  18.150  0.00  0.00    +0.000 A 
ATOM     26  C   UNL     1       1.838   4.663  17.643  0.00  0.00    +0.000 A 
ATOM     27  C   UNL     1       3.031   5.376  17.737  0.00  0.00    +0.000 A 
ATOM     28  C   UNL     1       4.191   4.860  18.379  0.00  0.00    +0.000 A 
BRANCH  23  30
ATOM     29  C   UNL     1       4.897   1.881  20.401  0.00  0.00    +0.000 C 
ATOM     30  O   UNL     1       5.143   3.037  19.612  0.00  0.00    +0.000 OA
ENDBRANCH  23  30
ENDBRANCH  17  28
ENDBRANCH   1  20
TORSDOF 4
ENDMDL
