MODEL 1
REMARK VINA RESULT:      -7.5      0.000      0.000
REMARK  Name = 
REMARK  14 active torsions:
REMARK  status: ('A' for Active; 'I' for Inactive)
REMARK    1  A    between atoms: C_1  and  N_2
REMARK    2  A    between atoms: N_2  and  C_3
REMARK    3  A    between atoms: N_2  and  S_4
REMARK    4  A    between atoms: S_4  and  C_7
REMARK    5  A    between atoms: N_13  and  O_14
REMARK    6  A    between atoms: O_14  and  C_15
REMARK    7  A    between atoms: C_15  and  C_16
REMARK    8  A    between atoms: C_16  and  C_17
REMARK    9  A    between atoms: C_17  and  O_18
REMARK   10  A    between atoms: O_18  and  C_19
REMARK   11  A    between atoms: C_22  and  C_23
REMARK   12  A    between atoms: C_23  and  C_24
REMARK   13  A    between atoms: C_23  and  C_25
REMARK   14  A    between atoms: C_23  and  C_26
REMARK                            x       y       z     vdW  Elec       q    Type
REMARK                         _______ _______ _______ _____ _____    ______ ____
ROOT
ATOM      1  C   UNL     1       0.845  10.482  19.909  0.00  0.00    +0.000 A 
ATOM      2  C   UNL     1       1.383  10.787  18.649  0.00  0.00    +0.000 A 
ATOM      3  C   UNL     1       2.041   9.803  17.895  0.00  0.00    +0.000 A 
ATOM      4  C   UNL     1       2.153   8.512  18.432  0.00  0.00    +0.000 A 
ATOM      5  N   UNL     1       2.777   7.388  17.955  0.00  0.00    +0.000 NA
ATOM      6  N   UNL     1       2.665   6.434  18.876  0.00  0.00    +0.000 NA
ATOM      7  N   UNL     1       1.906   6.928  19.867  0.00  0.00    +0.000 N 
ATOM      8  C   UNL     1       1.579   8.239  19.666  0.00  0.00    +0.000 A 
ATOM      9  C   UNL     1       0.895   9.184  20.437  0.00  0.00    +0.000 A 
ENDROOT
BRANCH   1  10
ATOM     10  S   UNL     1       0.036  11.766  20.857  0.00  0.00    +0.000 S 
ATOM     11  O   UNL     1       1.074  12.626  21.385  0.00  0.00    +0.000 OA
ATOM     12  O   UNL     1      -0.915  11.113  21.733  0.00  0.00    +0.000 OA
BRANCH  10  14
ATOM     13  C   UNL     1      -2.154  12.097  19.291  0.00  0.00    +0.000 C 
ATOM     14  N   UNL     1      -0.839  12.630  19.679  0.00  0.00    +0.000 NA
ATOM     15  C   UNL     1      -0.782  14.099  19.753  0.00  0.00    +0.000 C 
ENDBRANCH  10  14
ENDBRANCH   1  10
BRANCH   7  16
ATOM     16  O   UNL     1       1.751   6.268  21.087  0.00  0.00    +0.000 OA
BRANCH  16  17
ATOM     17  C   UNL     1       2.265   4.942  21.016  0.00  0.00    +0.000 C 
BRANCH  17  18
ATOM     18  C   UNL     1       1.103   4.006  20.702  0.00  0.00    +0.000 C 
BRANCH  18  19
ATOM     19  C   UNL     1       1.571   2.561  20.697  0.00  0.00    +0.000 C 
BRANCH  19  20
ATOM     20  O   UNL     1       1.710   2.100  19.350  0.00  0.00    +0.000 OA
BRANCH  20  21
ATOM     21  C   UNL     1       2.755   2.651  18.654  0.00  0.00    +0.000 A 
ATOM     22  C   UNL     1       4.067   2.736  19.113  0.00  0.00    +0.000 A 
ATOM     23  C   UNL     1       5.056   3.350  18.346  0.00  0.00    +0.000 A 
ATOM     24  C   UNL     1       4.778   3.901  17.087  0.00  0.00    +0.000 A 
ATOM     25  C   UNL     1       3.456   3.780  16.619  0.00  0.00    +0.000 A 
ATOM     26  C   UNL     1       2.460   3.163  17.393  0.00  0.00    +0.000 A 
BRANCH  24  27
ATOM     27  C   UNL     1       5.861   4.627  16.272  0.00  0.00    +0.000 C 
ATOM     28  C   UNL     1       7.205   4.760  17.029  0.00  0.00    +0.000 C 
ATOM     29  C   UNL     1       6.144   3.865  14.963  0.00  0.00    +0.000 C 
ATOM     30  C   UNL     1       5.392   6.058  15.934  0.00  0.00    +0.000 C 
ENDBRANCH  24  27
ENDBRANCH  20  21
ENDBRANCH  19  20
ENDBRANCH  18  19
ENDBRANCH  17  18
ENDBRANCH  16  17
ENDBRANCH   7  16
TORSDOF 9
ENDMDL
MODEL 2
REMARK VINA RESULT:      -7.4      3.719      9.928
REMARK  Name = 
REMARK  14 active torsions:
REMARK  status: ('A' for Active; 'I' for Inactive)
REMARK    1  A    between atoms: C_1  and  N_2
REMARK    2  A    between atoms: N_2  and  C_3
REMARK    3  A    between atoms: N_2  and  S_4
REMARK    4  A    between atoms: S_4  and  C_7
REMARK    5  A    between atoms: N_13  and  O_14
REMARK    6  A    between atoms: O_14  and  C_15
REMARK    7  A    between atoms: C_15  and  C_16
REMARK    8  A    between atoms: C_16  and  C_17
REMARK    9  A    between atoms: C_17  and  O_18
REMARK   10  A    between atoms: O_18  and  C_19
REMARK   11  A    between atoms: C_22  and  C_23
REMARK   12  A    between atoms: C_23  and  C_24
REMARK   13  A    between atoms: C_23  and  C_25
REMARK   14  A    between atoms: C_23  and  C_26
REMARK                            x       y       z     vdW  Elec       q    Type
REMARK                         _______ _______ _______ _____ _____    ______ ____
ROOT
ATOM      1  C   UNL     1       4.534   4.952  16.856  0.00  0.00    +0.000 A 
ATOM      2  C   UNL     1       4.131   3.608  16.813  0.00  0.00    +0.000 A 
ATOM      3  C   UNL     1       3.153   3.126  17.697  0.00  0.00    +0.000 A 
ATOM      4  C   UNL     1       2.593   4.017  18.626  0.00  0.00    +0.000 A 
ATOM      5  N   UNL     1       1.677   3.818  19.627  0.00  0.00    +0.000 NA
ATOM      6  N   UNL     1       1.532   4.965  20.285  0.00  0.00    +0.000 NA
ATOM      7  N   UNL     1       2.276   5.884  19.647  0.00  0.00    +0.000 N 
ATOM      8  C   UNL     1       2.993   5.346  18.616  0.00  0.00    +0.000 A 
ATOM      9  C   UNL     1       3.946   5.870  17.737  0.00  0.00    +0.000 A 
ENDROOT
BRANCH   1  10
ATOM     10  S   UNL     1       5.803   5.528  15.734  0.00  0.00    +0.000 S 
ATOM     11  O   UNL     1       5.389   6.829  15.252  0.00  0.00    +0.000 OA
ATOM     12  O   UNL     1       6.083   4.443  14.815  0.00  0.00    +0.000 OA
BRANCH  10  14
ATOM     13  C   UNL     1       7.362   7.056  17.342  0.00  0.00    +0.000 C 
ATOM     14  N   UNL     1       7.159   5.728  16.744  0.00  0.00    +0.000 NA
ATOM     15  C   UNL     1       7.494   4.607  17.636  0.00  0.00    +0.000 C 
ENDBRANCH  10  14
ENDBRANCH   1  10
BRANCH   7  16
ATOM     16  O   UNL     1       2.516   7.150  20.181  0.00  0.00    +0.000 OA
BRANCH  16  17
ATOM     17  C   UNL     1       1.791   8.148  19.469  0.00  0.00    +0.000 C 
BRANCH  17  18
ATOM     18  C   UNL     1       0.917   8.896  20.470  0.00  0.00    +0.000 C 
BRANCH  18  19
ATOM     19  C   UNL     1       0.242  10.082  19.804  0.00  0.00    +0.000 C 
BRANCH  19  20
ATOM     20  O   UNL     1       0.378  11.244  20.626  0.00  0.00    +0.000 OA
BRANCH  20  21
ATOM     21  C   UNL     1      -0.784  11.683  21.207  0.00  0.00    +0.000 A 
ATOM     22  C   UNL     1      -1.771  12.423  20.562  0.00  0.00    +0.000 A 
ATOM     23  C   UNL     1      -2.903  12.859  21.250  0.00  0.00    +0.000 A 
ATOM     24  C   UNL     1      -3.098  12.572  22.608  0.00  0.00    +0.000 A 
ATOM     25  C   UNL     1      -2.108  11.797  23.241  0.00  0.00    +0.000 A 
ATOM     26  C   UNL     1      -0.968  11.360  22.549  0.00  0.00    +0.000 A 
BRANCH  24  27
ATOM     27  C   UNL     1      -4.320  13.106  23.374  0.00  0.00    +0.000 C 
ATOM     28  C   UNL     1      -4.227  14.619  23.688  0.00  0.00    +0.000 C 
ATOM     29  C   UNL     1      -5.603  12.886  22.549  0.00  0.00    +0.000 C 
ATOM     30  C   UNL     1      -4.454  12.373  24.725  0.00  0.00    +0.000 C 
ENDBRANCH  24  27
ENDBRANCH  20  21
ENDBRANCH  19  20
ENDBRANCH  18  19
ENDBRANCH  17  18
ENDBRANCH  16  17
ENDBRANCH   7  16
TORSDOF 9
ENDMDL
MODEL 3
REMARK VINA RESULT:      -7.3      6.761      9.909
REMARK  Name = 
REMARK  14 active torsions:
REMARK  status: ('A' for Active; 'I' for Inactive)
REMARK    1  A    between atoms: C_1  and  N_2
REMARK    2  A    between atoms: N_2  and  C_3
REMARK    3  A    between atoms: N_2  and  S_4
REMARK    4  A    between atoms: S_4  and  C_7
REMARK    5  A    between atoms: N_13  and  O_14
REMARK    6  A    between atoms: O_14  and  C_15
REMARK    7  A    between atoms: C_15  and  C_16
REMARK    8  A    between atoms: C_16  and  C_17
REMARK    9  A    between atoms: C_17  and  O_18
REMARK   10  A    between atoms: O_18  and  C_19
REMARK   11  A    between atoms: C_22  and  C_23
REMARK   12  A    between atoms: C_23  and  C_24
REMARK   13  A    between atoms: C_23  and  C_25
REMARK   14  A    between atoms: C_23  and  C_26
REMARK                            x       y       z     vdW  Elec       q    Type
REMARK                         _______ _______ _______ _____ _____    ______ ____
ROOT
ATOM      1  C   UNL     1       3.764   4.768  17.722  0.00  0.00    +0.000 A 
ATOM      2  C   UNL     1       4.052   3.737  16.814  0.00  0.00    +0.000 A 
ATOM      3  C   UNL     1       5.243   3.752  16.071  0.00  0.00    +0.000 A 
ATOM      4  C   UNL     1       6.133   4.821  16.253  0.00  0.00    +0.000 A 
ATOM      5  N   UNL     1       7.321   5.121  15.637  0.00  0.00    +0.000 NA
ATOM      6  N   UNL     1       7.744   6.290  16.108  0.00  0.00    +0.000 NA
ATOM      7  N   UNL     1       6.881   6.667  17.066  0.00  0.00    +0.000 N 
ATOM      8  C   UNL     1       5.829   5.804  17.185  0.00  0.00    +0.000 A 
ATOM      9  C   UNL     1       4.666   5.813  17.961  0.00  0.00    +0.000 A 
ENDROOT
BRANCH   1  10
ATOM     10  S   UNL     1       2.225   4.734  18.634  0.00  0.00    +0.000 S 
ATOM     11  O   UNL     1       1.155   4.628  17.663  0.00  0.00    +0.000 OA
ATOM     12  O   UNL     1       2.269   5.825  19.584  0.00  0.00    +0.000 OA
BRANCH  10  14
ATOM     13  C   UNL     1       1.658   2.096  18.914  0.00  0.00    +0.000 C 
ATOM     14  N   UNL     1       2.317   3.272  19.503  0.00  0.00    +0.000 NA
ATOM     15  C   UNL     1       3.593   2.977  20.173  0.00  0.00    +0.000 C 
ENDBRANCH  10  14
ENDBRANCH   1  10
BRANCH   7  16
ATOM     16  O   UNL     1       6.908   7.941  17.635  0.00  0.00    +0.000 OA
BRANCH  16  17
ATOM     17  C   UNL     1       8.247   8.393  17.805  0.00  0.00    +0.000 C 
BRANCH  17  18
ATOM     18  C   UNL     1       8.200   9.877  18.153  0.00  0.00    +0.000 C 
BRANCH  18  19
ATOM     19  C   UNL     1       9.145  10.185  19.302  0.00  0.00    +0.000 C 
BRANCH  19  20
ATOM     20  O   UNL     1      10.373  10.712  18.793  0.00  0.00    +0.000 OA
BRANCH  20  21
ATOM     21  C   UNL     1      10.382  12.068  18.588  0.00  0.00    +0.000 A 
ATOM     22  C   UNL     1      10.775  12.696  17.409  0.00  0.00    +0.000 A 
ATOM     23  C   UNL     1      10.786  14.087  17.309  0.00  0.00    +0.000 A 
ATOM     24  C   UNL     1      10.405  14.907  18.380  0.00  0.00    +0.000 A 
ATOM     25  C   UNL     1       9.981  14.260  19.555  0.00  0.00    +0.000 A 
ATOM     26  C   UNL     1       9.970  12.860  19.656  0.00  0.00    +0.000 A 
BRANCH  24  27
ATOM     27  C   UNL     1      10.477  16.440  18.281  0.00  0.00    +0.000 C 
ATOM     28  C   UNL     1      11.201  16.934  17.005  0.00  0.00    +0.000 C 
ATOM     29  C   UNL     1       9.058  17.040  18.266  0.00  0.00    +0.000 C 
ATOM     30  C   UNL     1      11.254  17.008  19.487  0.00  0.00    +0.000 C 
ENDBRANCH  24  27
ENDBRANCH  20  21
ENDBRANCH  19  20
ENDBRANCH  18  19
ENDBRANCH  17  18
ENDBRANCH  16  17
ENDBRANCH   7  16
TORSDOF 9
ENDMDL
MODEL 4
REMARK VINA RESULT:      -7.3      3.583      7.679
REMARK  Name = 
REMARK  14 active torsions:
REMARK  status: ('A' for Active; 'I' for Inactive)
REMARK    1  A    between atoms: C_1  and  N_2
REMARK    2  A    between atoms: N_2  and  C_3
REMARK    3  A    between atoms: N_2  and  S_4
REMARK    4  A    between atoms: S_4  and  C_7
REMARK    5  A    between atoms: N_13  and  O_14
REMARK    6  A    between atoms: O_14  and  C_15
REMARK    7  A    between atoms: C_15  and  C_16
REMARK    8  A    between atoms: C_16  and  C_17
REMARK    9  A    between atoms: C_17  and  O_18
REMARK   10  A    between atoms: O_18  and  C_19
REMARK   11  A    between atoms: C_22  and  C_23
REMARK   12  A    between atoms: C_23  and  C_24
REMARK   13  A    between atoms: C_23  and  C_25
REMARK   14  A    between atoms: C_23  and  C_26
REMARK                            x       y       z     vdW  Elec       q    Type
REMARK                         _______ _______ _______ _____ _____    ______ ____
ROOT
ATOM      1  C   UNL     1       5.789   4.333  17.947  0.00  0.00    +0.000 A 
ATOM      2  C   UNL     1       5.337   4.286  16.620  0.00  0.00    +0.000 A 
ATOM      3  C   UNL     1       4.076   3.749  16.313  0.00  0.00    +0.000 A 
ATOM      4  C   UNL     1       3.284   3.259  17.363  0.00  0.00    +0.000 A 
ATOM      5  N   UNL     1       2.059   2.643  17.356  0.00  0.00    +0.000 NA
ATOM      6  N   UNL     1       1.768   2.295  18.606  0.00  0.00    +0.000 NA
ATOM      7  N   UNL     1       2.752   2.768  19.388  0.00  0.00    +0.000 N 
ATOM      8  C   UNL     1       3.751   3.355  18.666  0.00  0.00    +0.000 A 
ATOM      9  C   UNL     1       4.990   3.903  19.015  0.00  0.00    +0.000 A 
ENDROOT
BRANCH   1  10
ATOM     10  S   UNL     1       7.412   4.998  18.301  0.00  0.00    +0.000 S 
ATOM     11  O   UNL     1       8.369   4.217  17.545  0.00  0.00    +0.000 OA
ATOM     12  O   UNL     1       7.517   5.123  19.740  0.00  0.00    +0.000 OA
BRANCH  10  14
ATOM     13  C   UNL     1       8.085   7.625  18.343  0.00  0.00    +0.000 C 
ATOM     14  N   UNL     1       7.347   6.566  17.639  0.00  0.00    +0.000 NA
ATOM     15  C   UNL     1       7.395   6.670  16.171  0.00  0.00    +0.000 C 
ENDBRANCH  10  14
ENDBRANCH   1  10
BRANCH   7  16
ATOM     16  O   UNL     1       2.872   2.412  20.732  0.00  0.00    +0.000 OA
BRANCH  16  17
ATOM     17  C   UNL     1       1.918   3.108  21.529  0.00  0.00    +0.000 C 
BRANCH  17  18
ATOM     18  C   UNL     1       2.356   4.566  21.618  0.00  0.00    +0.000 C 
BRANCH  18  19
ATOM     19  C   UNL     1       1.578   5.417  20.630  0.00  0.00    +0.000 C 
BRANCH  19  20
ATOM     20  O   UNL     1       2.469   6.294  19.937  0.00  0.00    +0.000 OA
BRANCH  20  21
ATOM     21  C   UNL     1       1.981   7.554  19.704  0.00  0.00    +0.000 A 
ATOM     22  C   UNL     1       2.098   8.248  18.502  0.00  0.00    +0.000 A 
ATOM     23  C   UNL     1       1.600   9.544  18.374  0.00  0.00    +0.000 A 
ATOM     24  C   UNL     1       0.963  10.200  19.437  0.00  0.00    +0.000 A 
ATOM     25  C   UNL     1       0.823   9.476  20.636  0.00  0.00    +0.000 A 
ATOM     26  C   UNL     1       1.325   8.172  20.765  0.00  0.00    +0.000 A 
BRANCH  24  27
ATOM     27  C   UNL     1       0.470  11.650  19.305  0.00  0.00    +0.000 C 
ATOM     28  C   UNL     1       0.136  12.306  20.667  0.00  0.00    +0.000 C 
ATOM     29  C   UNL     1       1.548  12.520  18.629  0.00  0.00    +0.000 C 
ATOM     30  C   UNL     1      -0.819  11.691  18.457  0.00  0.00    +0.000 C 
ENDBRANCH  24  27
ENDBRANCH  20  21
ENDBRANCH  19  20
ENDBRANCH  18  19
ENDBRANCH  17  18
ENDBRANCH  16  17
ENDBRANCH   7  16
TORSDOF 9
ENDMDL
MODEL 5
REMARK VINA RESULT:      -7.2      3.496      9.748
REMARK  Name = 
REMARK  14 active torsions:
REMARK  status: ('A' for Active; 'I' for Inactive)
REMARK    1  A    between atoms: C_1  and  N_2
REMARK    2  A    between atoms: N_2  and  C_3
REMARK    3  A    between atoms: N_2  and  S_4
REMARK    4  A    between atoms: S_4  and  C_7
REMARK    5  A    between atoms: N_13  and  O_14
REMARK    6  A    between atoms: O_14  and  C_15
REMARK    7  A    between atoms: C_15  and  C_16
REMARK    8  A    between atoms: C_16  and  C_17
REMARK    9  A    between atoms: C_17  and  O_18
REMARK   10  A    between atoms: O_18  and  C_19
REMARK   11  A    between atoms: C_22  and  C_23
REMARK   12  A    between atoms: C_23  and  C_24
REMARK   13  A    between atoms: C_23  and  C_25
REMARK   14  A    between atoms: C_23  and  C_26
REMARK                            x       y       z     vdW  Elec       q    Type
REMARK                         _______ _______ _______ _____ _____    ______ ____
ROOT
ATOM      1  C   UNL     1       4.576   5.016  17.365  0.00  0.00    +0.000 A 
ATOM      2  C   UNL     1       4.401   3.766  17.979  0.00  0.00    +0.000 A 
ATOM      3  C   UNL     1       3.515   3.617  19.058  0.00  0.00    +0.000 A 
ATOM      4  C   UNL     1       2.814   4.747  19.509  0.00  0.00    +0.000 A 
ATOM      5  N   UNL     1       1.942   4.908  20.555  0.00  0.00    +0.000 NA
ATOM      6  N   UNL     1       1.608   6.194  20.616  0.00  0.00    +0.000 NA
ATOM      7  N   UNL     1       2.190   6.804  19.570  0.00  0.00    +0.000 N 
ATOM      8  C   UNL     1       2.987   5.958  18.854  0.00  0.00    +0.000 A 
ATOM      9  C   UNL     1       3.842   6.141  17.762  0.00  0.00    +0.000 A 
ENDROOT
BRANCH   1  10
ATOM     10  S   UNL     1       5.733   5.177  16.010  0.00  0.00    +0.000 S 
ATOM     11  O   UNL     1       5.324   6.329  15.233  0.00  0.00    +0.000 OA
ATOM     12  O   UNL     1       5.860   3.869  15.401  0.00  0.00    +0.000 OA
BRANCH  10  14
ATOM     13  C   UNL     1       7.377   6.914  17.290  0.00  0.00    +0.000 C 
ATOM     14  N   UNL     1       7.202   5.541  16.791  0.00  0.00    +0.000 NA
ATOM     15  C   UNL     1       7.762   4.503  17.671  0.00  0.00    +0.000 C 
ENDBRANCH  10  14
ENDBRANCH   1  10
BRANCH   7  16
ATOM     16  O   UNL     1       2.216   8.193  19.437  0.00  0.00    +0.000 OA
BRANCH  16  17
ATOM     17  C   UNL     1       1.777   8.588  18.141  0.00  0.00    +0.000 C 
BRANCH  17  18
ATOM     18  C   UNL     1       1.426  10.071  18.197  0.00  0.00    +0.000 C 
BRANCH  18  19
ATOM     19  C   UNL     1       0.037  10.267  18.780  0.00  0.00    +0.000 C 
BRANCH  19  20
ATOM     20  O   UNL     1      -0.454  11.566  18.439  0.00  0.00    +0.000 OA
BRANCH  20  21
ATOM     21  C   UNL     1      -1.813  11.717  18.533  0.00  0.00    +0.000 A 
ATOM     22  C   UNL     1      -2.486  12.240  19.635  0.00  0.00    +0.000 A 
ATOM     23  C   UNL     1      -3.878  12.318  19.652  0.00  0.00    +0.000 A 
ATOM     24  C   UNL     1      -4.656  11.879  18.572  0.00  0.00    +0.000 A 
ATOM     25  C   UNL     1      -3.963  11.381  17.452  0.00  0.00    +0.000 A 
ATOM     26  C   UNL     1      -2.562  11.302  17.435  0.00  0.00    +0.000 A 
BRANCH  24  27
ATOM     27  C   UNL     1      -6.192  11.914  18.623  0.00  0.00    +0.000 C 
ATOM     28  C   UNL     1      -6.829  10.507  18.727  0.00  0.00    +0.000 C 
ATOM     29  C   UNL     1      -6.666  12.724  19.845  0.00  0.00    +0.000 C 
ATOM     30  C   UNL     1      -6.746  12.565  17.339  0.00  0.00    +0.000 C 
ENDBRANCH  24  27
ENDBRANCH  20  21
ENDBRANCH  19  20
ENDBRANCH  18  19
ENDBRANCH  17  18
ENDBRANCH  16  17
ENDBRANCH   7  16
TORSDOF 9
ENDMDL
MODEL 6
REMARK VINA RESULT:      -7.2      3.509      9.935
REMARK  Name = 
REMARK  14 active torsions:
REMARK  status: ('A' for Active; 'I' for Inactive)
REMARK    1  A    between atoms: C_1  and  N_2
REMARK    2  A    between atoms: N_2  and  C_3
REMARK    3  A    between atoms: N_2  and  S_4
REMARK    4  A    between atoms: S_4  and  C_7
REMARK    5  A    between atoms: N_13  and  O_14
REMARK    6  A    between atoms: O_14  and  C_15
REMARK    7  A    between atoms: C_15  and  C_16
REMARK    8  A    between atoms: C_16  and  C_17
REMARK    9  A    between atoms: C_17  and  O_18
REMARK   10  A    between atoms: O_18  and  C_19
REMARK   11  A    between atoms: C_22  and  C_23
REMARK   12  A    between atoms: C_23  and  C_24
REMARK   13  A    between atoms: C_23  and  C_25
REMARK   14  A    between atoms: C_23  and  C_26
REMARK                            x       y       z     vdW  Elec       q    Type
REMARK                         _______ _______ _______ _____ _____    ______ ____
ROOT
ATOM      1  C   UNL     1       4.526   5.253  17.366  0.00  0.00    +0.000 A 
ATOM      2  C   UNL     1       4.346   3.987  17.944  0.00  0.00    +0.000 A 
ATOM      3  C   UNL     1       3.455   3.811  19.016  0.00  0.00    +0.000 A 
ATOM      4  C   UNL     1       2.756   4.930  19.495  0.00  0.00    +0.000 A 
ATOM      5  N   UNL     1       1.881   5.065  20.542  0.00  0.00    +0.000 NA
ATOM      6  N   UNL     1       1.550   6.350  20.638  0.00  0.00    +0.000 NA
ATOM      7  N   UNL     1       2.138   6.987  19.611  0.00  0.00    +0.000 N 
ATOM      8  C   UNL     1       2.935   6.158  18.875  0.00  0.00    +0.000 A 
ATOM      9  C   UNL     1       3.794   6.369  17.791  0.00  0.00    +0.000 A 
ENDROOT
BRANCH   1  10
ATOM     10  S   UNL     1       5.689   5.448  16.019  0.00  0.00    +0.000 S 
ATOM     11  O   UNL     1       5.322   6.656  15.310  0.00  0.00    +0.000 OA
ATOM     12  O   UNL     1       5.768   4.173  15.337  0.00  0.00    +0.000 OA
BRANCH  10  14
ATOM     13  C   UNL     1       7.411   7.060  17.358  0.00  0.00    +0.000 C 
ATOM     14  N   UNL     1       7.170   5.714  16.816  0.00  0.00    +0.000 NA
ATOM     15  C   UNL     1       7.672   4.623  17.666  0.00  0.00    +0.000 C 
ENDBRANCH  10  14
ENDBRANCH   1  10
BRANCH   7  16
ATOM     16  O   UNL     1       2.168   8.379  19.517  0.00  0.00    +0.000 OA
BRANCH  16  17
ATOM     17  C   UNL     1       1.106   8.962  20.265  0.00  0.00    +0.000 C 
BRANCH  17  18
ATOM     18  C   UNL     1       0.328   9.884  19.332  0.00  0.00    +0.000 C 
BRANCH  18  19
ATOM     19  C   UNL     1      -0.137  11.124  20.076  0.00  0.00    +0.000 C 
BRANCH  19  20
ATOM     20  O   UNL     1      -0.735  12.045  19.161  0.00  0.00    +0.000 OA
BRANCH  20  21
ATOM     21  C   UNL     1      -2.106  12.016  19.120  0.00  0.00    +0.000 A 
ATOM     22  C   UNL     1      -2.864  11.473  18.085  0.00  0.00    +0.000 A 
ATOM     23  C   UNL     1      -4.257  11.525  18.116  0.00  0.00    +0.000 A 
ATOM     24  C   UNL     1      -4.951  12.119  19.180  0.00  0.00    +0.000 A 
ATOM     25  C   UNL     1      -4.174  12.635  20.234  0.00  0.00    +0.000 A 
ATOM     26  C   UNL     1      -2.772  12.583  20.203  0.00  0.00    +0.000 A 
BRANCH  24  27
ATOM     27  C   UNL     1      -6.485  12.225  19.178  0.00  0.00    +0.000 C 
ATOM     28  C   UNL     1      -7.177  11.044  19.901  0.00  0.00    +0.000 C 
ATOM     29  C   UNL     1      -6.930  13.520  19.884  0.00  0.00    +0.000 C 
ATOM     30  C   UNL     1      -7.008  12.233  17.727  0.00  0.00    +0.000 C 
ENDBRANCH  24  27
ENDBRANCH  20  21
ENDBRANCH  19  20
ENDBRANCH  18  19
ENDBRANCH  17  18
ENDBRANCH  16  17
ENDBRANCH   7  16
TORSDOF 9
ENDMDL
MODEL 7
REMARK VINA RESULT:      -7.1      3.732      9.963
REMARK  Name = 
REMARK  14 active torsions:
REMARK  status: ('A' for Active; 'I' for Inactive)
REMARK    1  A    between atoms: C_1  and  N_2
REMARK    2  A    between atoms: N_2  and  C_3
REMARK    3  A    between atoms: N_2  and  S_4
REMARK    4  A    between atoms: S_4  and  C_7
REMARK    5  A    between atoms: N_13  and  O_14
REMARK    6  A    between atoms: O_14  and  C_15
REMARK    7  A    between atoms: C_15  and  C_16
REMARK    8  A    between atoms: C_16  and  C_17
REMARK    9  A    between atoms: C_17  and  O_18
REMARK   10  A    between atoms: O_18  and  C_19
REMARK   11  A    between atoms: C_22  and  C_23
REMARK   12  A    between atoms: C_23  and  C_24
REMARK   13  A    between atoms: C_23  and  C_25
REMARK   14  A    between atoms: C_23  and  C_26
REMARK                            x       y       z     vdW  Elec       q    Type
REMARK                         _______ _______ _______ _____ _____    ______ ____
ROOT
ATOM      1  C   UNL     1       5.315   5.260  17.878  0.00  0.00    +0.000 A 
ATOM      2  C   UNL     1       5.326   3.965  18.420  0.00  0.00    +0.000 A 
ATOM      3  C   UNL     1       4.351   3.572  19.351  0.00  0.00    +0.000 A 
ATOM      4  C   UNL     1       3.372   4.503  19.728  0.00  0.00    +0.000 A 
ATOM      5  N   UNL     1       2.349   4.417  20.638  0.00  0.00    +0.000 NA
ATOM      6  N   UNL     1       1.745   5.601  20.689  0.00  0.00    +0.000 NA
ATOM      7  N   UNL     1       2.323   6.381  19.761  0.00  0.00    +0.000 N 
ATOM      8  C   UNL     1       3.373   5.762  19.145  0.00  0.00    +0.000 A 
ATOM      9  C   UNL     1       4.312   6.184  18.198  0.00  0.00    +0.000 A 
ENDROOT
BRANCH   1  10
ATOM     10  S   UNL     1       6.588   5.738  16.715  0.00  0.00    +0.000 S 
ATOM     11  O   UNL     1       5.968   6.608  15.737  0.00  0.00    +0.000 OA
ATOM     12  O   UNL     1       7.274   4.528  16.314  0.00  0.00    +0.000 OA
BRANCH  10  14
ATOM     13  C   UNL     1       7.563   8.127  17.552  0.00  0.00    +0.000 C 
ATOM     14  N   UNL     1       7.658   6.663  17.664  0.00  0.00    +0.000 NA
ATOM     15  C   UNL     1       7.927   6.178  19.027  0.00  0.00    +0.000 C 
ENDBRANCH  10  14
ENDBRANCH   1  10
BRANCH   7  16
ATOM     16  O   UNL     1       2.073   7.751  19.677  0.00  0.00    +0.000 OA
BRANCH  16  17
ATOM     17  C   UNL     1       1.481   8.234  20.880  0.00  0.00    +0.000 C 
BRANCH  17  18
ATOM     18  C   UNL     1       0.465   9.307  20.504  0.00  0.00    +0.000 C 
BRANCH  18  19
ATOM     19  C   UNL     1       0.905  10.663  21.029  0.00  0.00    +0.000 C 
BRANCH  19  20
ATOM     20  O   UNL     1       0.247  10.941  22.267  0.00  0.00    +0.000 OA
BRANCH  20  21
ATOM     21  C   UNL     1      -0.941  11.617  22.155  0.00  0.00    +0.000 A 
ATOM     22  C   UNL     1      -1.318  12.398  21.065  0.00  0.00    +0.000 A 
ATOM     23  C   UNL     1      -2.533  13.080  21.059  0.00  0.00    +0.000 A 
ATOM     24  C   UNL     1      -3.424  13.010  22.140  0.00  0.00    +0.000 A 
ATOM     25  C   UNL     1      -3.047  12.193  23.221  0.00  0.00    +0.000 A 
ATOM     26  C   UNL     1      -1.822  11.507  23.227  0.00  0.00    +0.000 A 
BRANCH  24  27
ATOM     27  C   UNL     1      -4.736  13.813  22.151  0.00  0.00    +0.000 C 
ATOM     28  C   UNL     1      -4.899  14.694  23.413  0.00  0.00    +0.000 C 
ATOM     29  C   UNL     1      -4.799  14.747  20.927  0.00  0.00    +0.000 C 
ATOM     30  C   UNL     1      -5.941  12.850  22.115  0.00  0.00    +0.000 C 
ENDBRANCH  24  27
ENDBRANCH  20  21
ENDBRANCH  19  20
ENDBRANCH  18  19
ENDBRANCH  17  18
ENDBRANCH  16  17
ENDBRANCH   7  16
TORSDOF 9
ENDMDL
MODEL 8
REMARK VINA RESULT:      -7.1      6.106      7.442
REMARK  Name = 
REMARK  14 active torsions:
REMARK  status: ('A' for Active; 'I' for Inactive)
REMARK    1  A    between atoms: C_1  and  N_2
REMARK    2  A    between atoms: N_2  and  C_3
REMARK    3  A    between atoms: N_2  and  S_4
REMARK    4  A    between atoms: S_4  and  C_7
REMARK    5  A    between atoms: N_13  and  O_14
REMARK    6  A    between atoms: O_14  and  C_15
REMARK    7  A    between atoms: C_15  and  C_16
REMARK    8  A    between atoms: C_16  and  C_17
REMARK    9  A    between atoms: C_17  and  O_18
REMARK   10  A    between atoms: O_18  and  C_19
REMARK   11  A    between atoms: C_22  and  C_23
REMARK   12  A    between atoms: C_23  and  C_24
REMARK   13  A    between atoms: C_23  and  C_25
REMARK   14  A    between atoms: C_23  and  C_26
REMARK                            x       y       z     vdW  Elec       q    Type
REMARK                         _______ _______ _______ _____ _____    ______ ____
ROOT
ATOM      1  C   UNL     1       6.838  15.370  18.246  0.00  0.00    +0.000 A 
ATOM      2  C   UNL     1       7.832  16.361  18.242  0.00  0.00    +0.000 A 
ATOM      3  C   UNL     1       9.180  16.020  18.046  0.00  0.00    +0.000 A 
ATOM      4  C   UNL     1       9.508  14.668  17.860  0.00  0.00    +0.000 A 
ATOM      5  N   UNL     1      10.721  14.049  17.704  0.00  0.00    +0.000 NA
ATOM      6  N   UNL     1      10.508  12.737  17.642  0.00  0.00    +0.000 NA
ATOM      7  N   UNL     1       9.178  12.551  17.667  0.00  0.00    +0.000 N 
ATOM      8  C   UNL     1       8.494  13.721  17.836  0.00  0.00    +0.000 A 
ATOM      9  C   UNL     1       7.138  14.023  18.003  0.00  0.00    +0.000 A 
ENDROOT
BRANCH   1  10
ATOM     10  S   UNL     1       5.133  15.835  18.525  0.00  0.00    +0.000 S 
ATOM     11  O   UNL     1       4.341  15.196  17.495  0.00  0.00    +0.000 OA
ATOM     12  O   UNL     1       5.107  17.271  18.707  0.00  0.00    +0.000 OA
BRANCH  10  14
ATOM     13  C   UNL     1       5.690  15.364  21.138  0.00  0.00    +0.000 C 
ATOM     14  N   UNL     1       4.768  15.107  20.021  0.00  0.00    +0.000 NA
ATOM     15  C   UNL     1       3.349  15.060  20.409  0.00  0.00    +0.000 C 
ENDBRANCH  10  14
ENDBRANCH   1  10
BRANCH   7  16
ATOM     16  O   UNL     1       8.604  11.288  17.821  0.00  0.00    +0.000 OA
BRANCH  16  17
ATOM     17  C   UNL     1       9.238  10.567  18.872  0.00  0.00    +0.000 C 
BRANCH  17  18
ATOM     18  C   UNL     1       8.826   9.104  18.751  0.00  0.00    +0.000 C 
BRANCH  18  19
ATOM     19  C   UNL     1       7.839   8.922  17.611  0.00  0.00    +0.000 C 
BRANCH  19  20
ATOM     20  O   UNL     1       7.849   7.561  17.173  0.00  0.00    +0.000 OA
BRANCH  20  21
ATOM     21  C   UNL     1       6.829   6.786  17.662  0.00  0.00    +0.000 A 
ATOM     22  C   UNL     1       6.969   5.799  18.635  0.00  0.00    +0.000 A 
ATOM     23  C   UNL     1       5.875   5.035  19.041  0.00  0.00    +0.000 A 
ATOM     24  C   UNL     1       4.598   5.225  18.496  0.00  0.00    +0.000 A 
ATOM     25  C   UNL     1       4.463   6.246  17.537  0.00  0.00    +0.000 A 
ATOM     26  C   UNL     1       5.563   7.015  17.127  0.00  0.00    +0.000 A 
BRANCH  24  27
ATOM     27  C   UNL     1       3.410   4.339  18.907  0.00  0.00    +0.000 C 
ATOM     28  C   UNL     1       2.523   3.918  17.711  0.00  0.00    +0.000 C 
ATOM     29  C   UNL     1       3.917   3.048  19.580  0.00  0.00    +0.000 C 
ATOM     30  C   UNL     1       2.503   5.102  19.895  0.00  0.00    +0.000 C 
ENDBRANCH  24  27
ENDBRANCH  20  21
ENDBRANCH  19  20
ENDBRANCH  18  19
ENDBRANCH  17  18
ENDBRANCH  16  17
ENDBRANCH   7  16
TORSDOF 9
ENDMDL
MODEL 9
REMARK VINA RESULT:      -7.1      7.040     10.205
REMARK  Name = 
REMARK  14 active torsions:
REMARK  status: ('A' for Active; 'I' for Inactive)
REMARK    1  A    between atoms: C_1  and  N_2
REMARK    2  A    between atoms: N_2  and  C_3
REMARK    3  A    between atoms: N_2  and  S_4
REMARK    4  A    between atoms: S_4  and  C_7
REMARK    5  A    between atoms: N_13  and  O_14
REMARK    6  A    between atoms: O_14  and  C_15
REMARK    7  A    between atoms: C_15  and  C_16
REMARK    8  A    between atoms: C_16  and  C_17
REMARK    9  A    between atoms: C_17  and  O_18
REMARK   10  A    between atoms: O_18  and  C_19
REMARK   11  A    between atoms: C_22  and  C_23
REMARK   12  A    between atoms: C_23  and  C_24
REMARK   13  A    between atoms: C_23  and  C_25
REMARK   14  A    between atoms: C_23  and  C_26
REMARK                            x       y       z     vdW  Elec       q    Type
REMARK                         _______ _______ _______ _____ _____    ______ ____
ROOT
ATOM      1  C   UNL     1       3.840   4.672  17.713  0.00  0.00    +0.000 A 
ATOM      2  C   UNL     1       4.142   3.649  16.801  0.00  0.00    +0.000 A 
ATOM      3  C   UNL     1       5.316   3.701  16.032  0.00  0.00    +0.000 A 
ATOM      4  C   UNL     1       6.175   4.800  16.195  0.00  0.00    +0.000 A 
ATOM      5  N   UNL     1       7.339   5.136  15.554  0.00  0.00    +0.000 NA
ATOM      6  N   UNL     1       7.734   6.320  16.015  0.00  0.00    +0.000 NA
ATOM      7  N   UNL     1       6.880   6.669  16.991  0.00  0.00    +0.000 N 
ATOM      8  C   UNL     1       5.859   5.774  17.132  0.00  0.00    +0.000 A 
ATOM      9  C   UNL     1       4.713   5.746  17.933  0.00  0.00    +0.000 A 
ENDROOT
BRANCH   1  10
ATOM     10  S   UNL     1       2.322   4.589  18.658  0.00  0.00    +0.000 S 
ATOM     11  O   UNL     1       1.227   4.618  17.711  0.00  0.00    +0.000 OA
ATOM     12  O   UNL     1       2.425   5.573  19.715  0.00  0.00    +0.000 OA
BRANCH  10  14
ATOM     13  C   UNL     1       3.447   2.800  20.358  0.00  0.00    +0.000 C 
ATOM     14  N   UNL     1       2.386   3.042  19.368  0.00  0.00    +0.000 NA
ATOM     15  C   UNL     1       1.099   2.408  19.695  0.00  0.00    +0.000 C 
ENDBRANCH  10  14
ENDBRANCH   1  10
BRANCH   7  16
ATOM     16  O   UNL     1       6.877   7.945  17.558  0.00  0.00    +0.000 OA
BRANCH  16  17
ATOM     17  C   UNL     1       8.203   8.451  17.677  0.00  0.00    +0.000 C 
BRANCH  17  18
ATOM     18  C   UNL     1       8.110   9.951  17.932  0.00  0.00    +0.000 C 
BRANCH  18  19
ATOM     19  C   UNL     1       9.372  10.453  18.614  0.00  0.00    +0.000 C 
BRANCH  19  20
ATOM     20  O   UNL     1      10.165  11.193  17.683  0.00  0.00    +0.000 OA
BRANCH  20  21
ATOM     21  C   UNL     1      10.329  12.521  17.984  0.00  0.00    +0.000 A 
ATOM     22  C   UNL     1       9.300  13.457  18.056  0.00  0.00    +0.000 A 
ATOM     23  C   UNL     1       9.571  14.797  18.333  0.00  0.00    +0.000 A 
ATOM     24  C   UNL     1      10.877  15.256  18.552  0.00  0.00    +0.000 A 
ATOM     25  C   UNL     1      11.903  14.295  18.508  0.00  0.00    +0.000 A 
ATOM     26  C   UNL     1      11.632  12.947  18.228  0.00  0.00    +0.000 A 
BRANCH  24  27
ATOM     27  C   UNL     1      11.172  16.745  18.798  0.00  0.00    +0.000 C 
ATOM     28  C   UNL     1       9.960  17.519  19.372  0.00  0.00    +0.000 C 
ATOM     29  C   UNL     1      12.332  16.899  19.800  0.00  0.00    +0.000 C 
ATOM     30  C   UNL     1      11.556  17.431  17.470  0.00  0.00    +0.000 C 
ENDBRANCH  24  27
ENDBRANCH  20  21
ENDBRANCH  19  20
ENDBRANCH  18  19
ENDBRANCH  17  18
ENDBRANCH  16  17
ENDBRANCH   7  16
TORSDOF 9
ENDMDL
