MODEL 1
REMARK VINA RESULT:      -8.2      0.000      0.000
REMARK  Name = 
REMARK  8 active torsions:
REMARK  status: ('A' for Active; 'I' for Inactive)
REMARK    1  A    between atoms: C_1  and  C_2
REMARK    2  A    between atoms: C_7  and  N_8
REMARK    3  A    between atoms: C_9  and  C_11
REMARK    4  A    between atoms: C_11  and  O_12
REMARK    5  A    between atoms: O_12  and  C_13
REMARK    6  A    between atoms: C_13  and  C_15
REMARK    7  A    between atoms: C_15  and  O_16
REMARK    8  A    between atoms: O_16  and  C_17
REMARK                            x       y       z     vdW  Elec       q    Type
REMARK                         _______ _______ _______ _____ _____    ______ ____
ROOT
ATOM      1  C   UNL     1       6.660   5.101  19.007  0.00  0.00    +0.000 C 
ENDROOT
BRANCH   1   3
ATOM      2  N   UNL     1       4.919   3.381  19.186  0.00  0.00    +0.000 N 
ATOM      3  C   UNL     1       5.199   4.734  19.267  0.00  0.00    +0.000 C 
ATOM      4  O   UNL     1       4.367   5.571  19.612  0.00  0.00    +0.000 OA
ATOM      5  H   UNL     1       5.593   2.784  18.722  0.00  0.00    +0.000 HD
BRANCH   2  12
ATOM      6  C   UNL     1       2.824   3.231  17.035  0.00  0.00    +0.000 C 
ATOM      7  C   UNL     1       2.522   3.496  18.512  0.00  0.00    +0.000 C 
ATOM      8  C   UNL     1       1.116   2.966  18.845  0.00  0.00    +0.000 C 
ATOM      9  C   UNL     1       0.755   3.196  20.308  0.00  0.00    +0.000 C 
ATOM     10  C   UNL     1       1.796   2.583  21.239  0.00  0.00    +0.000 C 
ATOM     11  C   UNL     1       3.203   3.085  20.923  0.00  0.00    +0.000 C 
ATOM     12  C   UNL     1       3.577   2.862  19.448  0.00  0.00    +0.000 C 
ENDBRANCH   2  12
ENDBRANCH   1   3
BRANCH   1  13
ATOM     13  O   UNL     1       6.907   6.489  18.786  0.00  0.00    +0.000 OA
BRANCH  13  14
ATOM     14  C   UNL     1       7.034   6.855  17.474  0.00  0.00    +0.000 C 
ATOM     15  O   UNL     1       7.417   7.947  17.080  0.00  0.00    +0.000 OA
BRANCH  14  16
ATOM     16  C   UNL     1       6.727   5.677  16.564  0.00  0.00    +0.000 C 
BRANCH  16  17
ATOM     17  O   UNL     1       7.635   5.599  15.478  0.00  0.00    +0.000 OA
BRANCH  17  18
ATOM     18  C   UNL     1       7.182   4.969  14.347  0.00  0.00    +0.000 A 
ATOM     19  C   UNL     1       6.051   4.171  14.547  0.00  0.00    +0.000 A 
ATOM     20  C   UNL     1       5.488   3.447  13.493  0.00  0.00    +0.000 A 
ATOM     21  C   UNL     1       6.053   3.512  12.219  0.00  0.00    +0.000 A 
ATOM     22  C   UNL     1       7.175   4.310  12.004  0.00  0.00    +0.000 A 
ATOM     23  C   UNL     1       7.729   5.033  13.060  0.00  0.00    +0.000 A 
ATOM     24  F   UNL     1       8.807   5.784  12.792  0.00  0.00    +0.000 F 
ENDBRANCH  17  18
ENDBRANCH  16  17
ENDBRANCH  14  16
ENDBRANCH  13  14
ENDBRANCH   1  13
TORSDOF 7
ENDMDL
MODEL 2
REMARK VINA RESULT:      -8.1      3.512      6.988
REMARK  Name = 
REMARK  8 active torsions:
REMARK  status: ('A' for Active; 'I' for Inactive)
REMARK    1  A    between atoms: C_1  and  C_2
REMARK    2  A    between atoms: C_7  and  N_8
REMARK    3  A    between atoms: C_9  and  C_11
REMARK    4  A    between atoms: C_11  and  O_12
REMARK    5  A    between atoms: O_12  and  C_13
REMARK    6  A    between atoms: C_13  and  C_15
REMARK    7  A    between atoms: C_15  and  O_16
REMARK    8  A    between atoms: O_16  and  C_17
REMARK                            x       y       z     vdW  Elec       q    Type
REMARK                         _______ _______ _______ _____ _____    ______ ____
ROOT
ATOM      1  C   UNL     1       1.672   2.652  18.905  0.00  0.00    +0.000 C 
ENDROOT
BRANCH   1   3
ATOM      2  N   UNL     1       3.647   3.778  17.981  0.00  0.00    +0.000 N 
ATOM      3  C   UNL     1       3.039   2.560  18.227  0.00  0.00    +0.000 C 
ATOM      4  O   UNL     1       3.588   1.481  18.006  0.00  0.00    +0.000 OA
ATOM      5  H   UNL     1       3.070   4.611  18.013  0.00  0.00    +0.000 HD
BRANCH   2  12
ATOM      6  C   UNL     1       5.951   5.114  19.376  0.00  0.00    +0.000 C 
ATOM      7  C   UNL     1       5.752   5.108  17.859  0.00  0.00    +0.000 C 
ATOM      8  C   UNL     1       7.124   5.192  17.166  0.00  0.00    +0.000 C 
ATOM      9  C   UNL     1       6.994   5.186  15.648  0.00  0.00    +0.000 C 
ATOM     10  C   UNL     1       6.222   3.964  15.162  0.00  0.00    +0.000 C 
ATOM     11  C   UNL     1       4.858   3.851  15.842  0.00  0.00    +0.000 C 
ATOM     12  C   UNL     1       4.975   3.861  17.375  0.00  0.00    +0.000 C 
ENDBRANCH   2  12
ENDBRANCH   1   3
BRANCH   1  13
ATOM     13  O   UNL     1       1.657   2.306  20.290  0.00  0.00    +0.000 OA
BRANCH  13  14
ATOM     14  C   UNL     1       1.735   3.363  21.153  0.00  0.00    +0.000 C 
ATOM     15  O   UNL     1       2.158   3.309  22.299  0.00  0.00    +0.000 OA
BRANCH  14  16
ATOM     16  C   UNL     1       1.315   4.648  20.457  0.00  0.00    +0.000 C 
BRANCH  16  17
ATOM     17  O   UNL     1       2.408   5.532  20.276  0.00  0.00    +0.000 OA
BRANCH  17  18
ATOM     18  C   UNL     1       2.102   6.807  19.873  0.00  0.00    +0.000 A 
ATOM     19  C   UNL     1       1.437   7.571  20.837  0.00  0.00    +0.000 A 
ATOM     20  C   UNL     1       1.039   8.883  20.563  0.00  0.00    +0.000 A 
ATOM     21  C   UNL     1       1.302   9.448  19.316  0.00  0.00    +0.000 A 
ATOM     22  C   UNL     1       1.971   8.700  18.349  0.00  0.00    +0.000 A 
ATOM     23  C   UNL     1       2.369   7.394  18.630  0.00  0.00    +0.000 A 
ATOM     24  F   UNL     1       3.012   6.724  17.662  0.00  0.00    +0.000 F 
ENDBRANCH  17  18
ENDBRANCH  16  17
ENDBRANCH  14  16
ENDBRANCH  13  14
ENDBRANCH   1  13
TORSDOF 7
ENDMDL
MODEL 3
REMARK VINA RESULT:      -8.0      3.971      7.094
REMARK  Name = 
REMARK  8 active torsions:
REMARK  status: ('A' for Active; 'I' for Inactive)
REMARK    1  A    between atoms: C_1  and  C_2
REMARK    2  A    between atoms: C_7  and  N_8
REMARK    3  A    between atoms: C_9  and  C_11
REMARK    4  A    between atoms: C_11  and  O_12
REMARK    5  A    between atoms: O_12  and  C_13
REMARK    6  A    between atoms: C_13  and  C_15
REMARK    7  A    between atoms: C_15  and  O_16
REMARK    8  A    between atoms: O_16  and  C_17
REMARK                            x       y       z     vdW  Elec       q    Type
REMARK                         _______ _______ _______ _____ _____    ______ ____
ROOT
ATOM      1  C   UNL     1       1.497   2.552  18.314  0.00  0.00    +0.000 C 
ENDROOT
BRANCH   1   3
ATOM      2  N   UNL     1       3.481   3.727  17.473  0.00  0.00    +0.000 N 
ATOM      3  C   UNL     1       2.978   2.523  17.933  0.00  0.00    +0.000 C 
ATOM      4  O   UNL     1       3.679   1.529  18.115  0.00  0.00    +0.000 OA
ATOM      5  H   UNL     1       2.820   4.434  17.175  0.00  0.00    +0.000 HD
BRANCH   2  12
ATOM      6  C   UNL     1       5.510   4.857  19.382  0.00  0.00    +0.000 C 
ATOM      7  C   UNL     1       5.560   5.045  17.864  0.00  0.00    +0.000 C 
ATOM      8  C   UNL     1       7.026   5.206  17.420  0.00  0.00    +0.000 C 
ATOM      9  C   UNL     1       7.144   5.394  15.913  0.00  0.00    +0.000 C 
ATOM     10  C   UNL     1       6.477   4.250  15.157  0.00  0.00    +0.000 C 
ATOM     11  C   UNL     1       5.023   4.062  15.586  0.00  0.00    +0.000 C 
ATOM     12  C   UNL     1       4.889   3.876  17.106  0.00  0.00    +0.000 C 
ENDBRANCH   2  12
ENDBRANCH   1   3
BRANCH   1  13
ATOM     13  O   UNL     1       1.084   3.697  19.058  0.00  0.00    +0.000 OA
BRANCH  13  14
ATOM     14  C   UNL     1       1.365   3.653  20.396  0.00  0.00    +0.000 C 
ATOM     15  O   UNL     1       1.441   2.635  21.068  0.00  0.00    +0.000 OA
BRANCH  14  16
ATOM     16  C   UNL     1       1.673   5.047  20.919  0.00  0.00    +0.000 C 
BRANCH  16  17
ATOM     17  O   UNL     1       2.623   5.717  20.109  0.00  0.00    +0.000 OA
BRANCH  17  18
ATOM     18  C   UNL     1       2.250   6.941  19.614  0.00  0.00    +0.000 A 
ATOM     19  C   UNL     1       2.547   7.129  18.260  0.00  0.00    +0.000 A 
ATOM     20  C   UNL     1       2.248   8.335  17.622  0.00  0.00    +0.000 A 
ATOM     21  C   UNL     1       1.644   9.373  18.332  0.00  0.00    +0.000 A 
ATOM     22  C   UNL     1       1.335   9.195  19.679  0.00  0.00    +0.000 A 
ATOM     23  C   UNL     1       1.633   7.987  20.309  0.00  0.00    +0.000 A 
ATOM     24  F   UNL     1       1.310   7.875  21.606  0.00  0.00    +0.000 F 
ENDBRANCH  17  18
ENDBRANCH  16  17
ENDBRANCH  14  16
ENDBRANCH  13  14
ENDBRANCH   1  13
TORSDOF 7
ENDMDL
MODEL 4
REMARK VINA RESULT:      -7.9      2.324      6.518
REMARK  Name = 
REMARK  8 active torsions:
REMARK  status: ('A' for Active; 'I' for Inactive)
REMARK    1  A    between atoms: C_1  and  C_2
REMARK    2  A    between atoms: C_7  and  N_8
REMARK    3  A    between atoms: C_9  and  C_11
REMARK    4  A    between atoms: C_11  and  O_12
REMARK    5  A    between atoms: O_12  and  C_13
REMARK    6  A    between atoms: C_13  and  C_15
REMARK    7  A    between atoms: C_15  and  O_16
REMARK    8  A    between atoms: O_16  and  C_17
REMARK                            x       y       z     vdW  Elec       q    Type
REMARK                         _______ _______ _______ _____ _____    ______ ____
ROOT
ATOM      1  C   UNL     1       7.500   6.914  17.756  0.00  0.00    +0.000 C 
ENDROOT
BRANCH   1   3
ATOM      2  N   UNL     1       7.422   5.686  15.633  0.00  0.00    +0.000 N 
ATOM      3  C   UNL     1       6.797   6.630  16.429  0.00  0.00    +0.000 C 
ATOM      4  O   UNL     1       5.714   7.136  16.142  0.00  0.00    +0.000 OA
ATOM      5  H   UNL     1       8.387   5.456  15.838  0.00  0.00    +0.000 HD
BRANCH   2  12
ATOM      6  C   UNL     1       5.033   3.869  15.464  0.00  0.00    +0.000 C 
ATOM      7  C   UNL     1       6.173   3.887  14.443  0.00  0.00    +0.000 C 
ATOM      8  C   UNL     1       5.630   3.459  13.067  0.00  0.00    +0.000 C 
ATOM      9  C   UNL     1       6.720   3.460  12.002  0.00  0.00    +0.000 C 
ATOM     10  C   UNL     1       7.404   4.820  11.910  0.00  0.00    +0.000 C 
ATOM     11  C   UNL     1       7.944   5.273  13.265  0.00  0.00    +0.000 C 
ATOM     12  C   UNL     1       6.854   5.272  14.350  0.00  0.00    +0.000 C 
ENDBRANCH   2  12
ENDBRANCH   1   3
BRANCH   1  13
ATOM     13  O   UNL     1       7.994   5.763  18.440  0.00  0.00    +0.000 OA
BRANCH  13  14
ATOM     14  C   UNL     1       7.265   5.378  19.530  0.00  0.00    +0.000 C 
ATOM     15  O   UNL     1       7.699   5.268  20.667  0.00  0.00    +0.000 OA
BRANCH  14  16
ATOM     16  C   UNL     1       5.803   5.201  19.154  0.00  0.00    +0.000 C 
BRANCH  16  17
ATOM     17  O   UNL     1       5.297   3.946  19.577  0.00  0.00    +0.000 OA
BRANCH  17  18
ATOM     18  C   UNL     1       3.947   3.750  19.430  0.00  0.00    +0.000 A 
ATOM     19  C   UNL     1       3.154   4.653  20.145  0.00  0.00    +0.000 A 
ATOM     20  C   UNL     1       1.759   4.564  20.113  0.00  0.00    +0.000 A 
ATOM     21  C   UNL     1       1.139   3.567  19.361  0.00  0.00    +0.000 A 
ATOM     22  C   UNL     1       1.917   2.666  18.638  0.00  0.00    +0.000 A 
ATOM     23  C   UNL     1       3.308   2.763  18.671  0.00  0.00    +0.000 A 
ATOM     24  F   UNL     1       4.004   1.870  17.952  0.00  0.00    +0.000 F 
ENDBRANCH  17  18
ENDBRANCH  16  17
ENDBRANCH  14  16
ENDBRANCH  13  14
ENDBRANCH   1  13
TORSDOF 7
ENDMDL
MODEL 5
REMARK VINA RESULT:      -7.9      2.666      6.725
REMARK  Name = 
REMARK  8 active torsions:
REMARK  status: ('A' for Active; 'I' for Inactive)
REMARK    1  A    between atoms: C_1  and  C_2
REMARK    2  A    between atoms: C_7  and  N_8
REMARK    3  A    between atoms: C_9  and  C_11
REMARK    4  A    between atoms: C_11  and  O_12
REMARK    5  A    between atoms: O_12  and  C_13
REMARK    6  A    between atoms: C_13  and  C_15
REMARK    7  A    between atoms: C_15  and  O_16
REMARK    8  A    between atoms: O_16  and  C_17
REMARK                            x       y       z     vdW  Elec       q    Type
REMARK                         _______ _______ _______ _____ _____    ______ ____
ROOT
ATOM      1  C   UNL     1       7.656   6.934  17.672  0.00  0.00    +0.000 C 
ENDROOT
BRANCH   1   3
ATOM      2  N   UNL     1       7.457   5.645  15.595  0.00  0.00    +0.000 N 
ATOM      3  C   UNL     1       6.911   6.654  16.368  0.00  0.00    +0.000 C 
ATOM      4  O   UNL     1       5.858   7.221  16.082  0.00  0.00    +0.000 OA
ATOM      5  H   UNL     1       8.408   5.358  15.791  0.00  0.00    +0.000 HD
BRANCH   2  12
ATOM      6  C   UNL     1       5.018   3.888  15.527  0.00  0.00    +0.000 C 
ATOM      7  C   UNL     1       6.126   3.862  14.471  0.00  0.00    +0.000 C 
ATOM      8  C   UNL     1       5.529   3.428  13.119  0.00  0.00    +0.000 C 
ATOM      9  C   UNL     1       6.584   3.386  12.021  0.00  0.00    +0.000 C 
ATOM     10  C   UNL     1       7.300   4.726  11.887  0.00  0.00    +0.000 C 
ATOM     11  C   UNL     1       7.893   5.185  13.218  0.00  0.00    +0.000 C 
ATOM     12  C   UNL     1       6.839   5.227  14.336  0.00  0.00    +0.000 C 
ENDBRANCH   2  12
ENDBRANCH   1   3
BRANCH   1  13
ATOM     13  O   UNL     1       6.994   6.492  18.857  0.00  0.00    +0.000 OA
BRANCH  13  14
ATOM     14  C   UNL     1       6.583   5.189  18.841  0.00  0.00    +0.000 C 
ATOM     15  O   UNL     1       7.279   4.232  18.535  0.00  0.00    +0.000 OA
BRANCH  14  16
ATOM     16  C   UNL     1       5.157   5.077  19.356  0.00  0.00    +0.000 C 
BRANCH  16  17
ATOM     17  O   UNL     1       4.796   3.732  19.622  0.00  0.00    +0.000 OA
BRANCH  17  18
ATOM     18  C   UNL     1       3.468   3.416  19.479  0.00  0.00    +0.000 A 
ATOM     19  C   UNL     1       3.181   2.638  18.353  0.00  0.00    +0.000 A 
ATOM     20  C   UNL     1       1.868   2.257  18.060  0.00  0.00    +0.000 A 
ATOM     21  C   UNL     1       0.823   2.651  18.895  0.00  0.00    +0.000 A 
ATOM     22  C   UNL     1       1.097   3.419  20.024  0.00  0.00    +0.000 A 
ATOM     23  C   UNL     1       2.409   3.793  20.312  0.00  0.00    +0.000 A 
ATOM     24  F   UNL     1       2.611   4.531  21.414  0.00  0.00    +0.000 F 
ENDBRANCH  17  18
ENDBRANCH  16  17
ENDBRANCH  14  16
ENDBRANCH  13  14
ENDBRANCH   1  13
TORSDOF 7
ENDMDL
MODEL 6
REMARK VINA RESULT:      -7.8      1.099      1.588
REMARK  Name = 
REMARK  8 active torsions:
REMARK  status: ('A' for Active; 'I' for Inactive)
REMARK    1  A    between atoms: C_1  and  C_2
REMARK    2  A    between atoms: C_7  and  N_8
REMARK    3  A    between atoms: C_9  and  C_11
REMARK    4  A    between atoms: C_11  and  O_12
REMARK    5  A    between atoms: O_12  and  C_13
REMARK    6  A    between atoms: C_13  and  C_15
REMARK    7  A    between atoms: C_15  and  O_16
REMARK    8  A    between atoms: O_16  and  C_17
REMARK                            x       y       z     vdW  Elec       q    Type
REMARK                         _______ _______ _______ _____ _____    ______ ____
ROOT
ATOM      1  C   UNL     1       6.515   5.034  18.907  0.00  0.00    +0.000 C 
ENDROOT
BRANCH   1   3
ATOM      2  N   UNL     1       4.089   4.953  18.548  0.00  0.00    +0.000 N 
ATOM      3  C   UNL     1       5.168   4.368  19.187  0.00  0.00    +0.000 C 
ATOM      4  O   UNL     1       5.074   3.338  19.851  0.00  0.00    +0.000 OA
ATOM      5  H   UNL     1       4.207   5.889  18.179  0.00  0.00    +0.000 HD
BRANCH   2  12
ATOM      6  C   UNL     1       2.113   6.067  20.522  0.00  0.00    +0.000 C 
ATOM      7  C   UNL     1       2.180   4.594  20.111  0.00  0.00    +0.000 C 
ATOM      8  C   UNL     1       0.777   3.970  20.229  0.00  0.00    +0.000 C 
ATOM      9  C   UNL     1       0.776   2.499  19.828  0.00  0.00    +0.000 C 
ATOM     10  C   UNL     1       1.333   2.307  18.421  0.00  0.00    +0.000 C 
ATOM     11  C   UNL     1       2.721   2.927  18.274  0.00  0.00    +0.000 C 
ATOM     12  C   UNL     1       2.737   4.411  18.680  0.00  0.00    +0.000 C 
ENDBRANCH   2  12
ENDBRANCH   1   3
BRANCH   1  13
ATOM     13  O   UNL     1       6.445   6.405  18.516  0.00  0.00    +0.000 OA
BRANCH  13  14
ATOM     14  C   UNL     1       7.082   6.709  17.345  0.00  0.00    +0.000 C 
ATOM     15  O   UNL     1       7.633   7.771  17.096  0.00  0.00    +0.000 OA
BRANCH  14  16
ATOM     16  C   UNL     1       7.102   5.500  16.424  0.00  0.00    +0.000 C 
BRANCH  16  17
ATOM     17  O   UNL     1       7.698   5.799  15.173  0.00  0.00    +0.000 OA
BRANCH  17  18
ATOM     18  C   UNL     1       7.237   5.091  14.092  0.00  0.00    +0.000 A 
ATOM     19  C   UNL     1       6.139   4.270  14.368  0.00  0.00    +0.000 A 
ATOM     20  C   UNL     1       5.574   3.469  13.371  0.00  0.00    +0.000 A 
ATOM     21  C   UNL     1       6.103   3.481  12.080  0.00  0.00    +0.000 A 
ATOM     22  C   UNL     1       7.191   4.301  11.791  0.00  0.00    +0.000 A 
ATOM     23  C   UNL     1       7.748   5.100  12.789  0.00  0.00    +0.000 A 
ATOM     24  F   UNL     1       8.793   5.870  12.449  0.00  0.00    +0.000 F 
ENDBRANCH  17  18
ENDBRANCH  16  17
ENDBRANCH  14  16
ENDBRANCH  13  14
ENDBRANCH   1  13
TORSDOF 7
ENDMDL
MODEL 7
REMARK VINA RESULT:      -7.8      2.630      6.696
REMARK  Name = 
REMARK  8 active torsions:
REMARK  status: ('A' for Active; 'I' for Inactive)
REMARK    1  A    between atoms: C_1  and  C_2
REMARK    2  A    between atoms: C_7  and  N_8
REMARK    3  A    between atoms: C_9  and  C_11
REMARK    4  A    between atoms: C_11  and  O_12
REMARK    5  A    between atoms: O_12  and  C_13
REMARK    6  A    between atoms: C_13  and  C_15
REMARK    7  A    between atoms: C_15  and  O_16
REMARK    8  A    between atoms: O_16  and  C_17
REMARK                            x       y       z     vdW  Elec       q    Type
REMARK                         _______ _______ _______ _____ _____    ______ ____
ROOT
ATOM      1  C   UNL     1       7.852   5.948  18.672  0.00  0.00    +0.000 C 
ENDROOT
BRANCH   1   3
ATOM      2  N   UNL     1       7.479   5.054  16.418  0.00  0.00    +0.000 N 
ATOM      3  C   UNL     1       7.313   6.143  17.256  0.00  0.00    +0.000 C 
ATOM      4  O   UNL     1       6.698   7.155  16.924  0.00  0.00    +0.000 OA
ATOM      5  H   UNL     1       8.147   4.343  16.692  0.00  0.00    +0.000 HD
BRANCH   2  12
ATOM      6  C   UNL     1       4.895   3.722  15.652  0.00  0.00    +0.000 C 
ATOM      7  C   UNL     1       6.116   3.821  14.735  0.00  0.00    +0.000 C 
ATOM      8  C   UNL     1       5.649   3.837  13.268  0.00  0.00    +0.000 C 
ATOM      9  C   UNL     1       6.822   3.939  12.301  0.00  0.00    +0.000 C 
ATOM     10  C   UNL     1       7.687   5.157  12.603  0.00  0.00    +0.000 C 
ATOM     11  C   UNL     1       8.156   5.170  14.057  0.00  0.00    +0.000 C 
ATOM     12  C   UNL     1       6.981   5.064  15.043  0.00  0.00    +0.000 C 
ENDBRANCH   2  12
ENDBRANCH   1   3
BRANCH   1  13
ATOM     13  O   UNL     1       6.860   5.735  19.676  0.00  0.00    +0.000 OA
BRANCH  13  14
ATOM     14  C   UNL     1       5.801   4.961  19.291  0.00  0.00    +0.000 C 
ATOM     15  O   UNL     1       5.861   3.776  19.000  0.00  0.00    +0.000 OA
BRANCH  14  16
ATOM     16  C   UNL     1       4.507   5.756  19.371  0.00  0.00    +0.000 C 
BRANCH  16  17
ATOM     17  O   UNL     1       3.562   5.324  18.407  0.00  0.00    +0.000 OA
BRANCH  17  18
ATOM     18  C   UNL     1       2.572   4.486  18.855  0.00  0.00    +0.000 A 
ATOM     19  C   UNL     1       2.422   3.318  18.100  0.00  0.00    +0.000 A 
ATOM     20  C   UNL     1       1.438   2.379  18.420  0.00  0.00    +0.000 A 
ATOM     21  C   UNL     1       0.588   2.598  19.504  0.00  0.00    +0.000 A 
ATOM     22  C   UNL     1       0.732   3.753  20.269  0.00  0.00    +0.000 A 
ATOM     23  C   UNL     1       1.719   4.684  19.946  0.00  0.00    +0.000 A 
ATOM     24  F   UNL     1       1.810   5.776  20.721  0.00  0.00    +0.000 F 
ENDBRANCH  17  18
ENDBRANCH  16  17
ENDBRANCH  14  16
ENDBRANCH  13  14
ENDBRANCH   1  13
TORSDOF 7
ENDMDL
MODEL 8
REMARK VINA RESULT:      -7.8      1.021      1.294
REMARK  Name = 
REMARK  8 active torsions:
REMARK  status: ('A' for Active; 'I' for Inactive)
REMARK    1  A    between atoms: C_1  and  C_2
REMARK    2  A    between atoms: C_7  and  N_8
REMARK    3  A    between atoms: C_9  and  C_11
REMARK    4  A    between atoms: C_11  and  O_12
REMARK    5  A    between atoms: O_12  and  C_13
REMARK    6  A    between atoms: C_13  and  C_15
REMARK    7  A    between atoms: C_15  and  O_16
REMARK    8  A    between atoms: O_16  and  C_17
REMARK                            x       y       z     vdW  Elec       q    Type
REMARK                         _______ _______ _______ _____ _____    ______ ____
ROOT
ATOM      1  C   UNL     1       5.244   6.206  17.447  0.00  0.00    +0.000 C 
ENDROOT
BRANCH   1   3
ATOM      2  N   UNL     1       4.048   4.182  18.148  0.00  0.00    +0.000 N 
ATOM      3  C   UNL     1       4.236   5.533  18.378  0.00  0.00    +0.000 C 
ATOM      4  O   UNL     1       3.710   6.132  19.314  0.00  0.00    +0.000 OA
ATOM      5  H   UNL     1       4.360   3.803  17.262  0.00  0.00    +0.000 HD
BRANCH   2  12
ATOM      6  C   UNL     1       1.104   3.988  17.568  0.00  0.00    +0.000 C 
ATOM      7  C   UNL     1       1.708   3.950  18.974  0.00  0.00    +0.000 C 
ATOM      8  C   UNL     1       0.797   3.117  19.895  0.00  0.00    +0.000 C 
ATOM      9  C   UNL     1       1.347   3.037  21.314  0.00  0.00    +0.000 C 
ATOM     10  C   UNL     1       2.769   2.489  21.328  0.00  0.00    +0.000 C 
ATOM     11  C   UNL     1       3.693   3.292  20.413  0.00  0.00    +0.000 C 
ATOM     12  C   UNL     1       3.146   3.384  18.979  0.00  0.00    +0.000 C 
ENDBRANCH   2  12
ENDBRANCH   1   3
BRANCH   1  13
ATOM     13  O   UNL     1       6.534   6.436  18.014  0.00  0.00    +0.000 OA
BRANCH  13  14
ATOM     14  C   UNL     1       7.389   5.371  17.965  0.00  0.00    +0.000 C 
ATOM     15  O   UNL     1       8.138   5.025  18.868  0.00  0.00    +0.000 OA
BRANCH  14  16
ATOM     16  C   UNL     1       7.209   4.605  16.664  0.00  0.00    +0.000 C 
BRANCH  16  17
ATOM     17  O   UNL     1       7.536   5.398  15.536  0.00  0.00    +0.000 OA
BRANCH  17  18
ATOM     18  C   UNL     1       7.181   4.893  14.311  0.00  0.00    +0.000 A 
ATOM     19  C   UNL     1       6.045   4.076  14.333  0.00  0.00    +0.000 A 
ATOM     20  C   UNL     1       5.575   3.470  13.165  0.00  0.00    +0.000 A 
ATOM     21  C   UNL     1       6.238   3.674  11.955  0.00  0.00    +0.000 A 
ATOM     22  C   UNL     1       7.365   4.491  11.918  0.00  0.00    +0.000 A 
ATOM     23  C   UNL     1       7.827   5.096  13.086  0.00  0.00    +0.000 A 
ATOM     24  F   UNL     1       8.915   5.874  12.987  0.00  0.00    +0.000 F 
ENDBRANCH  17  18
ENDBRANCH  16  17
ENDBRANCH  14  16
ENDBRANCH  13  14
ENDBRANCH   1  13
TORSDOF 7
ENDMDL
MODEL 9
REMARK VINA RESULT:      -7.7      1.123      1.870
REMARK  Name = 
REMARK  8 active torsions:
REMARK  status: ('A' for Active; 'I' for Inactive)
REMARK    1  A    between atoms: C_1  and  C_2
REMARK    2  A    between atoms: C_7  and  N_8
REMARK    3  A    between atoms: C_9  and  C_11
REMARK    4  A    between atoms: C_11  and  O_12
REMARK    5  A    between atoms: O_12  and  C_13
REMARK    6  A    between atoms: C_13  and  C_15
REMARK    7  A    between atoms: C_15  and  O_16
REMARK    8  A    between atoms: O_16  and  C_17
REMARK                            x       y       z     vdW  Elec       q    Type
REMARK                         _______ _______ _______ _____ _____    ______ ____
ROOT
ATOM      1  C   UNL     1       7.467   4.741  18.109  0.00  0.00    +0.000 C 
ENDROOT
BRANCH   1   3
ATOM      2  N   UNL     1       5.187   3.839  18.204  0.00  0.00    +0.000 N 
ATOM      3  C   UNL     1       6.062   4.785  18.708  0.00  0.00    +0.000 C 
ATOM      4  O   UNL     1       5.768   5.544  19.630  0.00  0.00    +0.000 OA
ATOM      5  H   UNL     1       5.432   3.384  17.333  0.00  0.00    +0.000 HD
BRANCH   2  12
ATOM      6  C   UNL     1       4.455   1.946  20.422  0.00  0.00    +0.000 C 
ATOM      7  C   UNL     1       3.526   2.312  19.262  0.00  0.00    +0.000 C 
ATOM      8  C   UNL     1       2.063   2.208  19.732  0.00  0.00    +0.000 C 
ATOM      9  C   UNL     1       1.084   2.566  18.621  0.00  0.00    +0.000 C 
ATOM     10  C   UNL     1       1.369   3.953  18.054  0.00  0.00    +0.000 C 
ATOM     11  C   UNL     1       2.818   4.085  17.589  0.00  0.00    +0.000 C 
ATOM     12  C   UNL     1       3.817   3.723  18.701  0.00  0.00    +0.000 C 
ENDBRANCH   2  12
ENDBRANCH   1   3
BRANCH   1  13
ATOM     13  O   UNL     1       7.590   5.308  16.806  0.00  0.00    +0.000 OA
BRANCH  13  14
ATOM     14  C   UNL     1       6.802   6.400  16.570  0.00  0.00    +0.000 C 
ATOM     15  O   UNL     1       7.000   7.522  17.014  0.00  0.00    +0.000 OA
BRANCH  14  16
ATOM     16  C   UNL     1       5.692   6.053  15.592  0.00  0.00    +0.000 C 
BRANCH  16  17
ATOM     17  O   UNL     1       5.677   4.670  15.281  0.00  0.00    +0.000 OA
BRANCH  17  18
ATOM     18  C   UNL     1       5.994   4.330  13.990  0.00  0.00    +0.000 A 
ATOM     19  C   UNL     1       5.023   3.557  13.344  0.00  0.00    +0.000 A 
ATOM     20  C   UNL     1       5.215   3.114  12.033  0.00  0.00    +0.000 A 
ATOM     21  C   UNL     1       6.386   3.440  11.349  0.00  0.00    +0.000 A 
ATOM     22  C   UNL     1       7.357   4.216  11.978  0.00  0.00    +0.000 A 
ATOM     23  C   UNL     1       7.157   4.658  13.285  0.00  0.00    +0.000 A 
ATOM     24  F   UNL     1       8.126   5.404  13.837  0.00  0.00    +0.000 F 
ENDBRANCH  17  18
ENDBRANCH  16  17
ENDBRANCH  14  16
ENDBRANCH  13  14
ENDBRANCH   1  13
TORSDOF 7
ENDMDL
