MODEL 1
REMARK VINA RESULT:      -7.2      0.000      0.000
REMARK  Name = 
REMARK  6 active torsions:
REMARK  status: ('A' for Active; 'I' for Inactive)
REMARK    1  A    between atoms: C_1  and  C_2
REMARK    2  A    between atoms: C_5  and  C_6
REMARK    3  A    between atoms: C_6  and  C_7
REMARK    4  A    between atoms: C_7  and  N_8
REMARK    5  A    between atoms: C_7  and  C_9
REMARK    6  A    between atoms: C_16  and  C_17
REMARK                            x       y       z     vdW  Elec       q    Type
REMARK                         _______ _______ _______ _____ _____    ______ ____
ROOT
ATOM      1  C   UNL     1       3.992   3.264  17.618  0.00  0.00    +0.000 C 
ENDROOT
BRANCH   1   2
ATOM      2  C   UNL     1       5.141   3.841  18.497  0.00  0.00    +0.000 C 
ATOM      3  O   UNL     1       5.328   3.400  19.635  0.00  0.00    +0.000 OA
ATOM      4  N   UNL     1       6.022   4.752  17.953  0.00  0.00    +0.000 N 
ATOM      5  C   UNL     1       7.258   5.088  18.640  0.00  0.00    +0.000 C 
ATOM      6  C   UNL     1       7.353   6.594  18.524  0.00  0.00    +0.000 C 
ATOM      7  F   UNL     1       8.640   7.006  18.560  0.00  0.00    +0.000 F 
ATOM      8  C   UNL     1       6.749   6.884  17.159  0.00  0.00    +0.000 C 
ATOM      9  C   UNL     1       5.725   5.753  16.928  0.00  0.00    +0.000 C 
BRANCH   9  10
ATOM     10  C   UNL     1       5.824   5.229  15.530  0.00  0.00    +0.000 C 
ATOM     11  N   UNL     1       5.889   4.806  14.452  0.00  0.00    +0.000 NA
ENDBRANCH   9  10
ENDBRANCH   1   2
BRANCH   1  12
ATOM     12  N   UNL     1       3.885   1.804  17.859  0.00  0.00    +0.000 NA
ATOM     13  H   UNL     1       3.089   1.455  17.319  0.00  0.00    +0.000 HD
ATOM     14  H   UNL     1       3.587   1.667  18.829  0.00  0.00    +0.000 HD
ENDBRANCH   1  12
BRANCH   1  15
ATOM     15  C   UNL     1       2.613   3.952  17.685  0.00  0.00    +0.000 C 
BRANCH  15  20
ATOM     16  C   UNL     1       1.330   8.383  21.280  0.00  0.00    +0.000 C 
ATOM     17  C   UNL     1       1.679   7.267  20.343  0.00  0.00    +0.000 A 
ATOM     18  C   UNL     1       2.180   7.529  19.065  0.00  0.00    +0.000 A 
ATOM     19  C   UNL     1       2.497   6.485  18.186  0.00  0.00    +0.000 A 
ATOM     20  C   UNL     1       2.327   5.152  18.564  0.00  0.00    +0.000 A 
ATOM     21  C   UNL     1       1.849   4.898  19.865  0.00  0.00    +0.000 A 
ATOM     22  C   UNL     1       1.529   5.939  20.742  0.00  0.00    +0.000 A 
ENDBRANCH  15  20
ENDBRANCH   1  15
TORSDOF 5
ENDMDL
MODEL 2
REMARK VINA RESULT:      -7.1      0.091      1.077
REMARK  Name = 
REMARK  6 active torsions:
REMARK  status: ('A' for Active; 'I' for Inactive)
REMARK    1  A    between atoms: C_1  and  C_2
REMARK    2  A    between atoms: C_5  and  C_6
REMARK    3  A    between atoms: C_6  and  C_7
REMARK    4  A    between atoms: C_7  and  N_8
REMARK    5  A    between atoms: C_7  and  C_9
REMARK    6  A    between atoms: C_16  and  C_17
REMARK                            x       y       z     vdW  Elec       q    Type
REMARK                         _______ _______ _______ _____ _____    ______ ____
ROOT
ATOM      1  C   UNL     1       4.030   3.224  17.589  0.00  0.00    +0.000 C 
ENDROOT
BRANCH   1   2
ATOM      2  C   UNL     1       5.158   3.809  18.488  0.00  0.00    +0.000 C 
ATOM      3  O   UNL     1       5.325   3.374  19.631  0.00  0.00    +0.000 OA
ATOM      4  N   UNL     1       6.046   4.722  17.958  0.00  0.00    +0.000 N 
ATOM      5  C   UNL     1       7.267   5.066  18.668  0.00  0.00    +0.000 C 
ATOM      6  C   UNL     1       7.357   6.572  18.547  0.00  0.00    +0.000 C 
ATOM      7  F   UNL     1       8.642   6.990  18.607  0.00  0.00    +0.000 F 
ATOM      8  C   UNL     1       6.780   6.853  17.168  0.00  0.00    +0.000 C 
ATOM      9  C   UNL     1       5.766   5.717  16.922  0.00  0.00    +0.000 C 
BRANCH   9  10
ATOM     10  C   UNL     1       5.895   5.187  15.529  0.00  0.00    +0.000 C 
ATOM     11  N   UNL     1       5.999   4.796  14.442  0.00  0.00    +0.000 NA
ENDBRANCH   9  10
ENDBRANCH   1   2
BRANCH   1  12
ATOM     12  N   UNL     1       3.934   1.761  17.823  0.00  0.00    +0.000 NA
ATOM     13  H   UNL     1       2.966   1.548  18.076  0.00  0.00    +0.000 HD
ATOM     14  H   UNL     1       4.452   1.546  18.678  0.00  0.00    +0.000 HD
ENDBRANCH   1  12
BRANCH   1  15
ATOM     15  C   UNL     1       2.643   3.896  17.636  0.00  0.00    +0.000 C 
BRANCH  15  20
ATOM     16  C   UNL     1       1.456   8.358  21.226  0.00  0.00    +0.000 C 
ATOM     17  C   UNL     1       1.739   7.197  20.323  0.00  0.00    +0.000 A 
ATOM     18  C   UNL     1       1.504   5.884  20.741  0.00  0.00    +0.000 A 
ATOM     19  C   UNL     1       1.778   4.799  19.899  0.00  0.00    +0.000 A 
ATOM     20  C   UNL     1       2.288   4.997  18.614  0.00  0.00    +0.000 A 
ATOM     21  C   UNL     1       2.494   6.326  18.192  0.00  0.00    +0.000 A 
ATOM     22  C   UNL     1       2.224   7.410  19.032  0.00  0.00    +0.000 A 
ENDBRANCH  15  20
ENDBRANCH   1  15
TORSDOF 5
ENDMDL
MODEL 3
REMARK VINA RESULT:      -7.0      2.871      6.015
REMARK  Name = 
REMARK  6 active torsions:
REMARK  status: ('A' for Active; 'I' for Inactive)
REMARK    1  A    between atoms: C_1  and  C_2
REMARK    2  A    between atoms: C_5  and  C_6
REMARK    3  A    between atoms: C_6  and  C_7
REMARK    4  A    between atoms: C_7  and  N_8
REMARK    5  A    between atoms: C_7  and  C_9
REMARK    6  A    between atoms: C_16  and  C_17
REMARK                            x       y       z     vdW  Elec       q    Type
REMARK                         _______ _______ _______ _____ _____    ______ ____
ROOT
ATOM      1  C   UNL     1       5.677   5.430  19.184  0.00  0.00    +0.000 C 
ENDROOT
BRANCH   1   2
ATOM      2  C   UNL     1       4.867   4.100  19.210  0.00  0.00    +0.000 C 
ATOM      3  O   UNL     1       5.448   3.027  19.396  0.00  0.00    +0.000 OA
ATOM      4  N   UNL     1       3.489   4.141  19.150  0.00  0.00    +0.000 N 
ATOM      5  C   UNL     1       2.699   2.961  19.459  0.00  0.00    +0.000 C 
ATOM      6  C   UNL     1       1.642   2.926  18.377  0.00  0.00    +0.000 C 
ATOM      7  F   UNL     1       0.523   2.301  18.808  0.00  0.00    +0.000 F 
ATOM      8  C   UNL     1       1.353   4.396  18.114  0.00  0.00    +0.000 C 
ATOM      9  C   UNL     1       2.672   5.125  18.440  0.00  0.00    +0.000 C 
BRANCH   9  10
ATOM     10  C   UNL     1       2.407   6.369  19.229  0.00  0.00    +0.000 C 
ATOM     11  N   UNL     1       2.192   7.341  19.824  0.00  0.00    +0.000 NA
ENDBRANCH   9  10
ENDBRANCH   1   2
BRANCH   1  12
ATOM     12  N   UNL     1       7.006   5.199  19.803  0.00  0.00    +0.000 NA
ATOM     13  H   UNL     1       7.122   5.882  20.556  0.00  0.00    +0.000 HD
ATOM     14  H   UNL     1       7.720   5.474  19.125  0.00  0.00    +0.000 HD
ENDBRANCH   1  12
BRANCH   1  15
ATOM     15  C   UNL     1       5.801   6.176  17.839  0.00  0.00    +0.000 C 
BRANCH  15  20
ATOM     16  C   UNL     1       6.461   3.582  12.640  0.00  0.00    +0.000 C 
ATOM     17  C   UNL     1       6.265   4.230  13.977  0.00  0.00    +0.000 A 
ATOM     18  C   UNL     1       5.000   4.297  14.567  0.00  0.00    +0.000 A 
ATOM     19  C   UNL     1       4.816   4.911  15.812  0.00  0.00    +0.000 A 
ATOM     20  C   UNL     1       5.894   5.469  16.504  0.00  0.00    +0.000 A 
ATOM     21  C   UNL     1       7.170   5.369  15.914  0.00  0.00    +0.000 A 
ATOM     22  C   UNL     1       7.354   4.759  14.670  0.00  0.00    +0.000 A 
ENDBRANCH  15  20
ENDBRANCH   1  15
TORSDOF 5
ENDMDL
MODEL 4
REMARK VINA RESULT:      -6.9      2.866      5.965
REMARK  Name = 
REMARK  6 active torsions:
REMARK  status: ('A' for Active; 'I' for Inactive)
REMARK    1  A    between atoms: C_1  and  C_2
REMARK    2  A    between atoms: C_5  and  C_6
REMARK    3  A    between atoms: C_6  and  C_7
REMARK    4  A    between atoms: C_7  and  N_8
REMARK    5  A    between atoms: C_7  and  C_9
REMARK    6  A    between atoms: C_16  and  C_17
REMARK                            x       y       z     vdW  Elec       q    Type
REMARK                         _______ _______ _______ _____ _____    ______ ____
ROOT
ATOM      1  C   UNL     1       5.672   5.456  19.197  0.00  0.00    +0.000 C 
ENDROOT
BRANCH   1   2
ATOM      2  C   UNL     1       4.872   4.119  19.198  0.00  0.00    +0.000 C 
ATOM      3  O   UNL     1       5.458   3.049  19.381  0.00  0.00    +0.000 OA
ATOM      4  N   UNL     1       3.495   4.151  19.121  0.00  0.00    +0.000 N 
ATOM      5  C   UNL     1       2.709   2.962  19.406  0.00  0.00    +0.000 C 
ATOM      6  C   UNL     1       1.668   2.930  18.309  0.00  0.00    +0.000 C 
ATOM      7  F   UNL     1       0.547   2.293  18.718  0.00  0.00    +0.000 F 
ATOM      8  C   UNL     1       1.370   4.401  18.059  0.00  0.00    +0.000 C 
ATOM      9  C   UNL     1       2.680   5.137  18.410  0.00  0.00    +0.000 C 
BRANCH   9  10
ATOM     10  C   UNL     1       2.394   6.369  19.209  0.00  0.00    +0.000 C 
ATOM     11  N   UNL     1       2.180   7.315  19.846  0.00  0.00    +0.000 NA
ENDBRANCH   9  10
ENDBRANCH   1   2
BRANCH   1  12
ATOM     12  N   UNL     1       7.007   5.221  19.803  0.00  0.00    +0.000 NA
ATOM     13  H   UNL     1       7.306   4.278  19.541  0.00  0.00    +0.000 HD
ATOM     14  H   UNL     1       6.884   5.154  20.817  0.00  0.00    +0.000 HD
ENDBRANCH   1  12
BRANCH   1  15
ATOM     15  C   UNL     1       5.782   6.234  17.870  0.00  0.00    +0.000 C 
BRANCH  15  20
ATOM     16  C   UNL     1       6.327   3.525  12.716  0.00  0.00    +0.000 C 
ATOM     17  C   UNL     1       6.216   4.233  14.032  0.00  0.00    +0.000 A 
ATOM     18  C   UNL     1       7.354   4.679  14.709  0.00  0.00    +0.000 A 
ATOM     19  C   UNL     1       7.250   5.332  15.944  0.00  0.00    +0.000 A 
ATOM     20  C   UNL     1       6.004   5.562  16.531  0.00  0.00    +0.000 A 
ATOM     21  C   UNL     1       4.861   5.135  15.826  0.00  0.00    +0.000 A 
ATOM     22  C   UNL     1       4.964   4.480  14.595  0.00  0.00    +0.000 A 
ENDBRANCH  15  20
ENDBRANCH   1  15
TORSDOF 5
ENDMDL
MODEL 5
REMARK VINA RESULT:      -6.6      3.052      6.324
REMARK  Name = 
REMARK  6 active torsions:
REMARK  status: ('A' for Active; 'I' for Inactive)
REMARK    1  A    between atoms: C_1  and  C_2
REMARK    2  A    between atoms: C_5  and  C_6
REMARK    3  A    between atoms: C_6  and  C_7
REMARK    4  A    between atoms: C_7  and  N_8
REMARK    5  A    between atoms: C_7  and  C_9
REMARK    6  A    between atoms: C_16  and  C_17
REMARK                            x       y       z     vdW  Elec       q    Type
REMARK                         _______ _______ _______ _____ _____    ______ ____
ROOT
ATOM      1  C   UNL     1       5.047   4.057  18.475  0.00  0.00    +0.000 C 
ENDROOT
BRANCH   1   2
ATOM      2  C   UNL     1       4.439   3.137  19.576  0.00  0.00    +0.000 C 
ATOM      3  O   UNL     1       5.062   2.145  19.964  0.00  0.00    +0.000 OA
ATOM      4  N   UNL     1       3.266   3.508  20.200  0.00  0.00    +0.000 N 
ATOM      5  C   UNL     1       2.828   2.837  21.413  0.00  0.00    +0.000 C 
ATOM      6  C   UNL     1       1.348   2.608  21.200  0.00  0.00    +0.000 C 
ATOM      7  F   UNL     1       0.688   2.554  22.379  0.00  0.00    +0.000 F 
ATOM      8  C   UNL     1       0.909   3.832  20.410  0.00  0.00    +0.000 C 
ATOM      9  C   UNL     1       2.157   4.256  19.608  0.00  0.00    +0.000 C 
BRANCH   9  10
ATOM     10  C   UNL     1       2.337   5.741  19.659  0.00  0.00    +0.000 C 
ATOM     11  N   UNL     1       2.458   6.894  19.690  0.00  0.00    +0.000 NA
ENDBRANCH   9  10
ENDBRANCH   1   2
BRANCH   1  12
ATOM     12  N   UNL     1       6.515   4.145  18.674  0.00  0.00    +0.000 NA
ATOM     13  H   UNL     1       6.680   4.575  19.587  0.00  0.00    +0.000 HD
ATOM     14  H   UNL     1       6.879   4.840  18.018  0.00  0.00    +0.000 HD
ENDBRANCH   1  12
BRANCH   1  15
ATOM     15  C   UNL     1       4.692   3.757  17.004  0.00  0.00    +0.000 C 
BRANCH  15  20
ATOM     16  C   UNL     1       7.888   5.239  12.336  0.00  0.00    +0.000 C 
ATOM     17  C   UNL     1       7.074   4.889  13.545  0.00  0.00    +0.000 A 
ATOM     18  C   UNL     1       7.255   5.562  14.756  0.00  0.00    +0.000 A 
ATOM     19  C   UNL     1       6.500   5.227  15.888  0.00  0.00    +0.000 A 
ATOM     20  C   UNL     1       5.541   4.214  15.836  0.00  0.00    +0.000 A 
ATOM     21  C   UNL     1       5.346   3.562  14.603  0.00  0.00    +0.000 A 
ATOM     22  C   UNL     1       6.100   3.893  13.473  0.00  0.00    +0.000 A 
ENDBRANCH  15  20
ENDBRANCH   1  15
TORSDOF 5
ENDMDL
MODEL 6
REMARK VINA RESULT:      -6.6      3.220      6.096
REMARK  Name = 
REMARK  6 active torsions:
REMARK  status: ('A' for Active; 'I' for Inactive)
REMARK    1  A    between atoms: C_1  and  C_2
REMARK    2  A    between atoms: C_5  and  C_6
REMARK    3  A    between atoms: C_6  and  C_7
REMARK    4  A    between atoms: C_7  and  N_8
REMARK    5  A    between atoms: C_7  and  C_9
REMARK    6  A    between atoms: C_16  and  C_17
REMARK                            x       y       z     vdW  Elec       q    Type
REMARK                         _______ _______ _______ _____ _____    ______ ____
ROOT
ATOM      1  C   UNL     1       3.149   6.625  18.188  0.00  0.00    +0.000 C 
ENDROOT
BRANCH   1   2
ATOM      2  C   UNL     1       2.480   6.229  19.538  0.00  0.00    +0.000 C 
ATOM      3  O   UNL     1       2.125   7.105  20.331  0.00  0.00    +0.000 OA
ATOM      4  N   UNL     1       2.174   4.906  19.783  0.00  0.00    +0.000 N 
ATOM      5  C   UNL     1       1.302   4.540  20.887  0.00  0.00    +0.000 C 
ATOM      6  C   UNL     1       1.986   3.352  21.526  0.00  0.00    +0.000 C 
ATOM      7  F   UNL     1       1.092   2.546  22.142  0.00  0.00    +0.000 F 
ATOM      8  C   UNL     1       2.616   2.628  20.346  0.00  0.00    +0.000 C 
ATOM      9  C   UNL     1       2.912   3.734  19.312  0.00  0.00    +0.000 C 
BRANCH   9  10
ATOM     10  C   UNL     1       2.521   3.290  17.938  0.00  0.00    +0.000 C 
ATOM     11  N   UNL     1       2.210   2.927  16.881  0.00  0.00    +0.000 NA
ENDBRANCH   9  10
ENDBRANCH   1   2
BRANCH   1  12
ATOM     12  N   UNL     1       2.895   8.064  17.927  0.00  0.00    +0.000 NA
ATOM     13  H   UNL     1       2.751   8.177  16.920  0.00  0.00    +0.000 HD
ATOM     14  H   UNL     1       3.767   8.571  18.097  0.00  0.00    +0.000 HD
ENDBRANCH   1  12
BRANCH   1  15
ATOM     15  C   UNL     1       4.634   6.264  17.983  0.00  0.00    +0.000 C 
BRANCH  15  20
ATOM     16  C   UNL     1       6.480   3.708  13.057  0.00  0.00    +0.000 C 
ATOM     17  C   UNL     1       6.025   4.343  14.336  0.00  0.00    +0.000 A 
ATOM     18  C   UNL     1       6.057   3.637  15.542  0.00  0.00    +0.000 A 
ATOM     19  C   UNL     1       5.623   4.228  16.736  0.00  0.00    +0.000 A 
ATOM     20  C   UNL     1       5.150   5.541  16.756  0.00  0.00    +0.000 A 
ATOM     21  C   UNL     1       5.149   6.254  15.539  0.00  0.00    +0.000 A 
ATOM     22  C   UNL     1       5.579   5.665  14.347  0.00  0.00    +0.000 A 
ENDBRANCH  15  20
ENDBRANCH   1  15
TORSDOF 5
ENDMDL
MODEL 7
REMARK VINA RESULT:      -6.5      3.047      6.322
REMARK  Name = 
REMARK  6 active torsions:
REMARK  status: ('A' for Active; 'I' for Inactive)
REMARK    1  A    between atoms: C_1  and  C_2
REMARK    2  A    between atoms: C_5  and  C_6
REMARK    3  A    between atoms: C_6  and  C_7
REMARK    4  A    between atoms: C_7  and  N_8
REMARK    5  A    between atoms: C_7  and  C_9
REMARK    6  A    between atoms: C_16  and  C_17
REMARK                            x       y       z     vdW  Elec       q    Type
REMARK                         _______ _______ _______ _____ _____    ______ ____
ROOT
ATOM      1  C   UNL     1       5.013   3.998  18.456  0.00  0.00    +0.000 C 
ENDROOT
BRANCH   1   2
ATOM      2  C   UNL     1       4.413   3.092  19.572  0.00  0.00    +0.000 C 
ATOM      3  O   UNL     1       5.038   2.103  19.966  0.00  0.00    +0.000 OA
ATOM      4  N   UNL     1       3.246   3.472  20.202  0.00  0.00    +0.000 N 
ATOM      5  C   UNL     1       2.818   2.815  21.426  0.00  0.00    +0.000 C 
ATOM      6  C   UNL     1       1.336   2.586  21.228  0.00  0.00    +0.000 C 
ATOM      7  F   UNL     1       0.686   2.547  22.413  0.00  0.00    +0.000 F 
ATOM      8  C   UNL     1       0.892   3.803  20.429  0.00  0.00    +0.000 C 
ATOM      9  C   UNL     1       2.134   4.216  19.612  0.00  0.00    +0.000 C 
BRANCH   9  10
ATOM     10  C   UNL     1       2.317   5.700  19.645  0.00  0.00    +0.000 C 
ATOM     11  N   UNL     1       2.479   6.848  19.679  0.00  0.00    +0.000 NA
ENDBRANCH   9  10
ENDBRANCH   1   2
BRANCH   1  12
ATOM     12  N   UNL     1       6.485   4.071  18.631  0.00  0.00    +0.000 NA
ATOM     13  H   UNL     1       6.672   4.606  19.482  0.00  0.00    +0.000 HD
ATOM     14  H   UNL     1       6.860   4.670  17.891  0.00  0.00    +0.000 HD
ENDBRANCH   1  12
BRANCH   1  15
ATOM     15  C   UNL     1       4.631   3.694  16.993  0.00  0.00    +0.000 C 
BRANCH  15  20
ATOM     16  C   UNL     1       8.069   5.444  12.597  0.00  0.00    +0.000 C 
ATOM     17  C   UNL     1       7.184   4.967  13.709  0.00  0.00    +0.000 A 
ATOM     18  C   UNL     1       6.262   3.938  13.505  0.00  0.00    +0.000 A 
ATOM     19  C   UNL     1       5.429   3.499  14.542  0.00  0.00    +0.000 A 
ATOM     20  C   UNL     1       5.500   4.074  15.812  0.00  0.00    +0.000 A 
ATOM     21  C   UNL     1       6.454   5.092  16.015  0.00  0.00    +0.000 A 
ATOM     22  C   UNL     1       7.284   5.533  14.981  0.00  0.00    +0.000 A 
ENDBRANCH  15  20
ENDBRANCH   1  15
TORSDOF 5
ENDMDL
MODEL 8
REMARK VINA RESULT:      -6.4      3.235      6.031
REMARK  Name = 
REMARK  6 active torsions:
REMARK  status: ('A' for Active; 'I' for Inactive)
REMARK    1  A    between atoms: C_1  and  C_2
REMARK    2  A    between atoms: C_5  and  C_6
REMARK    3  A    between atoms: C_6  and  C_7
REMARK    4  A    between atoms: C_7  and  N_8
REMARK    5  A    between atoms: C_7  and  C_9
REMARK    6  A    between atoms: C_16  and  C_17
REMARK                            x       y       z     vdW  Elec       q    Type
REMARK                         _______ _______ _______ _____ _____    ______ ____
ROOT
ATOM      1  C   UNL     1       3.128   6.618  18.185  0.00  0.00    +0.000 C 
ENDROOT
BRANCH   1   2
ATOM      2  C   UNL     1       2.482   6.221  19.546  0.00  0.00    +0.000 C 
ATOM      3  O   UNL     1       2.146   7.097  20.348  0.00  0.00    +0.000 OA
ATOM      4  N   UNL     1       2.173   4.899  19.792  0.00  0.00    +0.000 N 
ATOM      5  C   UNL     1       1.320   4.534  20.910  0.00  0.00    +0.000 C 
ATOM      6  C   UNL     1       2.010   3.341  21.533  0.00  0.00    +0.000 C 
ATOM      7  F   UNL     1       1.122   2.538  22.163  0.00  0.00    +0.000 F 
ATOM      8  C   UNL     1       2.614   2.617  20.339  0.00  0.00    +0.000 C 
ATOM      9  C   UNL     1       2.896   3.725  19.304  0.00  0.00    +0.000 C 
BRANCH   9  10
ATOM     10  C   UNL     1       2.478   3.287  17.935  0.00  0.00    +0.000 C 
ATOM     11  N   UNL     1       2.147   2.930  16.883  0.00  0.00    +0.000 NA
ENDBRANCH   9  10
ENDBRANCH   1   2
BRANCH   1  12
ATOM     12  N   UNL     1       2.911   8.068  17.951  0.00  0.00    +0.000 NA
ATOM     13  H   UNL     1       3.804   8.475  17.665  0.00  0.00    +0.000 HD
ATOM     14  H   UNL     1       2.732   8.508  18.856  0.00  0.00    +0.000 HD
ENDBRANCH   1  12
BRANCH   1  15
ATOM     15  C   UNL     1       4.597   6.218  17.936  0.00  0.00    +0.000 C 
BRANCH  15  20
ATOM     16  C   UNL     1       6.631   3.690  13.071  0.00  0.00    +0.000 C 
ATOM     17  C   UNL     1       6.093   4.358  14.299  0.00  0.00    +0.000 A 
ATOM     18  C   UNL     1       5.625   5.675  14.258  0.00  0.00    +0.000 A 
ATOM     19  C   UNL     1       5.131   6.302  15.409  0.00  0.00    +0.000 A 
ATOM     20  C   UNL     1       5.086   5.627  16.631  0.00  0.00    +0.000 A 
ATOM     21  C   UNL     1       5.532   4.290  16.655  0.00  0.00    +0.000 A 
ATOM     22  C   UNL     1       6.028   3.664  15.508  0.00  0.00    +0.000 A 
ENDBRANCH  15  20
ENDBRANCH   1  15
TORSDOF 5
ENDMDL
MODEL 9
REMARK VINA RESULT:      -6.3      2.811      4.223
REMARK  Name = 
REMARK  6 active torsions:
REMARK  status: ('A' for Active; 'I' for Inactive)
REMARK    1  A    between atoms: C_1  and  C_2
REMARK    2  A    between atoms: C_5  and  C_6
REMARK    3  A    between atoms: C_6  and  C_7
REMARK    4  A    between atoms: C_7  and  N_8
REMARK    5  A    between atoms: C_7  and  C_9
REMARK    6  A    between atoms: C_16  and  C_17
REMARK                            x       y       z     vdW  Elec       q    Type
REMARK                         _______ _______ _______ _____ _____    ______ ____
ROOT
ATOM      1  C   UNL     1       3.369   6.777  18.070  0.00  0.00    +0.000 C 
ENDROOT
BRANCH   1   2
ATOM      2  C   UNL     1       2.725   5.366  17.922  0.00  0.00    +0.000 C 
ATOM      3  O   UNL     1       1.604   5.249  17.419  0.00  0.00    +0.000 OA
ATOM      4  N   UNL     1       3.463   4.245  18.239  0.00  0.00    +0.000 N 
ATOM      5  C   UNL     1       3.006   2.922  17.846  0.00  0.00    +0.000 C 
ATOM      6  C   UNL     1       3.238   2.067  19.072  0.00  0.00    +0.000 C 
ATOM      7  F   UNL     1       3.436   0.773  18.735  0.00  0.00    +0.000 F 
ATOM      8  C   UNL     1       4.507   2.649  19.676  0.00  0.00    +0.000 C 
ATOM      9  C   UNL     1       4.495   4.137  19.270  0.00  0.00    +0.000 C 
BRANCH   9  10
ATOM     10  C   UNL     1       5.851   4.571  18.812  0.00  0.00    +0.000 C 
ATOM     11  N   UNL     1       6.896   4.927  18.456  0.00  0.00    +0.000 NA
ENDBRANCH   9  10
ENDBRANCH   1   2
BRANCH   1  12
ATOM     12  N   UNL     1       4.512   6.887  17.129  0.00  0.00    +0.000 NA
ATOM     13  H   UNL     1       5.024   6.002  17.155  0.00  0.00    +0.000 HD
ATOM     14  H   UNL     1       5.179   7.555  17.523  0.00  0.00    +0.000 HD
ENDBRANCH   1  12
BRANCH   1  15
ATOM     15  C   UNL     1       2.444   8.008  17.985  0.00  0.00    +0.000 C 
BRANCH  15  20
ATOM     16  C   UNL     1      -0.486   9.805  22.717  0.00  0.00    +0.000 C 
ATOM     17  C   UNL     1       0.264   9.375  21.493  0.00  0.00    +0.000 A 
ATOM     18  C   UNL     1       0.182  10.104  20.303  0.00  0.00    +0.000 A 
ATOM     19  C   UNL     1       0.876   9.696  19.157  0.00  0.00    +0.000 A 
ATOM     20  C   UNL     1       1.675   8.551  19.172  0.00  0.00    +0.000 A 
ATOM     21  C   UNL     1       1.774   7.839  20.384  0.00  0.00    +0.000 A 
ATOM     22  C   UNL     1       1.080   8.244  21.528  0.00  0.00    +0.000 A 
ENDBRANCH  15  20
ENDBRANCH   1  15
TORSDOF 5
ENDMDL
