MODEL 1
REMARK VINA RESULT:      -7.8      0.000      0.000
REMARK  Name = 
REMARK  6 active torsions:
REMARK  status: ('A' for Active; 'I' for Inactive)
REMARK    1  A    between atoms: C_1  and  C_2
REMARK    2  A    between atoms: C_2  and  O_3
REMARK    3  A    between atoms: O_3  and  C_4
REMARK    4  A    between atoms: C_4  and  C_6
REMARK    5  A    between atoms: C_9  and  C_10
REMARK    6  A    between atoms: C_17  and  C_18
REMARK                            x       y       z     vdW  Elec       q    Type
REMARK                         _______ _______ _______ _____ _____    ______ ____
ROOT
ATOM      1  C   UNL     1       6.358   4.452  15.690  0.00  0.00    +0.000 A 
ATOM      2  C   UNL     1       5.019   4.395  15.656  0.00  0.00    +0.000 A 
ATOM      3  N   UNL     1       4.199   4.214  16.738  0.00  0.00    +0.000 NA
ATOM      4  C   UNL     1       4.760   4.063  17.898  0.00  0.00    +0.000 A 
ATOM      5  N   UNL     1       6.125   4.101  18.048  0.00  0.00    +0.000 N 
ATOM      6  C   UNL     1       6.993   4.320  17.014  0.00  0.00    +0.000 A 
ATOM      7  O   UNL     1       8.198   4.411  17.211  0.00  0.00    +0.000 OA
ATOM      8  H   UNL     1       6.540   4.008  18.967  0.00  0.00    +0.000 HD
ENDROOT
BRANCH   4   9
ATOM      9  C   UNL     1       3.947   3.841  19.128  0.00  0.00    +0.000 A 
ATOM     10  C   UNL     1       4.127   2.652  19.855  0.00  0.00    +0.000 A 
ATOM     11  C   UNL     1       3.377   2.396  21.014  0.00  0.00    +0.000 A 
ATOM     12  C   UNL     1       2.431   3.317  21.463  0.00  0.00    +0.000 A 
ATOM     13  C   UNL     1       2.257   4.487  20.740  0.00  0.00    +0.000 A 
ATOM     14  C   UNL     1       3.006   4.747  19.602  0.00  0.00    +0.000 A 
ATOM     15  O   UNL     1       2.716   5.965  19.034  0.00  0.00    +0.000 OA
ATOM     16  C   UNL     1       1.617   6.510  19.811  0.00  0.00    +0.000 C 
ATOM     17  C   UNL     1       1.976   7.929  20.230  0.00  0.00    +0.000 C 
ATOM     18  C   UNL     1       1.331   5.605  21.018  0.00  0.00    +0.000 C 
ENDBRANCH   4   9
BRANCH   1  19
ATOM     19  C   UNL     1       7.072   4.540  14.407  0.00  0.00    +0.000 C 
ATOM     20  O   UNL     1       7.735   5.509  14.058  0.00  0.00    +0.000 OA
BRANCH  19  21
ATOM     21  O   UNL     1       6.752   3.486  13.621  0.00  0.00    +0.000 OA
BRANCH  21  23
ATOM     22  C   UNL     1       5.083   3.313  11.927  0.00  0.00    +0.000 C 
ATOM     23  C   UNL     1       6.491   3.784  12.245  0.00  0.00    +0.000 C 
ENDBRANCH  21  23
ENDBRANCH  19  21
ENDBRANCH   1  19
TORSDOF 4
ENDMDL
MODEL 2
REMARK VINA RESULT:      -7.7      3.800      7.394
REMARK  Name = 
REMARK  6 active torsions:
REMARK  status: ('A' for Active; 'I' for Inactive)
REMARK    1  A    between atoms: C_1  and  C_2
REMARK    2  A    between atoms: C_2  and  O_3
REMARK    3  A    between atoms: O_3  and  C_4
REMARK    4  A    between atoms: C_4  and  C_6
REMARK    5  A    between atoms: C_9  and  C_10
REMARK    6  A    between atoms: C_17  and  C_18
REMARK                            x       y       z     vdW  Elec       q    Type
REMARK                         _______ _______ _______ _____ _____    ______ ____
ROOT
ATOM      1  C   UNL     1       1.131   9.644  19.426  0.00  0.00    +0.000 A 
ATOM      2  C   UNL     1       1.540   9.596  18.150  0.00  0.00    +0.000 A 
ATOM      3  N   UNL     1       2.230   8.564  17.570  0.00  0.00    +0.000 NA
ATOM      4  C   UNL     1       2.537   7.551  18.319  0.00  0.00    +0.000 A 
ATOM      5  N   UNL     1       2.170   7.497  19.642  0.00  0.00    +0.000 N 
ATOM      6  C   UNL     1       1.445   8.474  20.266  0.00  0.00    +0.000 A 
ATOM      7  O   UNL     1       1.086   8.347  21.430  0.00  0.00    +0.000 OA
ATOM      8  H   UNL     1       2.396   6.683  20.202  0.00  0.00    +0.000 HD
ENDROOT
BRANCH   4   9
ATOM      9  C   UNL     1       3.304   6.392  17.779  0.00  0.00    +0.000 A 
ATOM     10  C   UNL     1       4.536   6.629  17.148  0.00  0.00    +0.000 A 
ATOM     11  C   UNL     1       5.289   5.570  16.615  0.00  0.00    +0.000 A 
ATOM     12  C   UNL     1       4.821   4.258  16.698  0.00  0.00    +0.000 A 
ATOM     13  C   UNL     1       3.604   4.032  17.320  0.00  0.00    +0.000 A 
ATOM     14  C   UNL     1       2.865   5.076  17.857  0.00  0.00    +0.000 A 
ATOM     15  O   UNL     1       1.701   4.658  18.457  0.00  0.00    +0.000 OA
ATOM     16  C   UNL     1       1.621   3.229  18.211  0.00  0.00    +0.000 C 
ATOM     17  C   UNL     1       1.367   2.522  19.535  0.00  0.00    +0.000 C 
ATOM     18  C   UNL     1       2.911   2.744  17.534  0.00  0.00    +0.000 C 
ENDBRANCH   4   9
BRANCH   1  19
ATOM     19  C   UNL     1       0.500  10.887  19.895  0.00  0.00    +0.000 C 
ATOM     20  O   UNL     1       1.121  11.847  20.333  0.00  0.00    +0.000 OA
BRANCH  19  21
ATOM     21  O   UNL     1      -0.845  10.744  19.929  0.00  0.00    +0.000 OA
BRANCH  21  23
ATOM     22  C   UNL     1      -2.213  10.398  18.006  0.00  0.00    +0.000 C 
ATOM     23  C   UNL     1      -1.577  11.437  18.911  0.00  0.00    +0.000 C 
ENDBRANCH  21  23
ENDBRANCH  19  21
ENDBRANCH   1  19
TORSDOF 4
ENDMDL
MODEL 3
REMARK VINA RESULT:      -7.7      1.223      2.559
REMARK  Name = 
REMARK  6 active torsions:
REMARK  status: ('A' for Active; 'I' for Inactive)
REMARK    1  A    between atoms: C_1  and  C_2
REMARK    2  A    between atoms: C_2  and  O_3
REMARK    3  A    between atoms: O_3  and  C_4
REMARK    4  A    between atoms: C_4  and  C_6
REMARK    5  A    between atoms: C_9  and  C_10
REMARK    6  A    between atoms: C_17  and  C_18
REMARK                            x       y       z     vdW  Elec       q    Type
REMARK                         _______ _______ _______ _____ _____    ______ ____
ROOT
ATOM      1  C   UNL     1       6.437   5.236  15.499  0.00  0.00    +0.000 A 
ATOM      2  C   UNL     1       5.263   5.836  15.260  0.00  0.00    +0.000 A 
ATOM      3  N   UNL     1       4.306   6.121  16.199  0.00  0.00    +0.000 NA
ATOM      4  C   UNL     1       4.539   5.762  17.423  0.00  0.00    +0.000 A 
ATOM      5  N   UNL     1       5.710   5.137  17.779  0.00  0.00    +0.000 N 
ATOM      6  C   UNL     1       6.720   4.864  16.898  0.00  0.00    +0.000 A 
ATOM      7  O   UNL     1       7.771   4.365  17.278  0.00  0.00    +0.000 OA
ATOM      8  H   UNL     1       5.884   4.891  18.746  0.00  0.00    +0.000 HD
ENDROOT
BRANCH   4   9
ATOM      9  C   UNL     1       3.546   6.012  18.506  0.00  0.00    +0.000 A 
ATOM     10  C   UNL     1       3.090   7.324  18.720  0.00  0.00    +0.000 A 
ATOM     11  C   UNL     1       2.163   7.609  19.734  0.00  0.00    +0.000 A 
ATOM     12  C   UNL     1       1.680   6.591  20.557  0.00  0.00    +0.000 A 
ATOM     13  C   UNL     1       2.136   5.300  20.344  0.00  0.00    +0.000 A 
ATOM     14  C   UNL     1       3.043   5.015  19.334  0.00  0.00    +0.000 A 
ATOM     15  O   UNL     1       3.357   3.680  19.254  0.00  0.00    +0.000 OA
ATOM     16  C   UNL     1       2.672   3.046  20.367  0.00  0.00    +0.000 C 
ATOM     17  C   UNL     1       1.886   1.855  19.838  0.00  0.00    +0.000 C 
ATOM     18  C   UNL     1       1.769   4.068  21.073  0.00  0.00    +0.000 C 
ENDBRANCH   4   9
BRANCH   1  19
ATOM     19  C   UNL     1       7.288   4.914  14.343  0.00  0.00    +0.000 C 
ATOM     20  O   UNL     1       8.152   5.661  13.900  0.00  0.00    +0.000 OA
BRANCH  19  21
ATOM     21  O   UNL     1       6.865   3.771  13.755  0.00  0.00    +0.000 OA
BRANCH  21  23
ATOM     22  C   UNL     1       5.225   3.342  12.078  0.00  0.00    +0.000 C 
ATOM     23  C   UNL     1       6.635   3.838  12.343  0.00  0.00    +0.000 C 
ENDBRANCH  21  23
ENDBRANCH  19  21
ENDBRANCH   1  19
TORSDOF 4
ENDMDL
MODEL 4
REMARK VINA RESULT:      -7.7      3.847      7.780
REMARK  Name = 
REMARK  6 active torsions:
REMARK  status: ('A' for Active; 'I' for Inactive)
REMARK    1  A    between atoms: C_1  and  C_2
REMARK    2  A    between atoms: C_2  and  O_3
REMARK    3  A    between atoms: O_3  and  C_4
REMARK    4  A    between atoms: C_4  and  C_6
REMARK    5  A    between atoms: C_9  and  C_10
REMARK    6  A    between atoms: C_17  and  C_18
REMARK                            x       y       z     vdW  Elec       q    Type
REMARK                         _______ _______ _______ _____ _____    ______ ____
ROOT
ATOM      1  C   UNL     1       1.125   9.623  19.692  0.00  0.00    +0.000 A 
ATOM      2  C   UNL     1       1.463   9.598  18.395  0.00  0.00    +0.000 A 
ATOM      3  N   UNL     1       2.110   8.572  17.758  0.00  0.00    +0.000 NA
ATOM      4  C   UNL     1       2.449   7.541  18.469  0.00  0.00    +0.000 A 
ATOM      5  N   UNL     1       2.154   7.463  19.808  0.00  0.00    +0.000 N 
ATOM      6  C   UNL     1       1.474   8.434  20.491  0.00  0.00    +0.000 A 
ATOM      7  O   UNL     1       1.178   8.287  21.669  0.00  0.00    +0.000 OA
ATOM      8  H   UNL     1       2.402   6.636  20.338  0.00  0.00    +0.000 HD
ENDROOT
BRANCH   4   9
ATOM      9  C   UNL     1       3.173   6.387  17.864  0.00  0.00    +0.000 A 
ATOM     10  C   UNL     1       4.362   6.628  17.155  0.00  0.00    +0.000 A 
ATOM     11  C   UNL     1       5.073   5.573  16.561  0.00  0.00    +0.000 A 
ATOM     12  C   UNL     1       4.607   4.262  16.659  0.00  0.00    +0.000 A 
ATOM     13  C   UNL     1       3.433   4.032  17.357  0.00  0.00    +0.000 A 
ATOM     14  C   UNL     1       2.735   5.071  17.955  0.00  0.00    +0.000 A 
ATOM     15  O   UNL     1       1.613   4.649  18.626  0.00  0.00    +0.000 OA
ATOM     16  C   UNL     1       1.511   3.224  18.369  0.00  0.00    +0.000 C 
ATOM     17  C   UNL     1       1.342   2.501  19.697  0.00  0.00    +0.000 C 
ATOM     18  C   UNL     1       2.751   2.743  17.601  0.00  0.00    +0.000 C 
ENDBRANCH   4   9
BRANCH   1  19
ATOM     19  C   UNL     1       0.533  10.862  20.220  0.00  0.00    +0.000 C 
ATOM     20  O   UNL     1       1.146  11.916  20.342  0.00  0.00    +0.000 OA
BRANCH  19  21
ATOM     21  O   UNL     1      -0.710  10.619  20.697  0.00  0.00    +0.000 OA
BRANCH  21  23
ATOM     22  C   UNL     1      -1.020  10.695  23.060  0.00  0.00    +0.000 C 
ATOM     23  C   UNL     1      -1.152  11.469  21.761  0.00  0.00    +0.000 C 
ENDBRANCH  21  23
ENDBRANCH  19  21
ENDBRANCH   1  19
TORSDOF 4
ENDMDL
MODEL 5
REMARK VINA RESULT:      -7.5      4.112      7.518
REMARK  Name = 
REMARK  6 active torsions:
REMARK  status: ('A' for Active; 'I' for Inactive)
REMARK    1  A    between atoms: C_1  and  C_2
REMARK    2  A    between atoms: C_2  and  O_3
REMARK    3  A    between atoms: O_3  and  C_4
REMARK    4  A    between atoms: C_4  and  C_6
REMARK    5  A    between atoms: C_9  and  C_10
REMARK    6  A    between atoms: C_17  and  C_18
REMARK                            x       y       z     vdW  Elec       q    Type
REMARK                         _______ _______ _______ _____ _____    ______ ____
ROOT
ATOM      1  C   UNL     1       1.138   9.675  20.015  0.00  0.00    +0.000 A 
ATOM      2  C   UNL     1       1.449   9.477  18.726  0.00  0.00    +0.000 A 
ATOM      3  N   UNL     1       1.979   8.329  18.200  0.00  0.00    +0.000 NA
ATOM      4  C   UNL     1       2.226   7.351  19.016  0.00  0.00    +0.000 A 
ATOM      5  N   UNL     1       1.949   7.447  20.358  0.00  0.00    +0.000 N 
ATOM      6  C   UNL     1       1.381   8.549  20.936  0.00  0.00    +0.000 A 
ATOM      7  O   UNL     1       1.093   8.559  22.126  0.00  0.00    +0.000 OA
ATOM      8  H   UNL     1       2.123   6.661  20.973  0.00  0.00    +0.000 HD
ENDROOT
BRANCH   4   9
ATOM      9  C   UNL     1       2.822   6.072  18.535  0.00  0.00    +0.000 A 
ATOM     10  C   UNL     1       3.844   6.118  17.573  0.00  0.00    +0.000 A 
ATOM     11  C   UNL     1       4.427   4.939  17.083  0.00  0.00    +0.000 A 
ATOM     12  C   UNL     1       3.997   3.694  17.542  0.00  0.00    +0.000 A 
ATOM     13  C   UNL     1       2.987   3.655  18.490  0.00  0.00    +0.000 A 
ATOM     14  C   UNL     1       2.417   4.820  18.983  0.00  0.00    +0.000 A 
ATOM     15  O   UNL     1       1.453   4.586  19.934  0.00  0.00    +0.000 OA
ATOM     16  C   UNL     1       1.310   3.143  20.004  0.00  0.00    +0.000 C 
ATOM     17  C   UNL     1       1.413   2.714  21.461  0.00  0.00    +0.000 C 
ATOM     18  C   UNL     1       2.374   2.470  19.126  0.00  0.00    +0.000 C 
ENDBRANCH   4   9
BRANCH   1  19
ATOM     19  C   UNL     1       0.681  11.017  20.410  0.00  0.00    +0.000 C 
ATOM     20  O   UNL     1       1.251  11.717  21.238  0.00  0.00    +0.000 OA
BRANCH  19  21
ATOM     21  O   UNL     1      -0.526  11.279  19.860  0.00  0.00    +0.000 OA
BRANCH  21  23
ATOM     22  C   UNL     1      -0.589  13.022  18.233  0.00  0.00    +0.000 C 
ATOM     23  C   UNL     1      -0.850  12.664  19.685  0.00  0.00    +0.000 C 
ENDBRANCH  21  23
ENDBRANCH  19  21
ENDBRANCH   1  19
TORSDOF 4
ENDMDL
MODEL 6
REMARK VINA RESULT:      -7.4      3.811      7.509
REMARK  Name = 
REMARK  6 active torsions:
REMARK  status: ('A' for Active; 'I' for Inactive)
REMARK    1  A    between atoms: C_1  and  C_2
REMARK    2  A    between atoms: C_2  and  O_3
REMARK    3  A    between atoms: O_3  and  C_4
REMARK    4  A    between atoms: C_4  and  C_6
REMARK    5  A    between atoms: C_9  and  C_10
REMARK    6  A    between atoms: C_17  and  C_18
REMARK                            x       y       z     vdW  Elec       q    Type
REMARK                         _______ _______ _______ _____ _____    ______ ____
ROOT
ATOM      1  C   UNL     1       1.059   9.536  19.637  0.00  0.00    +0.000 A 
ATOM      2  C   UNL     1       1.399   9.506  18.341  0.00  0.00    +0.000 A 
ATOM      3  N   UNL     1       2.077   8.493  17.716  0.00  0.00    +0.000 NA
ATOM      4  C   UNL     1       2.445   7.481  18.439  0.00  0.00    +0.000 A 
ATOM      5  N   UNL     1       2.151   7.409  19.779  0.00  0.00    +0.000 N 
ATOM      6  C   UNL     1       1.442   8.367  20.450  0.00  0.00    +0.000 A 
ATOM      7  O   UNL     1       1.149   8.224  21.630  0.00  0.00    +0.000 OA
ATOM      8  H   UNL     1       2.424   6.596  20.319  0.00  0.00    +0.000 HD
ENDROOT
BRANCH   4   9
ATOM      9  C   UNL     1       3.204   6.342  17.848  0.00  0.00    +0.000 A 
ATOM     10  C   UNL     1       4.393   6.609  17.149  0.00  0.00    +0.000 A 
ATOM     11  C   UNL     1       5.137   5.570  16.567  0.00  0.00    +0.000 A 
ATOM     12  C   UNL     1       4.703   4.248  16.669  0.00  0.00    +0.000 A 
ATOM     13  C   UNL     1       3.529   3.991  17.358  0.00  0.00    +0.000 A 
ATOM     14  C   UNL     1       2.799   5.016  17.944  0.00  0.00    +0.000 A 
ATOM     15  O   UNL     1       1.682   4.569  18.607  0.00  0.00    +0.000 OA
ATOM     16  C   UNL     1       1.619   3.140  18.357  0.00  0.00    +0.000 C 
ATOM     17  C   UNL     1       1.456   2.421  19.688  0.00  0.00    +0.000 C 
ATOM     18  C   UNL     1       2.878   2.687  17.604  0.00  0.00    +0.000 C 
ENDBRANCH   4   9
BRANCH   1  19
ATOM     19  C   UNL     1       0.429  10.763  20.151  0.00  0.00    +0.000 C 
ATOM     20  O   UNL     1      -0.777  10.974  20.127  0.00  0.00    +0.000 OA
BRANCH  19  21
ATOM     21  O   UNL     1       1.376  11.668  20.489  0.00  0.00    +0.000 OA
BRANCH  21  23
ATOM     22  C   UNL     1       2.375  13.354  19.130  0.00  0.00    +0.000 C 
ATOM     23  C   UNL     1       1.180  12.998  19.995  0.00  0.00    +0.000 C 
ENDBRANCH  21  23
ENDBRANCH  19  21
ENDBRANCH   1  19
TORSDOF 4
ENDMDL
MODEL 7
REMARK VINA RESULT:      -7.3      3.911      5.914
REMARK  Name = 
REMARK  6 active torsions:
REMARK  status: ('A' for Active; 'I' for Inactive)
REMARK    1  A    between atoms: C_1  and  C_2
REMARK    2  A    between atoms: C_2  and  O_3
REMARK    3  A    between atoms: O_3  and  C_4
REMARK    4  A    between atoms: C_4  and  C_6
REMARK    5  A    between atoms: C_9  and  C_10
REMARK    6  A    between atoms: C_17  and  C_18
REMARK                            x       y       z     vdW  Elec       q    Type
REMARK                         _______ _______ _______ _____ _____    ______ ____
ROOT
ATOM      1  C   UNL     1       3.478   4.075  19.876  0.00  0.00    +0.000 A 
ATOM      2  C   UNL     1       3.932   4.884  18.908  0.00  0.00    +0.000 A 
ATOM      3  N   UNL     1       3.510   6.166  18.675  0.00  0.00    +0.000 NA
ATOM      4  C   UNL     1       2.574   6.640  19.439  0.00  0.00    +0.000 A 
ATOM      5  N   UNL     1       2.035   5.896  20.460  0.00  0.00    +0.000 N 
ATOM      6  C   UNL     1       2.443   4.628  20.770  0.00  0.00    +0.000 A 
ATOM      7  O   UNL     1       1.977   4.033  21.732  0.00  0.00    +0.000 OA
ATOM      8  H   UNL     1       1.325   6.296  21.063  0.00  0.00    +0.000 HD
ENDROOT
BRANCH   4   9
ATOM      9  C   UNL     1       2.039   8.017  19.245  0.00  0.00    +0.000 A 
ATOM     10  C   UNL     1       2.121   8.605  17.972  0.00  0.00    +0.000 A 
ATOM     11  C   UNL     1       1.639   9.904  17.745  0.00  0.00    +0.000 A 
ATOM     12  C   UNL     1       1.074  10.640  18.786  0.00  0.00    +0.000 A 
ATOM     13  C   UNL     1       0.997  10.056  20.040  0.00  0.00    +0.000 A 
ATOM     14  C   UNL     1       1.462   8.768  20.263  0.00  0.00    +0.000 A 
ATOM     15  O   UNL     1       1.278   8.347  21.558  0.00  0.00    +0.000 OA
ATOM     16  C   UNL     1       0.732   9.488  22.271  0.00  0.00    +0.000 C 
ATOM     17  C   UNL     1      -0.516   9.042  23.019  0.00  0.00    +0.000 C 
ATOM     18  C   UNL     1       0.440  10.627  21.284  0.00  0.00    +0.000 C 
ENDBRANCH   4   9
BRANCH   1  19
ATOM     19  C   UNL     1       3.974   2.691  19.900  0.00  0.00    +0.000 C 
ATOM     20  O   UNL     1       5.151   2.388  20.051  0.00  0.00    +0.000 OA
BRANCH  19  21
ATOM     21  O   UNL     1       2.982   1.833  19.566  0.00  0.00    +0.000 OA
BRANCH  21  23
ATOM     22  C   UNL     1       0.820   2.237  18.643  0.00  0.00    +0.000 C 
ATOM     23  C   UNL     1       2.301   2.106  18.336  0.00  0.00    +0.000 C 
ENDBRANCH  21  23
ENDBRANCH  19  21
ENDBRANCH   1  19
TORSDOF 4
ENDMDL
MODEL 8
REMARK VINA RESULT:      -7.2      3.352      7.161
REMARK  Name = 
REMARK  6 active torsions:
REMARK  status: ('A' for Active; 'I' for Inactive)
REMARK    1  A    between atoms: C_1  and  C_2
REMARK    2  A    between atoms: C_2  and  O_3
REMARK    3  A    between atoms: O_3  and  C_4
REMARK    4  A    between atoms: C_4  and  C_6
REMARK    5  A    between atoms: C_9  and  C_10
REMARK    6  A    between atoms: C_17  and  C_18
REMARK                            x       y       z     vdW  Elec       q    Type
REMARK                         _______ _______ _______ _____ _____    ______ ____
ROOT
ATOM      1  C   UNL     1       1.008   9.730  19.624  0.00  0.00    +0.000 A 
ATOM      2  C   UNL     1       0.904   8.989  20.737  0.00  0.00    +0.000 A 
ATOM      3  N   UNL     1       1.386   7.717  20.897  0.00  0.00    +0.000 NA
ATOM      4  C   UNL     1       1.976   7.165  19.882  0.00  0.00    +0.000 A 
ATOM      5  N   UNL     1       2.134   7.833  18.692  0.00  0.00    +0.000 N 
ATOM      6  C   UNL     1       1.714   9.118  18.484  0.00  0.00    +0.000 A 
ATOM      7  O   UNL     1       1.939   9.691  17.426  0.00  0.00    +0.000 OA
ATOM      8  H   UNL     1       2.623   7.393  17.921  0.00  0.00    +0.000 HD
ENDROOT
BRANCH   4   9
ATOM      9  C   UNL     1       2.513   5.777  19.959  0.00  0.00    +0.000 A 
ATOM     10  C   UNL     1       1.907   4.862  20.836  0.00  0.00    +0.000 A 
ATOM     11  C   UNL     1       2.385   3.547  20.949  0.00  0.00    +0.000 A 
ATOM     12  C   UNL     1       3.478   3.124  20.193  0.00  0.00    +0.000 A 
ATOM     13  C   UNL     1       4.072   4.031  19.331  0.00  0.00    +0.000 A 
ATOM     14  C   UNL     1       3.594   5.328  19.209  0.00  0.00    +0.000 A 
ATOM     15  O   UNL     1       4.289   6.074  18.288  0.00  0.00    +0.000 OA
ATOM     16  C   UNL     1       5.377   5.225  17.834  0.00  0.00    +0.000 C 
ATOM     17  C   UNL     1       5.374   5.206  16.312  0.00  0.00    +0.000 C 
ATOM     18  C   UNL     1       5.225   3.819  18.431  0.00  0.00    +0.000 C 
ENDBRANCH   4   9
BRANCH   1  19
ATOM     19  C   UNL     1       0.329  11.035  19.606  0.00  0.00    +0.000 C 
ATOM     20  O   UNL     1       0.871  12.093  19.902  0.00  0.00    +0.000 OA
BRANCH  19  21
ATOM     21  O   UNL     1      -0.996  10.870  19.383  0.00  0.00    +0.000 OA
BRANCH  21  23
ATOM     22  C   UNL     1      -2.519  10.006  17.764  0.00  0.00    +0.000 C 
ATOM     23  C   UNL     1      -1.431  11.031  18.029  0.00  0.00    +0.000 C 
ENDBRANCH  21  23
ENDBRANCH  19  21
ENDBRANCH   1  19
TORSDOF 4
ENDMDL
MODEL 9
REMARK VINA RESULT:      -7.2      3.795      7.624
REMARK  Name = 
REMARK  6 active torsions:
REMARK  status: ('A' for Active; 'I' for Inactive)
REMARK    1  A    between atoms: C_1  and  C_2
REMARK    2  A    between atoms: C_2  and  O_3
REMARK    3  A    between atoms: O_3  and  C_4
REMARK    4  A    between atoms: C_4  and  C_6
REMARK    5  A    between atoms: C_9  and  C_10
REMARK    6  A    between atoms: C_17  and  C_18
REMARK                            x       y       z     vdW  Elec       q    Type
REMARK                         _______ _______ _______ _____ _____    ______ ____
ROOT
ATOM      1  C   UNL     1       1.251   9.408  19.571  0.00  0.00    +0.000 A 
ATOM      2  C   UNL     1       1.448   8.261  20.237  0.00  0.00    +0.000 A 
ATOM      3  N   UNL     1       2.110   7.162  19.757  0.00  0.00    +0.000 NA
ATOM      4  C   UNL     1       2.570   7.218  18.546  0.00  0.00    +0.000 A 
ATOM      5  N   UNL     1       2.422   8.344  17.772  0.00  0.00    +0.000 N 
ATOM      6  C   UNL     1       1.810   9.487  18.209  0.00  0.00    +0.000 A 
ATOM      7  O   UNL     1       1.763  10.486  17.503  0.00  0.00    +0.000 OA
ATOM      8  H   UNL     1       2.814   8.377  16.838  0.00  0.00    +0.000 HD
ENDROOT
BRANCH   4   9
ATOM      9  C   UNL     1       3.285   6.062  17.934  0.00  0.00    +0.000 A 
ATOM     10  C   UNL     1       4.488   6.294  17.247  0.00  0.00    +0.000 A 
ATOM     11  C   UNL     1       5.191   5.238  16.646  0.00  0.00    +0.000 A 
ATOM     12  C   UNL     1       4.702   3.934  16.715  0.00  0.00    +0.000 A 
ATOM     13  C   UNL     1       3.514   3.711  17.392  0.00  0.00    +0.000 A 
ATOM     14  C   UNL     1       2.824   4.752  17.996  0.00  0.00    +0.000 A 
ATOM     15  O   UNL     1       1.684   4.339  18.643  0.00  0.00    +0.000 OA
ATOM     16  C   UNL     1       1.563   2.920  18.361  0.00  0.00    +0.000 C 
ATOM     17  C   UNL     1       1.362   2.178  19.675  0.00  0.00    +0.000 C 
ATOM     18  C   UNL     1       2.807   2.431  17.604  0.00  0.00    +0.000 C 
ENDBRANCH   4   9
BRANCH   1  19
ATOM     19  C   UNL     1       0.419  10.437  20.212  0.00  0.00    +0.000 C 
ATOM     20  O   UNL     1      -0.425  11.100  19.623  0.00  0.00    +0.000 OA
BRANCH  19  21
ATOM     21  O   UNL     1       0.839  10.654  21.481  0.00  0.00    +0.000 OA
BRANCH  21  23
ATOM     22  C   UNL     1      -0.389   9.527  23.187  0.00  0.00    +0.000 C 
ATOM     23  C   UNL     1      -0.190  10.844  22.459  0.00  0.00    +0.000 C 
ENDBRANCH  21  23
ENDBRANCH  19  21
ENDBRANCH   1  19
TORSDOF 4
ENDMDL
