MODEL 1
REMARK VINA RESULT:      -8.2      0.000      0.000
REMARK  Name = 
REMARK  7 active torsions:
REMARK  status: ('A' for Active; 'I' for Inactive)
REMARK    1  A    between atoms: C_1  and  C_2
REMARK    2  A    between atoms: C_5  and  O_6
REMARK    3  A    between atoms: O_6  and  S_7
REMARK    4  A    between atoms: S_7  and  C_10
REMARK    5  A    between atoms: C_13  and  N_14
REMARK    6  A    between atoms: N_17  and  C_18
REMARK    7  A    between atoms: C_23  and  C_24
REMARK                            x       y       z     vdW  Elec       q    Type
REMARK                         _______ _______ _______ _____ _____    ______ ____
ROOT
ATOM      1  C   UNL     1       2.761   4.737  18.638  0.00  0.00    +0.000 A 
ATOM      2  C   UNL     1       2.695   5.860  17.821  0.00  0.00    +0.000 A 
ATOM      3  C   UNL     1       2.276   7.083  18.370  0.00  0.00    +0.000 A 
ATOM      4  C   UNL     1       1.931   7.210  19.726  0.00  0.00    +0.000 A 
ATOM      5  C   UNL     1       2.021   6.059  20.527  0.00  0.00    +0.000 A 
ATOM      6  C   UNL     1       2.424   4.831  19.989  0.00  0.00    +0.000 A 
ENDROOT
BRANCH   4   7
ATOM      7  N   UNL     1       1.476   8.438  20.277  0.00  0.00    +0.000 N 
ATOM      8  C   UNL     1       1.361   8.694  21.698  0.00  0.00    +0.000 C 
ATOM      9  C   UNL     1       0.377   9.849  21.765  0.00  0.00    +0.000 C 
ATOM     10  N   UNL     1       0.611  10.531  20.522  0.00  0.00    +0.000 N 
ATOM     11  C   UNL     1      -0.157  11.684  20.125  0.00  0.00    +0.000 C 
ATOM     12  C   UNL     1       1.108   9.613  19.567  0.00  0.00    +0.000 C 
ATOM     13  O   UNL     1       1.146   9.832  18.368  0.00  0.00    +0.000 OA
ENDBRANCH   4   7
BRANCH   1  14
ATOM     14  S   UNL     1       3.306   3.153  18.036  0.00  0.00    +0.000 S 
ATOM     15  O   UNL     1       2.254   2.691  17.149  0.00  0.00    +0.000 OA
ATOM     16  O   UNL     1       3.661   2.408  19.233  0.00  0.00    +0.000 OA
BRANCH  14  17
ATOM     17  O   UNL     1       4.657   3.421  17.158  0.00  0.00    +0.000 OA
BRANCH  17  22
ATOM     18  C   UNL     1       8.277   7.642  18.442  0.00  0.00    +0.000 C 
ATOM     19  C   UNL     1       7.321   6.531  18.122  0.00  0.00    +0.000 A 
ATOM     20  C   UNL     1       6.907   5.638  19.110  0.00  0.00    +0.000 A 
ATOM     21  C   UNL     1       6.020   4.604  18.805  0.00  0.00    +0.000 A 
ATOM     22  C   UNL     1       5.536   4.429  17.502  0.00  0.00    +0.000 A 
ATOM     23  C   UNL     1       5.925   5.336  16.501  0.00  0.00    +0.000 A 
ATOM     24  C   UNL     1       5.444   5.243  15.080  0.00  0.00    +0.000 C 
ATOM     25  C   UNL     1       6.821   6.375  16.824  0.00  0.00    +0.000 A 
ENDBRANCH  17  22
ENDBRANCH  14  17
ENDBRANCH   1  14
TORSDOF 4
ENDMDL
MODEL 2
REMARK VINA RESULT:      -8.1      3.081      8.644
REMARK  Name = 
REMARK  7 active torsions:
REMARK  status: ('A' for Active; 'I' for Inactive)
REMARK    1  A    between atoms: C_1  and  C_2
REMARK    2  A    between atoms: C_5  and  O_6
REMARK    3  A    between atoms: O_6  and  S_7
REMARK    4  A    between atoms: S_7  and  C_10
REMARK    5  A    between atoms: C_13  and  N_14
REMARK    6  A    between atoms: N_17  and  C_18
REMARK    7  A    between atoms: C_23  and  C_24
REMARK                            x       y       z     vdW  Elec       q    Type
REMARK                         _______ _______ _______ _____ _____    ______ ____
ROOT
ATOM      1  C   UNL     1       1.413   9.223  19.230  0.00  0.00    +0.000 A 
ATOM      2  C   UNL     1       2.000   8.796  18.045  0.00  0.00    +0.000 A 
ATOM      3  C   UNL     1       2.593   7.523  17.993  0.00  0.00    +0.000 A 
ATOM      4  C   UNL     1       2.601   6.662  19.102  0.00  0.00    +0.000 A 
ATOM      5  C   UNL     1       1.988   7.118  20.281  0.00  0.00    +0.000 A 
ATOM      6  C   UNL     1       1.407   8.390  20.350  0.00  0.00    +0.000 A 
ENDROOT
BRANCH   4   7
ATOM      7  N   UNL     1       3.228   5.387  19.062  0.00  0.00    +0.000 N 
ATOM      8  C   UNL     1       4.630   5.165  19.351  0.00  0.00    +0.000 C 
ATOM      9  C   UNL     1       4.917   3.835  18.677  0.00  0.00    +0.000 C 
ATOM     10  N   UNL     1       3.645   3.171  18.742  0.00  0.00    +0.000 N 
ATOM     11  C   UNL     1       3.430   1.870  18.161  0.00  0.00    +0.000 C 
ATOM     12  C   UNL     1       2.612   4.136  18.789  0.00  0.00    +0.000 C 
ATOM     13  O   UNL     1       1.437   3.886  18.582  0.00  0.00    +0.000 OA
ENDBRANCH   4   7
BRANCH   1  14
ATOM     14  S   UNL     1       0.616  10.807  19.381  0.00  0.00    +0.000 S 
ATOM     15  O   UNL     1      -0.774  10.579  19.032  0.00  0.00    +0.000 OA
ATOM     16  O   UNL     1       1.448  11.713  18.606  0.00  0.00    +0.000 OA
BRANCH  14  17
ATOM     17  O   UNL     1       0.702  11.229  20.958  0.00  0.00    +0.000 OA
BRANCH  17  22
ATOM     18  C   UNL     1      -3.794  13.410  23.713  0.00  0.00    +0.000 C 
ATOM     19  C   UNL     1      -2.608  12.854  22.983  0.00  0.00    +0.000 A 
ATOM     20  C   UNL     1      -2.026  13.555  21.928  0.00  0.00    +0.000 A 
ATOM     21  C   UNL     1      -0.924  13.029  21.250  0.00  0.00    +0.000 A 
ATOM     22  C   UNL     1      -0.386  11.784  21.601  0.00  0.00    +0.000 A 
ATOM     23  C   UNL     1      -0.948  11.077  22.678  0.00  0.00    +0.000 A 
ATOM     24  C   UNL     1      -0.430   9.744  23.142  0.00  0.00    +0.000 C 
ATOM     25  C   UNL     1      -2.060  11.619  23.353  0.00  0.00    +0.000 A 
ENDBRANCH  17  22
ENDBRANCH  14  17
ENDBRANCH   1  14
TORSDOF 4
ENDMDL
MODEL 3
REMARK VINA RESULT:      -8.0      2.356      3.679
REMARK  Name = 
REMARK  7 active torsions:
REMARK  status: ('A' for Active; 'I' for Inactive)
REMARK    1  A    between atoms: C_1  and  C_2
REMARK    2  A    between atoms: C_5  and  O_6
REMARK    3  A    between atoms: O_6  and  S_7
REMARK    4  A    between atoms: S_7  and  C_10
REMARK    5  A    between atoms: C_13  and  N_14
REMARK    6  A    between atoms: N_17  and  C_18
REMARK    7  A    between atoms: C_23  and  C_24
REMARK                            x       y       z     vdW  Elec       q    Type
REMARK                         _______ _______ _______ _____ _____    ______ ____
ROOT
ATOM      1  C   UNL     1       1.983   7.557  19.429  0.00  0.00    +0.000 A 
ATOM      2  C   UNL     1       1.427   8.087  20.587  0.00  0.00    +0.000 A 
ATOM      3  C   UNL     1       0.966   9.414  20.580  0.00  0.00    +0.000 A 
ATOM      4  C   UNL     1       1.039  10.221  19.433  0.00  0.00    +0.000 A 
ATOM      5  C   UNL     1       1.595   9.650  18.276  0.00  0.00    +0.000 A 
ATOM      6  C   UNL     1       2.072   8.334  18.273  0.00  0.00    +0.000 A 
ENDROOT
BRANCH   4   7
ATOM      7  N   UNL     1       0.603  11.573  19.433  0.00  0.00    +0.000 N 
ATOM      8  C   UNL     1      -0.492  12.069  18.624  0.00  0.00    +0.000 C 
ATOM      9  C   UNL     1      -0.225  13.562  18.556  0.00  0.00    +0.000 C 
ATOM     10  N   UNL     1       0.451  13.816  19.799  0.00  0.00    +0.000 N 
ATOM     11  C   UNL     1       0.952  15.121  20.145  0.00  0.00    +0.000 C 
ATOM     12  C   UNL     1       1.107  12.638  20.226  0.00  0.00    +0.000 C 
ATOM     13  O   UNL     1       1.968  12.614  21.090  0.00  0.00    +0.000 OA
ENDBRANCH   4   7
BRANCH   1  14
ATOM     14  S   UNL     1       2.570   5.879  19.337  0.00  0.00    +0.000 S 
ATOM     15  O   UNL     1       1.873   5.284  18.210  0.00  0.00    +0.000 OA
ATOM     16  O   UNL     1       2.405   5.357  20.683  0.00  0.00    +0.000 OA
BRANCH  14  17
ATOM     17  O   UNL     1       4.165   5.956  18.989  0.00  0.00    +0.000 OA
BRANCH  17  22
ATOM     18  C   UNL     1       6.129   4.118  13.957  0.00  0.00    +0.000 C 
ATOM     19  C   UNL     1       5.606   4.616  15.271  0.00  0.00    +0.000 A 
ATOM     20  C   UNL     1       5.337   5.970  15.466  0.00  0.00    +0.000 A 
ATOM     21  C   UNL     1       4.854   6.428  16.694  0.00  0.00    +0.000 A 
ATOM     22  C   UNL     1       4.641   5.545  17.760  0.00  0.00    +0.000 A 
ATOM     23  C   UNL     1       4.885   4.174  17.571  0.00  0.00    +0.000 A 
ATOM     24  C   UNL     1       4.669   3.147  18.648  0.00  0.00    +0.000 C 
ATOM     25  C   UNL     1       5.373   3.726  16.327  0.00  0.00    +0.000 A 
ENDBRANCH  17  22
ENDBRANCH  14  17
ENDBRANCH   1  14
TORSDOF 4
ENDMDL
MODEL 4
REMARK VINA RESULT:      -8.0      3.312      8.397
REMARK  Name = 
REMARK  7 active torsions:
REMARK  status: ('A' for Active; 'I' for Inactive)
REMARK    1  A    between atoms: C_1  and  C_2
REMARK    2  A    between atoms: C_5  and  O_6
REMARK    3  A    between atoms: O_6  and  S_7
REMARK    4  A    between atoms: S_7  and  C_10
REMARK    5  A    between atoms: C_13  and  N_14
REMARK    6  A    between atoms: N_17  and  C_18
REMARK    7  A    between atoms: C_23  and  C_24
REMARK                            x       y       z     vdW  Elec       q    Type
REMARK                         _______ _______ _______ _____ _____    ______ ____
ROOT
ATOM      1  C   UNL     1       1.471   8.720  19.775  0.00  0.00    +0.000 A 
ATOM      2  C   UNL     1       1.861   8.976  18.466  0.00  0.00    +0.000 A 
ATOM      3  C   UNL     1       2.619   8.015  17.776  0.00  0.00    +0.000 A 
ATOM      4  C   UNL     1       2.987   6.795  18.366  0.00  0.00    +0.000 A 
ATOM      5  C   UNL     1       2.566   6.562  19.686  0.00  0.00    +0.000 A 
ATOM      6  C   UNL     1       1.823   7.516  20.389  0.00  0.00    +0.000 A 
ENDROOT
BRANCH   4   7
ATOM      7  N   UNL     1       3.781   5.835  17.681  0.00  0.00    +0.000 N 
ATOM      8  C   UNL     1       3.342   4.487  17.383  0.00  0.00    +0.000 C 
ATOM      9  C   UNL     1       4.645   3.738  17.164  0.00  0.00    +0.000 C 
ATOM     10  N   UNL     1       5.516   4.766  16.664  0.00  0.00    +0.000 N 
ATOM     11  C   UNL     1       6.902   4.515  16.364  0.00  0.00    +0.000 C 
ATOM     12  C   UNL     1       5.082   6.025  17.143  0.00  0.00    +0.000 C 
ATOM     13  O   UNL     1       5.762   7.036  17.110  0.00  0.00    +0.000 OA
ENDBRANCH   4   7
BRANCH   1  14
ATOM     14  S   UNL     1       0.488   9.866  20.717  0.00  0.00    +0.000 S 
ATOM     15  O   UNL     1       1.370  10.377  21.751  0.00  0.00    +0.000 OA
ATOM     16  O   UNL     1      -0.716   9.125  21.055  0.00  0.00    +0.000 OA
BRANCH  14  17
ATOM     17  O   UNL     1       0.092  11.089  19.708  0.00  0.00    +0.000 OA
BRANCH  17  22
ATOM     18  C   UNL     1      -5.019  11.296  17.179  0.00  0.00    +0.000 C 
ATOM     19  C   UNL     1      -3.668  11.235  17.828  0.00  0.00    +0.000 A 
ATOM     20  C   UNL     1      -2.666  10.412  17.316  0.00  0.00    +0.000 A 
ATOM     21  C   UNL     1      -1.412  10.357  17.927  0.00  0.00    +0.000 A 
ATOM     22  C   UNL     1      -1.133  11.113  19.073  0.00  0.00    +0.000 A 
ATOM     23  C   UNL     1      -2.126  11.965  19.587  0.00  0.00    +0.000 A 
ATOM     24  C   UNL     1      -1.916  12.829  20.799  0.00  0.00    +0.000 C 
ATOM     25  C   UNL     1      -3.387  12.010  18.960  0.00  0.00    +0.000 A 
ENDBRANCH  17  22
ENDBRANCH  14  17
ENDBRANCH   1  14
TORSDOF 4
ENDMDL
MODEL 5
REMARK VINA RESULT:      -7.9      3.375      8.546
REMARK  Name = 
REMARK  7 active torsions:
REMARK  status: ('A' for Active; 'I' for Inactive)
REMARK    1  A    between atoms: C_1  and  C_2
REMARK    2  A    between atoms: C_5  and  O_6
REMARK    3  A    between atoms: O_6  and  S_7
REMARK    4  A    between atoms: S_7  and  C_10
REMARK    5  A    between atoms: C_13  and  N_14
REMARK    6  A    between atoms: N_17  and  C_18
REMARK    7  A    between atoms: C_23  and  C_24
REMARK                            x       y       z     vdW  Elec       q    Type
REMARK                         _______ _______ _______ _____ _____    ______ ____
ROOT
ATOM      1  C   UNL     1       1.378   8.950  19.595  0.00  0.00    +0.000 A 
ATOM      2  C   UNL     1       1.780   9.115  18.275  0.00  0.00    +0.000 A 
ATOM      3  C   UNL     1       2.558   8.117  17.665  0.00  0.00    +0.000 A 
ATOM      4  C   UNL     1       2.934   6.948  18.346  0.00  0.00    +0.000 A 
ATOM      5  C   UNL     1       2.500   6.806  19.675  0.00  0.00    +0.000 A 
ATOM      6  C   UNL     1       1.737   7.799  20.299  0.00  0.00    +0.000 A 
ENDROOT
BRANCH   4   7
ATOM      7  N   UNL     1       3.747   5.951  17.743  0.00  0.00    +0.000 N 
ATOM      8  C   UNL     1       3.302   4.600  17.469  0.00  0.00    +0.000 C 
ATOM      9  C   UNL     1       4.601   3.823  17.351  0.00  0.00    +0.000 C 
ATOM     10  N   UNL     1       5.516   4.818  16.863  0.00  0.00    +0.000 N 
ATOM     11  C   UNL     1       6.913   4.534  16.651  0.00  0.00    +0.000 C 
ATOM     12  C   UNL     1       5.079   6.100  17.272  0.00  0.00    +0.000 C 
ATOM     13  O   UNL     1       5.778   7.099  17.241  0.00  0.00    +0.000 OA
ENDBRANCH   4   7
BRANCH   1  14
ATOM     14  S   UNL     1       0.370  10.149  20.441  0.00  0.00    +0.000 S 
ATOM     15  O   UNL     1       1.276  10.873  21.314  0.00  0.00    +0.000 OA
ATOM     16  O   UNL     1      -0.740   9.381  20.979  0.00  0.00    +0.000 OA
BRANCH  14  17
ATOM     17  O   UNL     1      -0.198  11.175  19.302  0.00  0.00    +0.000 OA
BRANCH  17  22
ATOM     18  C   UNL     1      -5.759  12.404  18.956  0.00  0.00    +0.000 C 
ATOM     19  C   UNL     1      -4.297  12.086  19.065  0.00  0.00    +0.000 A 
ATOM     20  C   UNL     1      -3.515  12.655  20.069  0.00  0.00    +0.000 A 
ATOM     21  C   UNL     1      -2.154  12.358  20.162  0.00  0.00    +0.000 A 
ATOM     22  C   UNL     1      -1.539  11.496  19.245  0.00  0.00    +0.000 A 
ATOM     23  C   UNL     1      -2.320  10.896  18.242  0.00  0.00    +0.000 A 
ATOM     24  C   UNL     1      -1.755   9.943  17.225  0.00  0.00    +0.000 C 
ATOM     25  C   UNL     1      -3.692  11.206  18.160  0.00  0.00    +0.000 A 
ENDBRANCH  17  22
ENDBRANCH  14  17
ENDBRANCH   1  14
TORSDOF 4
ENDMDL
MODEL 6
REMARK VINA RESULT:      -7.8      3.445      8.686
REMARK  Name = 
REMARK  7 active torsions:
REMARK  status: ('A' for Active; 'I' for Inactive)
REMARK    1  A    between atoms: C_1  and  C_2
REMARK    2  A    between atoms: C_5  and  O_6
REMARK    3  A    between atoms: O_6  and  S_7
REMARK    4  A    between atoms: S_7  and  C_10
REMARK    5  A    between atoms: C_13  and  N_14
REMARK    6  A    between atoms: N_17  and  C_18
REMARK    7  A    between atoms: C_23  and  C_24
REMARK                            x       y       z     vdW  Elec       q    Type
REMARK                         _______ _______ _______ _____ _____    ______ ____
ROOT
ATOM      1  C   UNL     1       1.157   9.212  19.783  0.00  0.00    +0.000 A 
ATOM      2  C   UNL     1       1.507   8.092  20.526  0.00  0.00    +0.000 A 
ATOM      3  C   UNL     1       2.202   7.043  19.899  0.00  0.00    +0.000 A 
ATOM      4  C   UNL     1       2.564   7.098  18.544  0.00  0.00    +0.000 A 
ATOM      5  C   UNL     1       2.206   8.250  17.824  0.00  0.00    +0.000 A 
ATOM      6  C   UNL     1       1.501   9.295  18.433  0.00  0.00    +0.000 A 
ENDROOT
BRANCH   4   7
ATOM      7  N   UNL     1       3.238   6.025  17.899  0.00  0.00    +0.000 N 
ATOM      8  C   UNL     1       2.696   4.688  17.773  0.00  0.00    +0.000 C 
ATOM      9  C   UNL     1       3.928   3.835  17.529  0.00  0.00    +0.000 C 
ATOM     10  N   UNL     1       4.813   4.750  16.861  0.00  0.00    +0.000 N 
ATOM     11  C   UNL     1       6.152   4.378  16.481  0.00  0.00    +0.000 C 
ATOM     12  C   UNL     1       4.498   6.074  17.244  0.00  0.00    +0.000 C 
ATOM     13  O   UNL     1       5.232   7.030  17.057  0.00  0.00    +0.000 OA
ENDBRANCH   4   7
BRANCH   1  14
ATOM     14  S   UNL     1       0.300  10.599  20.498  0.00  0.00    +0.000 S 
ATOM     15  O   UNL     1       1.329  11.418  21.112  0.00  0.00    +0.000 OA
ATOM     16  O   UNL     1      -0.762  10.005  21.293  0.00  0.00    +0.000 OA
BRANCH  14  17
ATOM     17  O   UNL     1      -0.368  11.430  19.259  0.00  0.00    +0.000 OA
BRANCH  17  22
ATOM     18  C   UNL     1      -6.007  12.241  18.939  0.00  0.00    +0.000 C 
ATOM     19  C   UNL     1      -4.525  12.033  19.041  0.00  0.00    +0.000 A 
ATOM     20  C   UNL     1      -3.779  12.683  20.024  0.00  0.00    +0.000 A 
ATOM     21  C   UNL     1      -2.399  12.488  20.110  0.00  0.00    +0.000 A 
ATOM     22  C   UNL     1      -1.730  11.650  19.209  0.00  0.00    +0.000 A 
ATOM     23  C   UNL     1      -2.472  10.970  18.229  0.00  0.00    +0.000 A 
ATOM     24  C   UNL     1      -1.848  10.035  17.230  0.00  0.00    +0.000 C 
ATOM     25  C   UNL     1      -3.865  11.176  18.152  0.00  0.00    +0.000 A 
ENDBRANCH  17  22
ENDBRANCH  14  17
ENDBRANCH   1  14
TORSDOF 4
ENDMDL
MODEL 7
REMARK VINA RESULT:      -7.7      3.384      8.599
REMARK  Name = 
REMARK  7 active torsions:
REMARK  status: ('A' for Active; 'I' for Inactive)
REMARK    1  A    between atoms: C_1  and  C_2
REMARK    2  A    between atoms: C_5  and  O_6
REMARK    3  A    between atoms: O_6  and  S_7
REMARK    4  A    between atoms: S_7  and  C_10
REMARK    5  A    between atoms: C_13  and  N_14
REMARK    6  A    between atoms: N_17  and  C_18
REMARK    7  A    between atoms: C_23  and  C_24
REMARK                            x       y       z     vdW  Elec       q    Type
REMARK                         _______ _______ _______ _____ _____    ______ ____
ROOT
ATOM      1  C   UNL     1       1.208   9.087  19.963  0.00  0.00    +0.000 A 
ATOM      2  C   UNL     1       1.699   8.938  18.672  0.00  0.00    +0.000 A 
ATOM      3  C   UNL     1       2.328   7.735  18.312  0.00  0.00    +0.000 A 
ATOM      4  C   UNL     1       2.467   6.669  19.216  0.00  0.00    +0.000 A 
ATOM      5  C   UNL     1       1.948   6.847  20.510  0.00  0.00    +0.000 A 
ATOM      6  C   UNL     1       1.332   8.046  20.886  0.00  0.00    +0.000 A 
ENDROOT
BRANCH   4   7
ATOM      7  N   UNL     1       3.131   5.463  18.865  0.00  0.00    +0.000 N 
ATOM      8  C   UNL     1       4.532   5.386  18.502  0.00  0.00    +0.000 C 
ATOM      9  C   UNL     1       4.619   4.083  17.728  0.00  0.00    +0.000 C 
ATOM     10  N   UNL     1       3.574   3.295  18.323  0.00  0.00    +0.000 N 
ATOM     11  C   UNL     1       3.251   1.972  17.854  0.00  0.00    +0.000 C 
ATOM     12  C   UNL     1       2.580   4.153  18.849  0.00  0.00    +0.000 C 
ATOM     13  O   UNL     1       1.464   3.784  19.170  0.00  0.00    +0.000 OA
ENDBRANCH   4   7
BRANCH   1  14
ATOM     14  S   UNL     1       0.374  10.564  20.501  0.00  0.00    +0.000 S 
ATOM     15  O   UNL     1       1.405  11.402  21.086  0.00  0.00    +0.000 OA
ATOM     16  O   UNL     1      -0.746  10.086  21.295  0.00  0.00    +0.000 OA
BRANCH  14  17
ATOM     17  O   UNL     1      -0.202  11.296  19.158  0.00  0.00    +0.000 OA
BRANCH  17  22
ATOM     18  C   UNL     1      -5.741  11.013  17.819  0.00  0.00    +0.000 C 
ATOM     19  C   UNL     1      -4.281  11.077  18.156  0.00  0.00    +0.000 A 
ATOM     20  C   UNL     1      -3.387  10.140  17.638  0.00  0.00    +0.000 A 
ATOM     21  C   UNL     1      -2.030  10.204  17.960  0.00  0.00    +0.000 A 
ATOM     22  C   UNL     1      -1.535  11.197  18.816  0.00  0.00    +0.000 A 
ATOM     23  C   UNL     1      -2.421  12.162  19.325  0.00  0.00    +0.000 A 
ATOM     24  C   UNL     1      -1.984  13.276  20.235  0.00  0.00    +0.000 C 
ATOM     25  C   UNL     1      -3.789  12.085  18.993  0.00  0.00    +0.000 A 
ENDBRANCH  17  22
ENDBRANCH  14  17
ENDBRANCH   1  14
TORSDOF 4
ENDMDL
MODEL 8
REMARK VINA RESULT:      -7.7      2.340      3.654
REMARK  Name = 
REMARK  7 active torsions:
REMARK  status: ('A' for Active; 'I' for Inactive)
REMARK    1  A    between atoms: C_1  and  C_2
REMARK    2  A    between atoms: C_5  and  O_6
REMARK    3  A    between atoms: O_6  and  S_7
REMARK    4  A    between atoms: S_7  and  C_10
REMARK    5  A    between atoms: C_13  and  N_14
REMARK    6  A    between atoms: N_17  and  C_18
REMARK    7  A    between atoms: C_23  and  C_24
REMARK                            x       y       z     vdW  Elec       q    Type
REMARK                         _______ _______ _______ _____ _____    ______ ____
ROOT
ATOM      1  C   UNL     1       1.956   7.612  19.394  0.00  0.00    +0.000 A 
ATOM      2  C   UNL     1       1.454   8.195  20.551  0.00  0.00    +0.000 A 
ATOM      3  C   UNL     1       1.037   9.536  20.518  0.00  0.00    +0.000 A 
ATOM      4  C   UNL     1       1.102  10.306  19.345  0.00  0.00    +0.000 A 
ATOM      5  C   UNL     1       1.603   9.683  18.190  0.00  0.00    +0.000 A 
ATOM      6  C   UNL     1       2.035   8.352  18.213  0.00  0.00    +0.000 A 
ENDROOT
BRANCH   4   7
ATOM      7  N   UNL     1       0.711  11.672  19.317  0.00  0.00    +0.000 N 
ATOM      8  C   UNL     1       1.544  12.741  18.804  0.00  0.00    +0.000 C 
ATOM      9  C   UNL     1       0.959  13.980  19.458  0.00  0.00    +0.000 C 
ATOM     10  N   UNL     1      -0.422  13.623  19.626  0.00  0.00    +0.000 N 
ATOM     11  C   UNL     1      -1.366  14.499  20.272  0.00  0.00    +0.000 C 
ATOM     12  C   UNL     1      -0.536  12.216  19.725  0.00  0.00    +0.000 C 
ATOM     13  O   UNL     1      -1.530  11.641  20.133  0.00  0.00    +0.000 OA
ENDBRANCH   4   7
BRANCH   1  14
ATOM     14  S   UNL     1       2.483   5.913  19.335  0.00  0.00    +0.000 S 
ATOM     15  O   UNL     1       1.805   5.335  18.189  0.00  0.00    +0.000 OA
ATOM     16  O   UNL     1       2.252   5.410  20.679  0.00  0.00    +0.000 OA
BRANCH  14  17
ATOM     17  O   UNL     1       4.091   5.929  19.045  0.00  0.00    +0.000 OA
BRANCH  17  22
ATOM     18  C   UNL     1       6.152   4.178  14.019  0.00  0.00    +0.000 C 
ATOM     19  C   UNL     1       5.604   4.654  15.332  0.00  0.00    +0.000 A 
ATOM     20  C   UNL     1       5.346   6.007  15.551  0.00  0.00    +0.000 A 
ATOM     21  C   UNL     1       4.840   6.443  16.777  0.00  0.00    +0.000 A 
ATOM     22  C   UNL     1       4.592   5.540  17.818  0.00  0.00    +0.000 A 
ATOM     23  C   UNL     1       4.824   4.170  17.604  0.00  0.00    +0.000 A 
ATOM     24  C   UNL     1       4.570   3.123  18.652  0.00  0.00    +0.000 C 
ATOM     25  C   UNL     1       5.335   3.744  16.362  0.00  0.00    +0.000 A 
ENDBRANCH  17  22
ENDBRANCH  14  17
ENDBRANCH   1  14
TORSDOF 4
ENDMDL
MODEL 9
REMARK VINA RESULT:      -7.6      1.076      1.392
REMARK  Name = 
REMARK  7 active torsions:
REMARK  status: ('A' for Active; 'I' for Inactive)
REMARK    1  A    between atoms: C_1  and  C_2
REMARK    2  A    between atoms: C_5  and  O_6
REMARK    3  A    between atoms: O_6  and  S_7
REMARK    4  A    between atoms: S_7  and  C_10
REMARK    5  A    between atoms: C_13  and  N_14
REMARK    6  A    between atoms: N_17  and  C_18
REMARK    7  A    between atoms: C_23  and  C_24
REMARK                            x       y       z     vdW  Elec       q    Type
REMARK                         _______ _______ _______ _____ _____    ______ ____
ROOT
ATOM      1  C   UNL     1       2.690   4.893  18.977  0.00  0.00    +0.000 A 
ATOM      2  C   UNL     1       2.398   5.587  17.809  0.00  0.00    +0.000 A 
ATOM      3  C   UNL     1       1.998   6.931  17.891  0.00  0.00    +0.000 A 
ATOM      4  C   UNL     1       1.894   7.601  19.121  0.00  0.00    +0.000 A 
ATOM      5  C   UNL     1       2.208   6.876  20.282  0.00  0.00    +0.000 A 
ATOM      6  C   UNL     1       2.595   5.532  20.215  0.00  0.00    +0.000 A 
ENDROOT
BRANCH   4   7
ATOM      7  N   UNL     1       1.458   8.951  19.210  0.00  0.00    +0.000 N 
ATOM      8  C   UNL     1       1.724   9.956  18.200  0.00  0.00    +0.000 C 
ATOM      9  C   UNL     1       1.558  11.261  18.957  0.00  0.00    +0.000 C 
ATOM     10  N   UNL     1       0.592  10.918  19.964  0.00  0.00    +0.000 N 
ATOM     11  C   UNL     1       0.165  11.860  20.967  0.00  0.00    +0.000 C 
ATOM     12  C   UNL     1       0.673   9.533  20.241  0.00  0.00    +0.000 C 
ATOM     13  O   UNL     1       0.176   9.006  21.221  0.00  0.00    +0.000 OA
ENDBRANCH   4   7
BRANCH   1  14
ATOM     14  S   UNL     1       3.230   3.197  18.968  0.00  0.00    +0.000 S 
ATOM     15  O   UNL     1       2.220   2.471  18.219  0.00  0.00    +0.000 OA
ATOM     16  O   UNL     1       3.497   2.890  20.363  0.00  0.00    +0.000 OA
BRANCH  14  17
ATOM     17  O   UNL     1       4.636   3.154  18.136  0.00  0.00    +0.000 OA
BRANCH  17  22
ATOM     18  C   UNL     1       8.044   7.720  17.825  0.00  0.00    +0.000 C 
ATOM     19  C   UNL     1       7.145   6.523  17.925  0.00  0.00    +0.000 A 
ATOM     20  C   UNL     1       6.902   5.914  19.155  0.00  0.00    +0.000 A 
ATOM     21  C   UNL     1       6.068   4.797  19.240  0.00  0.00    +0.000 A 
ATOM     22  C   UNL     1       5.467   4.255  18.096  0.00  0.00    +0.000 A 
ATOM     23  C   UNL     1       5.684   4.874  16.853  0.00  0.00    +0.000 A 
ATOM     24  C   UNL     1       5.068   4.379  15.574  0.00  0.00    +0.000 C 
ATOM     25  C   UNL     1       6.529   6.000  16.782  0.00  0.00    +0.000 A 
ENDBRANCH  17  22
ENDBRANCH  14  17
ENDBRANCH   1  14
TORSDOF 4
ENDMDL
