MODEL 1
REMARK VINA RESULT:      -7.6      0.000      0.000
REMARK  Name = 
REMARK  6 active torsions:
REMARK  status: ('A' for Active; 'I' for Inactive)
REMARK    1  A    between atoms: C_1  and  C_2
REMARK    2  A    between atoms: C_2  and  N_3
REMARK    3  A    between atoms: C_6  and  C_7
REMARK    4  A    between atoms: C_7  and  C_8
REMARK    5  A    between atoms: N_10  and  C_11
REMARK    6  A    between atoms: C_11  and  C_12
REMARK                            x       y       z     vdW  Elec       q    Type
REMARK                         _______ _______ _______ _____ _____    ______ ____
ROOT
ATOM      1  C   UNL     1       3.623   6.914  17.684  0.00  0.00    +0.000 C 
ATOM      2  O   UNL     1       4.378   7.431  16.864  0.00  0.00    +0.000 OA
ATOM      3  N   UNL     1       2.512   7.544  18.191  0.00  0.00    +0.000 N 
ATOM      4  H   UNL     1       1.814   6.994  18.676  0.00  0.00    +0.000 HD
ENDROOT
BRANCH   1   5
ATOM      5  C   UNL     1       3.878   5.538  18.246  0.00  0.00    +0.000 C 
BRANCH   5   9
ATOM      6  N   UNL     1       2.056   2.539  19.430  0.00  0.00    +0.000 NA
ATOM      7  C   UNL     1       1.406   3.838  19.178  0.00  0.00    +0.000 C 
ATOM      8  C   UNL     1       1.654   4.341  17.756  0.00  0.00    +0.000 C 
ATOM      9  C   UNL     1       3.151   4.450  17.437  0.00  0.00    +0.000 C 
ATOM     10  C   UNL     1       3.777   3.075  17.694  0.00  0.00    +0.000 C 
ATOM     11  C   UNL     1       3.491   2.560  19.108  0.00  0.00    +0.000 C 
BRANCH   6  13
ATOM     12  C   UNL     1       1.969   3.260  21.846  0.00  0.00    +0.000 C 
ATOM     13  C   UNL     1       1.804   2.137  20.828  0.00  0.00    +0.000 C 
ENDBRANCH   6  13
ENDBRANCH   5   9
ENDBRANCH   1   5
BRANCH   3  14
ATOM     14  C   UNL     1       2.107   8.856  17.719  0.00  0.00    +0.000 C 
BRANCH  14  15
ATOM     15  C   UNL     1       1.356   9.691  18.768  0.00  0.00    +0.000 C 
ATOM     16  C   UNL     1      -0.011  10.172  18.289  0.00  0.00    +0.000 C 
ATOM     17  C   UNL     1      -0.579  11.130  19.326  0.00  0.00    +0.000 C 
ATOM     18  C   UNL     1      -0.386  10.581  20.709  0.00  0.00    +0.000 A 
ATOM     19  C   UNL     1      -1.070  11.162  21.786  0.00  0.00    +0.000 A 
ATOM     20  C   UNL     1      -0.911  10.656  23.075  0.00  0.00    +0.000 A 
ATOM     21  C   UNL     1      -0.073   9.564  23.298  0.00  0.00    +0.000 A 
ATOM     22  C   UNL     1       0.622   8.989  22.235  0.00  0.00    +0.000 A 
ATOM     23  C   UNL     1       0.484   9.511  20.949  0.00  0.00    +0.000 A 
ATOM     24  O   UNL     1       1.219   8.898  19.965  0.00  0.00    +0.000 OA
ENDBRANCH  14  15
ENDBRANCH   3  14
TORSDOF 5
ENDMDL
MODEL 2
REMARK VINA RESULT:      -7.5      5.491      8.944
REMARK  Name = 
REMARK  6 active torsions:
REMARK  status: ('A' for Active; 'I' for Inactive)
REMARK    1  A    between atoms: C_1  and  C_2
REMARK    2  A    between atoms: C_2  and  N_3
REMARK    3  A    between atoms: C_6  and  C_7
REMARK    4  A    between atoms: C_7  and  C_8
REMARK    5  A    between atoms: N_10  and  C_11
REMARK    6  A    between atoms: C_11  and  C_12
REMARK                            x       y       z     vdW  Elec       q    Type
REMARK                         _______ _______ _______ _____ _____    ______ ____
ROOT
ATOM      1  C   UNL     1       8.157   8.453  18.150  0.00  0.00    +0.000 C 
ATOM      2  O   UNL     1       8.726   7.741  18.972  0.00  0.00    +0.000 OA
ATOM      3  N   UNL     1       7.355   7.960  17.148  0.00  0.00    +0.000 N 
ATOM      4  H   UNL     1       6.740   8.593  16.655  0.00  0.00    +0.000 HD
ENDROOT
BRANCH   1   5
ATOM      5  C   UNL     1       8.324   9.952  18.140  0.00  0.00    +0.000 C 
BRANCH   5   9
ATOM      6  N   UNL     1       9.544  13.325  19.063  0.00  0.00    +0.000 NA
ATOM      7  C   UNL     1       8.870  12.417  20.010  0.00  0.00    +0.000 C 
ATOM      8  C   UNL     1       9.567  11.060  20.102  0.00  0.00    +0.000 C 
ATOM      9  C   UNL     1       9.680  10.376  18.733  0.00  0.00    +0.000 C 
ATOM     10  C   UNL     1      10.401  11.347  17.792  0.00  0.00    +0.000 C 
ATOM     11  C   UNL     1       9.720  12.718  17.735  0.00  0.00    +0.000 C 
BRANCH   6  13
ATOM     12  C   UNL     1       8.747  15.364  20.317  0.00  0.00    +0.000 C 
ATOM     13  C   UNL     1       8.796  14.597  19.000  0.00  0.00    +0.000 C 
ENDBRANCH   6  13
ENDBRANCH   5   9
ENDBRANCH   1   5
BRANCH   3  14
ATOM     14  C   UNL     1       7.061   6.541  17.048  0.00  0.00    +0.000 C 
BRANCH  14  15
ATOM     15  C   UNL     1       5.672   6.154  17.582  0.00  0.00    +0.000 C 
ATOM     16  C   UNL     1       4.575   7.131  17.168  0.00  0.00    +0.000 C 
ATOM     17  C   UNL     1       3.293   6.756  17.896  0.00  0.00    +0.000 C 
ATOM     18  C   UNL     1       3.075   5.273  17.845  0.00  0.00    +0.000 A 
ATOM     19  C   UNL     1       1.830   4.743  18.210  0.00  0.00    +0.000 A 
ATOM     20  C   UNL     1       1.607   3.368  18.158  0.00  0.00    +0.000 A 
ATOM     21  C   UNL     1       2.624   2.512  17.736  0.00  0.00    +0.000 A 
ATOM     22  C   UNL     1       3.871   3.029  17.385  0.00  0.00    +0.000 A 
ATOM     23  C   UNL     1       4.102   4.403  17.462  0.00  0.00    +0.000 A 
ATOM     24  O   UNL     1       5.363   4.824  17.118  0.00  0.00    +0.000 OA
ENDBRANCH  14  15
ENDBRANCH   3  14
TORSDOF 5
ENDMDL
MODEL 3
REMARK VINA RESULT:      -7.3      5.807      9.038
REMARK  Name = 
REMARK  6 active torsions:
REMARK  status: ('A' for Active; 'I' for Inactive)
REMARK    1  A    between atoms: C_1  and  C_2
REMARK    2  A    between atoms: C_2  and  N_3
REMARK    3  A    between atoms: C_6  and  C_7
REMARK    4  A    between atoms: C_7  and  C_8
REMARK    5  A    between atoms: N_10  and  C_11
REMARK    6  A    between atoms: C_11  and  C_12
REMARK                            x       y       z     vdW  Elec       q    Type
REMARK                         _______ _______ _______ _____ _____    ______ ____
ROOT
ATOM      1  C   UNL     1       8.370   8.591  18.249  0.00  0.00    +0.000 C 
ATOM      2  O   UNL     1       7.940   8.707  17.104  0.00  0.00    +0.000 OA
ATOM      3  N   UNL     1       8.339   7.411  18.953  0.00  0.00    +0.000 N 
ATOM      4  H   UNL     1       8.907   7.320  19.785  0.00  0.00    +0.000 HD
ENDROOT
BRANCH   1   5
ATOM      5  C   UNL     1       8.940   9.762  19.009  0.00  0.00    +0.000 C 
BRANCH   5   9
ATOM      6  N   UNL     1      10.308  13.125  19.744  0.00  0.00    +0.000 NA
ATOM      7  C   UNL     1      11.110  11.889  19.810  0.00  0.00    +0.000 C 
ATOM      8  C   UNL     1      11.073  11.108  18.496  0.00  0.00    +0.000 C 
ATOM      9  C   UNL     1       9.639  10.762  18.071  0.00  0.00    +0.000 C 
ATOM     10  C   UNL     1       8.853  12.075  17.998  0.00  0.00    +0.000 C 
ATOM     11  C   UNL     1       8.927  12.873  19.305  0.00  0.00    +0.000 C 
BRANCH   6  13
ATOM     12  C   UNL     1       9.233  13.426  22.007  0.00  0.00    +0.000 C 
ATOM     13  C   UNL     1      10.361  13.805  21.053  0.00  0.00    +0.000 C 
ENDBRANCH   6  13
ENDBRANCH   5   9
ENDBRANCH   1   5
BRANCH   3  14
ATOM     14  C   UNL     1       7.859   6.182  18.344  0.00  0.00    +0.000 C 
BRANCH  14  15
ATOM     15  C   UNL     1       6.345   5.964  18.496  0.00  0.00    +0.000 C 
ATOM     16  C   UNL     1       5.552   6.364  17.255  0.00  0.00    +0.000 C 
ATOM     17  C   UNL     1       4.068   6.279  17.579  0.00  0.00    +0.000 C 
ATOM     18  C   UNL     1       3.764   5.012  18.324  0.00  0.00    +0.000 A 
ATOM     19  C   UNL     1       2.433   4.604  18.480  0.00  0.00    +0.000 A 
ATOM     20  C   UNL     1       2.135   3.423  19.159  0.00  0.00    +0.000 A 
ATOM     21  C   UNL     1       3.163   2.640  19.681  0.00  0.00    +0.000 A 
ATOM     22  C   UNL     1       4.490   3.046  19.543  0.00  0.00    +0.000 A 
ATOM     23  C   UNL     1       4.787   4.241  18.887  0.00  0.00    +0.000 A 
ATOM     24  O   UNL     1       6.117   4.576  18.813  0.00  0.00    +0.000 OA
ENDBRANCH  14  15
ENDBRANCH   3  14
TORSDOF 5
ENDMDL
MODEL 4
REMARK VINA RESULT:      -7.2      2.205      3.682
REMARK  Name = 
REMARK  6 active torsions:
REMARK  status: ('A' for Active; 'I' for Inactive)
REMARK    1  A    between atoms: C_1  and  C_2
REMARK    2  A    between atoms: C_2  and  N_3
REMARK    3  A    between atoms: C_6  and  C_7
REMARK    4  A    between atoms: C_7  and  C_8
REMARK    5  A    between atoms: N_10  and  C_11
REMARK    6  A    between atoms: C_11  and  C_12
REMARK                            x       y       z     vdW  Elec       q    Type
REMARK                         _______ _______ _______ _____ _____    ______ ____
ROOT
ATOM      1  C   UNL     1       2.173   8.038  18.269  0.00  0.00    +0.000 C 
ATOM      2  O   UNL     1       2.597   8.775  17.382  0.00  0.00    +0.000 OA
ATOM      3  N   UNL     1       1.529   8.500  19.393  0.00  0.00    +0.000 N 
ATOM      4  H   UNL     1       1.008   7.847  19.963  0.00  0.00    +0.000 HD
ENDROOT
BRANCH   1   5
ATOM      5  C   UNL     1       2.363   6.543  18.223  0.00  0.00    +0.000 C 
BRANCH   5   9
ATOM      6  N   UNL     1       3.940   3.198  18.432  0.00  0.00    +0.000 NA
ATOM      7  C   UNL     1       3.613   3.865  17.157  0.00  0.00    +0.000 C 
ATOM      8  C   UNL     1       4.254   5.249  17.051  0.00  0.00    +0.000 C 
ATOM      9  C   UNL     1       3.854   6.160  18.220  0.00  0.00    +0.000 C 
ATOM     10  C   UNL     1       4.229   5.435  19.516  0.00  0.00    +0.000 C 
ATOM     11  C   UNL     1       3.617   4.032  19.599  0.00  0.00    +0.000 C 
BRANCH   6  13
ATOM     12  C   UNL     1       1.798   1.951  18.905  0.00  0.00    +0.000 C 
ATOM     13  C   UNL     1       3.261   1.888  18.478  0.00  0.00    +0.000 C 
ENDBRANCH   6  13
ENDBRANCH   5   9
ENDBRANCH   1   5
BRANCH   3  14
ATOM     14  C   UNL     1       1.232   9.911  19.565  0.00  0.00    +0.000 C 
BRANCH  14  15
ATOM     15  C   UNL     1      -0.244  10.269  19.325  0.00  0.00    +0.000 C 
ATOM     16  C   UNL     1      -0.599  11.686  19.769  0.00  0.00    +0.000 C 
ATOM     17  C   UNL     1      -2.105  11.866  19.655  0.00  0.00    +0.000 C 
ATOM     18  C   UNL     1      -2.604  11.308  18.355  0.00  0.00    +0.000 A 
ATOM     19  C   UNL     1      -3.904  11.609  17.925  0.00  0.00    +0.000 A 
ATOM     20  C   UNL     1      -4.378  11.108  16.714  0.00  0.00    +0.000 A 
ATOM     21  C   UNL     1      -3.558  10.308  15.920  0.00  0.00    +0.000 A 
ATOM     22  C   UNL     1      -2.269   9.992  16.346  0.00  0.00    +0.000 A 
ATOM     23  C   UNL     1      -1.802  10.471  17.570  0.00  0.00    +0.000 A 
ATOM     24  O   UNL     1      -0.529  10.095  17.922  0.00  0.00    +0.000 OA
ENDBRANCH  14  15
ENDBRANCH   3  14
TORSDOF 5
ENDMDL
MODEL 5
REMARK VINA RESULT:      -7.2      5.653      8.958
REMARK  Name = 
REMARK  6 active torsions:
REMARK  status: ('A' for Active; 'I' for Inactive)
REMARK    1  A    between atoms: C_1  and  C_2
REMARK    2  A    between atoms: C_2  and  N_3
REMARK    3  A    between atoms: C_6  and  C_7
REMARK    4  A    between atoms: C_7  and  C_8
REMARK    5  A    between atoms: N_10  and  C_11
REMARK    6  A    between atoms: C_11  and  C_12
REMARK                            x       y       z     vdW  Elec       q    Type
REMARK                         _______ _______ _______ _____ _____    ______ ____
ROOT
ATOM      1  C   UNL     1       8.193   8.566  18.107  0.00  0.00    +0.000 C 
ATOM      2  O   UNL     1       8.711   7.877  18.982  0.00  0.00    +0.000 OA
ATOM      3  N   UNL     1       7.379   8.055  17.124  0.00  0.00    +0.000 N 
ATOM      4  H   UNL     1       6.807   8.688  16.582  0.00  0.00    +0.000 HD
ENDROOT
BRANCH   1   5
ATOM      5  C   UNL     1       8.443  10.050  18.007  0.00  0.00    +0.000 C 
BRANCH   5   9
ATOM      6  N   UNL     1       9.717  13.425  18.847  0.00  0.00    +0.000 NA
ATOM      7  C   UNL     1       8.895  12.614  19.765  0.00  0.00    +0.000 C 
ATOM      8  C   UNL     1       9.508  11.239  20.026  0.00  0.00    +0.000 C 
ATOM      9  C   UNL     1       9.742  10.457  18.726  0.00  0.00    +0.000 C 
ATOM     10  C   UNL     1      10.614  11.328  17.816  0.00  0.00    +0.000 C 
ATOM     11  C   UNL     1      10.013  12.720  17.591  0.00  0.00    +0.000 C 
BRANCH   6  13
ATOM     12  C   UNL     1       9.886  15.736  17.849  0.00  0.00    +0.000 C 
ATOM     13  C   UNL     1       9.047  14.719  18.616  0.00  0.00    +0.000 C 
ENDBRANCH   6  13
ENDBRANCH   5   9
ENDBRANCH   1   5
BRANCH   3  14
ATOM     14  C   UNL     1       7.008   6.650  17.108  0.00  0.00    +0.000 C 
BRANCH  14  15
ATOM     15  C   UNL     1       5.706   6.343  17.866  0.00  0.00    +0.000 C 
ATOM     16  C   UNL     1       4.455   6.808  17.127  0.00  0.00    +0.000 C 
ATOM     17  C   UNL     1       3.254   6.619  18.041  0.00  0.00    +0.000 C 
ATOM     18  C   UNL     1       3.309   5.279  18.712  0.00  0.00    +0.000 A 
ATOM     19  C   UNL     1       2.177   4.790  19.378  0.00  0.00    +0.000 A 
ATOM     20  C   UNL     1       2.209   3.541  19.996  0.00  0.00    +0.000 A 
ATOM     21  C   UNL     1       3.369   2.769  19.950  0.00  0.00    +0.000 A 
ATOM     22  C   UNL     1       4.504   3.253  19.303  0.00  0.00    +0.000 A 
ATOM     23  C   UNL     1       4.482   4.514  18.706  0.00  0.00    +0.000 A 
ATOM     24  O   UNL     1       5.649   4.922  18.108  0.00  0.00    +0.000 OA
ENDBRANCH  14  15
ENDBRANCH   3  14
TORSDOF 5
ENDMDL
MODEL 6
REMARK VINA RESULT:      -7.1      0.842      1.033
REMARK  Name = 
REMARK  6 active torsions:
REMARK  status: ('A' for Active; 'I' for Inactive)
REMARK    1  A    between atoms: C_1  and  C_2
REMARK    2  A    between atoms: C_2  and  N_3
REMARK    3  A    between atoms: C_6  and  C_7
REMARK    4  A    between atoms: C_7  and  C_8
REMARK    5  A    between atoms: N_10  and  C_11
REMARK    6  A    between atoms: C_11  and  C_12
REMARK                            x       y       z     vdW  Elec       q    Type
REMARK                         _______ _______ _______ _____ _____    ______ ____
ROOT
ATOM      1  C   UNL     1       4.014   6.695  17.970  0.00  0.00    +0.000 C 
ATOM      2  O   UNL     1       4.575   7.108  16.959  0.00  0.00    +0.000 OA
ATOM      3  N   UNL     1       2.859   7.245  18.473  0.00  0.00    +0.000 N 
ATOM      4  H   UNL     1       2.327   6.728  19.160  0.00  0.00    +0.000 HD
ENDROOT
BRANCH   1   5
ATOM      5  C   UNL     1       4.574   5.556  18.785  0.00  0.00    +0.000 C 
BRANCH   5   9
ATOM      6  N   UNL     1       2.343   2.611  18.532  0.00  0.00    +0.000 NA
ATOM      7  C   UNL     1       2.261   3.773  17.628  0.00  0.00    +0.000 C 
ATOM      8  C   UNL     1       3.594   4.060  16.935  0.00  0.00    +0.000 C 
ATOM      9  C   UNL     1       4.731   4.278  17.943  0.00  0.00    +0.000 C 
ATOM     10  C   UNL     1       4.789   3.040  18.844  0.00  0.00    +0.000 C 
ATOM     11  C   UNL     1       3.440   2.735  19.504  0.00  0.00    +0.000 C 
BRANCH   6  13
ATOM     12  C   UNL     1       0.647   3.529  20.158  0.00  0.00    +0.000 C 
ATOM     13  C   UNL     1       1.036   2.418  19.188  0.00  0.00    +0.000 C 
ENDBRANCH   6  13
ENDBRANCH   5   9
ENDBRANCH   1   5
BRANCH   3  14
ATOM     14  C   UNL     1       2.173   8.321  17.779  0.00  0.00    +0.000 C 
BRANCH  14  15
ATOM     15  C   UNL     1       1.447   9.302  18.715  0.00  0.00    +0.000 C 
ATOM     16  C   UNL     1       0.126   9.812  18.146  0.00  0.00    +0.000 C 
ATOM     17  C   UNL     1      -0.408  10.902  19.063  0.00  0.00    +0.000 C 
ATOM     18  C   UNL     1      -0.287  10.486  20.500  0.00  0.00    +0.000 A 
ATOM     19  C   UNL     1      -0.960  11.213  21.490  0.00  0.00    +0.000 A 
ATOM     20  C   UNL     1      -0.868  10.832  22.828  0.00  0.00    +0.000 A 
ATOM     21  C   UNL     1      -0.106   9.721  23.186  0.00  0.00    +0.000 A 
ATOM     22  C   UNL     1       0.580   9.001  22.209  0.00  0.00    +0.000 A 
ATOM     23  C   UNL     1       0.508   9.396  20.873  0.00  0.00    +0.000 A 
ATOM     24  O   UNL     1       1.230   8.644  19.980  0.00  0.00    +0.000 OA
ENDBRANCH  14  15
ENDBRANCH   3  14
TORSDOF 5
ENDMDL
MODEL 7
REMARK VINA RESULT:      -7.1      2.570      3.998
REMARK  Name = 
REMARK  6 active torsions:
REMARK  status: ('A' for Active; 'I' for Inactive)
REMARK    1  A    between atoms: C_1  and  C_2
REMARK    2  A    between atoms: C_2  and  N_3
REMARK    3  A    between atoms: C_6  and  C_7
REMARK    4  A    between atoms: C_7  and  C_8
REMARK    5  A    between atoms: N_10  and  C_11
REMARK    6  A    between atoms: C_11  and  C_12
REMARK                            x       y       z     vdW  Elec       q    Type
REMARK                         _______ _______ _______ _____ _____    ______ ____
ROOT
ATOM      1  C   UNL     1       2.632   5.180  18.819  0.00  0.00    +0.000 C 
ATOM      2  O   UNL     1       1.595   4.525  18.767  0.00  0.00    +0.000 OA
ATOM      3  N   UNL     1       2.822   6.229  19.687  0.00  0.00    +0.000 N 
ATOM      4  H   UNL     1       3.760   6.574  19.843  0.00  0.00    +0.000 HD
ENDROOT
BRANCH   1   5
ATOM      5  C   UNL     1       3.791   4.915  17.891  0.00  0.00    +0.000 C 
BRANCH   5   9
ATOM      6  N   UNL     1       6.689   5.566  15.678  0.00  0.00    +0.000 NA
ATOM      7  C   UNL     1       5.356   6.161  15.468  0.00  0.00    +0.000 C 
ATOM      8  C   UNL     1       4.866   6.926  16.698  0.00  0.00    +0.000 C 
ATOM      9  C   UNL     1       4.837   6.042  17.952  0.00  0.00    +0.000 C 
ATOM     10  C   UNL     1       6.244   5.464  18.139  0.00  0.00    +0.000 C 
ATOM     11  C   UNL     1       6.746   4.733  16.889  0.00  0.00    +0.000 C 
BRANCH   6  13
ATOM     12  C   UNL     1       5.997   3.887  13.926  0.00  0.00    +0.000 C 
ATOM     13  C   UNL     1       7.078   4.817  14.467  0.00  0.00    +0.000 C 
ENDBRANCH   6  13
ENDBRANCH   5   9
ENDBRANCH   1   5
BRANCH   3  14
ATOM     14  C   UNL     1       1.815   6.583  20.673  0.00  0.00    +0.000 C 
BRANCH  14  15
ATOM     15  C   UNL     1       1.549   8.094  20.775  0.00  0.00    +0.000 C 
ATOM     16  C   UNL     1       1.258   8.746  19.427  0.00  0.00    +0.000 C 
ATOM     17  C   UNL     1       1.193  10.253  19.622  0.00  0.00    +0.000 C 
ATOM     18  C   UNL     1       0.386  10.591  20.841  0.00  0.00    +0.000 A 
ATOM     19  C   UNL     1      -0.029  11.913  21.054  0.00  0.00    +0.000 A 
ATOM     20  C   UNL     1      -0.788  12.240  22.175  0.00  0.00    +0.000 A 
ATOM     21  C   UNL     1      -1.143  11.250  23.091  0.00  0.00    +0.000 A 
ATOM     22  C   UNL     1      -0.723   9.936  22.895  0.00  0.00    +0.000 A 
ATOM     23  C   UNL     1       0.059   9.612  21.787  0.00  0.00    +0.000 A 
ATOM     24  O   UNL     1       0.447   8.299  21.682  0.00  0.00    +0.000 OA
ENDBRANCH  14  15
ENDBRANCH   3  14
TORSDOF 5
ENDMDL
MODEL 8
REMARK VINA RESULT:      -7.1      2.382      3.876
REMARK  Name = 
REMARK  6 active torsions:
REMARK  status: ('A' for Active; 'I' for Inactive)
REMARK    1  A    between atoms: C_1  and  C_2
REMARK    2  A    between atoms: C_2  and  N_3
REMARK    3  A    between atoms: C_6  and  C_7
REMARK    4  A    between atoms: C_7  and  C_8
REMARK    5  A    between atoms: N_10  and  C_11
REMARK    6  A    between atoms: C_11  and  C_12
REMARK                            x       y       z     vdW  Elec       q    Type
REMARK                         _______ _______ _______ _____ _____    ______ ____
ROOT
ATOM      1  C   UNL     1       2.043   8.286  18.241  0.00  0.00    +0.000 C 
ATOM      2  O   UNL     1       2.406   8.965  17.284  0.00  0.00    +0.000 OA
ATOM      3  N   UNL     1       1.426   8.812  19.351  0.00  0.00    +0.000 N 
ATOM      4  H   UNL     1       0.950   8.189  19.990  0.00  0.00    +0.000 HD
ENDROOT
BRANCH   1   5
ATOM      5  C   UNL     1       2.284   6.798  18.301  0.00  0.00    +0.000 C 
BRANCH   5   9
ATOM      6  N   UNL     1       2.576   3.437  19.829  0.00  0.00    +0.000 NA
ATOM      7  C   UNL     1       3.612   4.029  18.963  0.00  0.00    +0.000 C 
ATOM      8  C   UNL     1       4.087   5.388  19.478  0.00  0.00    +0.000 C 
ATOM      9  C   UNL     1       2.926   6.381  19.636  0.00  0.00    +0.000 C 
ATOM     10  C   UNL     1       1.888   5.731  20.556  0.00  0.00    +0.000 C 
ATOM     11  C   UNL     1       1.447   4.351  20.055  0.00  0.00    +0.000 C 
BRANCH   6  13
ATOM     12  C   UNL     1       0.711   2.141  18.730  0.00  0.00    +0.000 C 
ATOM     13  C   UNL     1       2.144   2.149  19.252  0.00  0.00    +0.000 C 
ENDBRANCH   6  13
ENDBRANCH   5   9
ENDBRANCH   1   5
BRANCH   3  14
ATOM     14  C   UNL     1       1.086  10.222  19.427  0.00  0.00    +0.000 C 
BRANCH  14  15
ATOM     15  C   UNL     1      -0.409  10.513  19.213  0.00  0.00    +0.000 C 
ATOM     16  C   UNL     1      -0.832  11.889  19.719  0.00  0.00    +0.000 C 
ATOM     17  C   UNL     1      -2.346  11.996  19.624  0.00  0.00    +0.000 C 
ATOM     18  C   UNL     1      -2.829  11.468  18.305  0.00  0.00    +0.000 A 
ATOM     19  C   UNL     1      -4.147  11.719  17.899  0.00  0.00    +0.000 A 
ATOM     20  C   UNL     1      -4.607  11.245  16.671  0.00  0.00    +0.000 A 
ATOM     21  C   UNL     1      -3.754  10.523  15.838  0.00  0.00    +0.000 A 
ATOM     22  C   UNL     1      -2.446  10.256  16.241  0.00  0.00    +0.000 A 
ATOM     23  C   UNL     1      -1.993  10.707  17.480  0.00  0.00    +0.000 A 
ATOM     24  O   UNL     1      -0.699  10.383  17.806  0.00  0.00    +0.000 OA
ENDBRANCH  14  15
ENDBRANCH   3  14
TORSDOF 5
ENDMDL
MODEL 9
REMARK VINA RESULT:      -7.1      1.036      1.754
REMARK  Name = 
REMARK  6 active torsions:
REMARK  status: ('A' for Active; 'I' for Inactive)
REMARK    1  A    between atoms: C_1  and  C_2
REMARK    2  A    between atoms: C_2  and  N_3
REMARK    3  A    between atoms: C_6  and  C_7
REMARK    4  A    between atoms: C_7  and  C_8
REMARK    5  A    between atoms: N_10  and  C_11
REMARK    6  A    between atoms: C_11  and  C_12
REMARK                            x       y       z     vdW  Elec       q    Type
REMARK                         _______ _______ _______ _____ _____    ______ ____
ROOT
ATOM      1  C   UNL     1       3.457   6.977  18.133  0.00  0.00    +0.000 C 
ATOM      2  O   UNL     1       3.788   7.495  17.070  0.00  0.00    +0.000 OA
ATOM      3  N   UNL     1       2.551   7.541  19.000  0.00  0.00    +0.000 N 
ATOM      4  H   UNL     1       2.150   6.970  19.732  0.00  0.00    +0.000 HD
ENDROOT
BRANCH   1   5
ATOM      5  C   UNL     1       4.057   5.678  18.609  0.00  0.00    +0.000 C 
BRANCH   5   9
ATOM      6  N   UNL     1       2.005   2.706  19.432  0.00  0.00    +0.000 NA
ATOM      7  C   UNL     1       1.445   3.952  18.875  0.00  0.00    +0.000 C 
ATOM      8  C   UNL     1       2.118   4.349  17.561  0.00  0.00    +0.000 C 
ATOM      9  C   UNL     1       3.638   4.497  17.715  0.00  0.00    +0.000 C 
ATOM     10  C   UNL     1       4.174   3.176  18.276  0.00  0.00    +0.000 C 
ATOM     11  C   UNL     1       3.467   2.764  19.572  0.00  0.00    +0.000 C 
BRANCH   6  13
ATOM     12  C   UNL     1       2.072   2.918  21.946  0.00  0.00    +0.000 C 
ATOM     13  C   UNL     1       1.334   2.407  20.713  0.00  0.00    +0.000 C 
ENDBRANCH   6  13
ENDBRANCH   5   9
ENDBRANCH   1   5
BRANCH   3  14
ATOM     14  C   UNL     1       1.853   8.770  18.666  0.00  0.00    +0.000 C 
BRANCH  14  15
ATOM     15  C   UNL     1       0.873   9.244  19.751  0.00  0.00    +0.000 C 
ATOM     16  C   UNL     1       0.994   8.460  21.055  0.00  0.00    +0.000 C 
ATOM     17  C   UNL     1      -0.133   8.886  21.983  0.00  0.00    +0.000 C 
ATOM     18  C   UNL     1      -0.279  10.379  21.982  0.00  0.00    +0.000 A 
ATOM     19  C   UNL     1      -1.066  10.999  22.963  0.00  0.00    +0.000 A 
ATOM     20  C   UNL     1      -1.201  12.386  22.983  0.00  0.00    +0.000 A 
ATOM     21  C   UNL     1      -0.550  13.165  22.028  0.00  0.00    +0.000 A 
ATOM     22  C   UNL     1       0.223  12.556  21.040  0.00  0.00    +0.000 A 
ATOM     23  C   UNL     1       0.339  11.166  21.003  0.00  0.00    +0.000 A 
ATOM     24  O   UNL     1       1.101  10.649  19.986  0.00  0.00    +0.000 OA
ENDBRANCH  14  15
ENDBRANCH   3  14
TORSDOF 5
ENDMDL
