MODEL 1
REMARK VINA RESULT:      -7.7      0.000      0.000
REMARK  Name = 
REMARK  6 active torsions:
REMARK  status: ('A' for Active; 'I' for Inactive)
REMARK    1  A    between atoms: C_5  and  C_6
REMARK    2  A    between atoms: C_9  and  O_10
REMARK    3  A    between atoms: O_10  and  C_11
REMARK    4  A    between atoms: C_11  and  C_12
REMARK    5  A    between atoms: C_12  and  C_13
REMARK    6  A    between atoms: C_13  and  N_14
REMARK                            x       y       z     vdW  Elec       q    Type
REMARK                         _______ _______ _______ _____ _____    ______ ____
ROOT
ATOM      1  C   UNL     1       4.888   5.132  18.143  0.00  0.00    +0.000 A 
ATOM      2  C   UNL     1       4.933   6.187  17.230  0.00  0.00    +0.000 A 
ATOM      3  C   UNL     1       6.048   7.017  17.174  0.00  0.00    +0.000 A 
ATOM      4  C   UNL     1       7.119   6.819  18.046  0.00  0.00    +0.000 A 
ATOM      5  C   UNL     1       7.063   5.784  18.981  0.00  0.00    +0.000 A 
ATOM      6  C   UNL     1       5.946   4.941  19.037  0.00  0.00    +0.000 A 
ENDROOT
BRANCH   1  11
ATOM      7  O   UNL     1       0.406   2.042  18.544  0.00  0.00    +0.000 OA
ATOM      8  C   UNL     1       1.413   2.728  18.400  0.00  0.00    +0.000 A 
ATOM      9  C   UNL     1       1.312   4.107  17.888  0.00  0.00    +0.000 A 
ATOM     10  C   UNL     1       2.410   4.847  17.757  0.00  0.00    +0.000 A 
ATOM     11  C   UNL     1       3.698   4.243  18.188  0.00  0.00    +0.000 A 
ATOM     12  N   UNL     1       3.825   3.019  18.593  0.00  0.00    +0.000 NA
ATOM     13  N   UNL     1       2.676   2.277  18.671  0.00  0.00    +0.000 N 
ATOM     14  H   UNL     1       2.773   1.332  19.023  0.00  0.00    +0.000 HD
ENDBRANCH   1  11
BRANCH   4  15
ATOM     15  O   UNL     1       8.256   7.585  18.068  0.00  0.00    +0.000 OA
BRANCH  15  16
ATOM     16  C   UNL     1       8.045   8.982  17.862  0.00  0.00    +0.000 C 
BRANCH  16  17
ATOM     17  C   UNL     1       8.973   9.799  18.746  0.00  0.00    +0.000 C 
BRANCH  17  18
ATOM     18  C   UNL     1       9.196  11.209  18.194  0.00  0.00    +0.000 C 
BRANCH  18  19
ATOM     19  N   UNL     1      10.623  11.505  18.012  0.00  0.00    +0.000 NA
ATOM     20  C   UNL     1      11.405  11.542  19.266  0.00  0.00    +0.000 C 
ATOM     21  C   UNL     1      11.195  12.810  20.108  0.00  0.00    +0.000 C 
ATOM     22  O   UNL     1      11.453  13.994  19.346  0.00  0.00    +0.000 OA
ATOM     23  C   UNL     1      10.622  14.034  18.179  0.00  0.00    +0.000 C 
ATOM     24  C   UNL     1      10.821  12.787  17.300  0.00  0.00    +0.000 C 
ENDBRANCH  18  19
ENDBRANCH  17  18
ENDBRANCH  16  17
ENDBRANCH  15  16
ENDBRANCH   4  15
TORSDOF 6
ENDMDL
MODEL 2
REMARK VINA RESULT:      -7.6      0.989      1.434
REMARK  Name = 
REMARK  6 active torsions:
REMARK  status: ('A' for Active; 'I' for Inactive)
REMARK    1  A    between atoms: C_5  and  C_6
REMARK    2  A    between atoms: C_9  and  O_10
REMARK    3  A    between atoms: O_10  and  C_11
REMARK    4  A    between atoms: C_11  and  C_12
REMARK    5  A    between atoms: C_12  and  C_13
REMARK    6  A    between atoms: C_13  and  N_14
REMARK                            x       y       z     vdW  Elec       q    Type
REMARK                         _______ _______ _______ _____ _____    ______ ____
ROOT
ATOM      1  C   UNL     1       4.568   4.943  17.720  0.00  0.00    +0.000 A 
ATOM      2  C   UNL     1       4.454   5.972  16.782  0.00  0.00    +0.000 A 
ATOM      3  C   UNL     1       5.517   6.843  16.566  0.00  0.00    +0.000 A 
ATOM      4  C   UNL     1       6.697   6.712  17.300  0.00  0.00    +0.000 A 
ATOM      5  C   UNL     1       6.801   5.704  18.260  0.00  0.00    +0.000 A 
ATOM      6  C   UNL     1       5.737   4.820  18.477  0.00  0.00    +0.000 A 
ENDROOT
BRANCH   1  11
ATOM      7  O   UNL     1       0.397   1.598  18.818  0.00  0.00    +0.000 OA
ATOM      8  C   UNL     1       1.312   2.360  18.522  0.00  0.00    +0.000 A 
ATOM      9  C   UNL     1       1.116   3.820  18.574  0.00  0.00    +0.000 A 
ATOM     10  C   UNL     1       2.125   4.635  18.270  0.00  0.00    +0.000 A 
ATOM     11  C   UNL     1       3.432   4.011  17.936  0.00  0.00    +0.000 A 
ATOM     12  N   UNL     1       3.620   2.733  17.833  0.00  0.00    +0.000 NA
ATOM     13  N   UNL     1       2.545   1.931  18.110  0.00  0.00    +0.000 N 
ATOM     14  H   UNL     1       2.704   0.932  18.065  0.00  0.00    +0.000 HD
ENDBRANCH   1  11
BRANCH   4  15
ATOM     15  O   UNL     1       7.793   7.522  17.160  0.00  0.00    +0.000 OA
BRANCH  15  16
ATOM     16  C   UNL     1       8.288   8.082  18.377  0.00  0.00    +0.000 C 
BRANCH  16  17
ATOM     17  C   UNL     1       8.579   9.563  18.204  0.00  0.00    +0.000 C 
BRANCH  17  18
ATOM     18  C   UNL     1       9.316  10.147  19.412  0.00  0.00    +0.000 C 
BRANCH  18  19
ATOM     19  N   UNL     1       9.378  11.614  19.358  0.00  0.00    +0.000 NA
ATOM     20  C   UNL     1       9.681  12.164  18.020  0.00  0.00    +0.000 C 
ATOM     21  C   UNL     1      11.152  12.034  17.597  0.00  0.00    +0.000 C 
ATOM     22  O   UNL     1      12.029  12.618  18.567  0.00  0.00    +0.000 OA
ATOM     23  C   UNL     1      11.831  12.018  19.853  0.00  0.00    +0.000 C 
ATOM     24  C   UNL     1      10.370  12.147  20.318  0.00  0.00    +0.000 C 
ENDBRANCH  18  19
ENDBRANCH  17  18
ENDBRANCH  16  17
ENDBRANCH  15  16
ENDBRANCH   4  15
TORSDOF 6
ENDMDL
MODEL 3
REMARK VINA RESULT:      -7.5      0.594      1.169
REMARK  Name = 
REMARK  6 active torsions:
REMARK  status: ('A' for Active; 'I' for Inactive)
REMARK    1  A    between atoms: C_5  and  C_6
REMARK    2  A    between atoms: C_9  and  O_10
REMARK    3  A    between atoms: O_10  and  C_11
REMARK    4  A    between atoms: C_11  and  C_12
REMARK    5  A    between atoms: C_12  and  C_13
REMARK    6  A    between atoms: C_13  and  N_14
REMARK                            x       y       z     vdW  Elec       q    Type
REMARK                         _______ _______ _______ _____ _____    ______ ____
ROOT
ATOM      1  C   UNL     1       5.090   5.250  18.023  0.00  0.00    +0.000 A 
ATOM      2  C   UNL     1       6.214   5.047  18.825  0.00  0.00    +0.000 A 
ATOM      3  C   UNL     1       7.308   5.901  18.726  0.00  0.00    +0.000 A 
ATOM      4  C   UNL     1       7.302   6.953  17.809  0.00  0.00    +0.000 A 
ATOM      5  C   UNL     1       6.191   7.139  16.984  0.00  0.00    +0.000 A 
ATOM      6  C   UNL     1       5.084   6.286  17.084  0.00  0.00    +0.000 A 
ENDROOT
BRANCH   1  11
ATOM      7  O   UNL     1       0.702   2.076  18.707  0.00  0.00    +0.000 OA
ATOM      8  C   UNL     1       1.685   2.781  18.499  0.00  0.00    +0.000 A 
ATOM      9  C   UNL     1       1.524   4.160  18.002  0.00  0.00    +0.000 A 
ATOM     10  C   UNL     1       2.598   4.921  17.801  0.00  0.00    +0.000 A 
ATOM     11  C   UNL     1       3.922   4.340  18.143  0.00  0.00    +0.000 A 
ATOM     12  N   UNL     1       4.099   3.117  18.532  0.00  0.00    +0.000 NA
ATOM     13  N   UNL     1       2.972   2.352  18.683  0.00  0.00    +0.000 N 
ATOM     14  H   UNL     1       3.109   1.409  19.023  0.00  0.00    +0.000 HD
ENDBRANCH   1  11
BRANCH   4  15
ATOM     15  O   UNL     1       8.330   7.842  17.637  0.00  0.00    +0.000 OA
BRANCH  15  16
ATOM     16  C   UNL     1       8.000   9.205  17.908  0.00  0.00    +0.000 C 
BRANCH  16  17
ATOM     17  C   UNL     1       8.965   9.797  18.921  0.00  0.00    +0.000 C 
BRANCH  17  18
ATOM     18  C   UNL     1       9.600  11.096  18.416  0.00  0.00    +0.000 C 
BRANCH  18  19
ATOM     19  N   UNL     1      10.919  11.330  19.018  0.00  0.00    +0.000 NA
ATOM     20  C   UNL     1      10.877  11.902  20.381  0.00  0.00    +0.000 C 
ATOM     21  C   UNL     1      10.530  13.397  20.433  0.00  0.00    +0.000 C 
ATOM     22  O   UNL     1      11.416  14.169  19.615  0.00  0.00    +0.000 OA
ATOM     23  C   UNL     1      11.388  13.702  18.260  0.00  0.00    +0.000 C 
ATOM     24  C   UNL     1      11.751  12.210  18.169  0.00  0.00    +0.000 C 
ENDBRANCH  18  19
ENDBRANCH  17  18
ENDBRANCH  16  17
ENDBRANCH  15  16
ENDBRANCH   4  15
TORSDOF 6
ENDMDL
MODEL 4
REMARK VINA RESULT:      -7.5      1.032      1.336
REMARK  Name = 
REMARK  6 active torsions:
REMARK  status: ('A' for Active; 'I' for Inactive)
REMARK    1  A    between atoms: C_5  and  C_6
REMARK    2  A    between atoms: C_9  and  O_10
REMARK    3  A    between atoms: O_10  and  C_11
REMARK    4  A    between atoms: C_11  and  C_12
REMARK    5  A    between atoms: C_12  and  C_13
REMARK    6  A    between atoms: C_13  and  N_14
REMARK                            x       y       z     vdW  Elec       q    Type
REMARK                         _______ _______ _______ _____ _____    ______ ____
ROOT
ATOM      1  C   UNL     1       4.606   4.852  17.573  0.00  0.00    +0.000 A 
ATOM      2  C   UNL     1       5.867   4.278  17.402  0.00  0.00    +0.000 A 
ATOM      3  C   UNL     1       6.980   5.085  17.191  0.00  0.00    +0.000 A 
ATOM      4  C   UNL     1       6.844   6.472  17.124  0.00  0.00    +0.000 A 
ATOM      5  C   UNL     1       5.579   7.046  17.264  0.00  0.00    +0.000 A 
ATOM      6  C   UNL     1       4.456   6.239  17.483  0.00  0.00    +0.000 A 
ENDROOT
BRANCH   1  11
ATOM      7  O   UNL     1       0.287   1.725  18.744  0.00  0.00    +0.000 OA
ATOM      8  C   UNL     1       1.234   2.441  18.433  0.00  0.00    +0.000 A 
ATOM      9  C   UNL     1       1.134   3.907  18.551  0.00  0.00    +0.000 A 
ATOM     10  C   UNL     1       2.176   4.671  18.231  0.00  0.00    +0.000 A 
ATOM     11  C   UNL     1       3.424   3.983  17.809  0.00  0.00    +0.000 A 
ATOM     12  N   UNL     1       3.527   2.701  17.647  0.00  0.00    +0.000 NA
ATOM     13  N   UNL     1       2.417   1.955  17.944  0.00  0.00    +0.000 N 
ATOM     14  H   UNL     1       2.511   0.951  17.853  0.00  0.00    +0.000 HD
ENDBRANCH   1  11
BRANCH   4  15
ATOM     15  O   UNL     1       7.878   7.347  16.917  0.00  0.00    +0.000 OA
BRANCH  15  16
ATOM     16  C   UNL     1       8.324   8.041  18.084  0.00  0.00    +0.000 C 
BRANCH  16  17
ATOM     17  C   UNL     1       8.278   9.543  17.862  0.00  0.00    +0.000 C 
BRANCH  17  18
ATOM     18  C   UNL     1       9.144  10.298  18.874  0.00  0.00    +0.000 C 
BRANCH  18  19
ATOM     19  N   UNL     1       9.996  11.301  18.223  0.00  0.00    +0.000 NA
ATOM     20  C   UNL     1      11.250  11.601  18.947  0.00  0.00    +0.000 C 
ATOM     21  C   UNL     1      11.070  12.485  20.191  0.00  0.00    +0.000 C 
ATOM     22  O   UNL     1      10.395  13.706  19.872  0.00  0.00    +0.000 OA
ATOM     23  C   UNL     1       9.122  13.437  19.269  0.00  0.00    +0.000 C 
ATOM     24  C   UNL     1       9.267  12.570  18.007  0.00  0.00    +0.000 C 
ENDBRANCH  18  19
ENDBRANCH  17  18
ENDBRANCH  16  17
ENDBRANCH  15  16
ENDBRANCH   4  15
TORSDOF 6
ENDMDL
MODEL 5
REMARK VINA RESULT:      -7.5      0.719      1.618
REMARK  Name = 
REMARK  6 active torsions:
REMARK  status: ('A' for Active; 'I' for Inactive)
REMARK    1  A    between atoms: C_5  and  C_6
REMARK    2  A    between atoms: C_9  and  O_10
REMARK    3  A    between atoms: O_10  and  C_11
REMARK    4  A    between atoms: C_11  and  C_12
REMARK    5  A    between atoms: C_12  and  C_13
REMARK    6  A    between atoms: C_13  and  N_14
REMARK                            x       y       z     vdW  Elec       q    Type
REMARK                         _______ _______ _______ _____ _____    ______ ____
ROOT
ATOM      1  C   UNL     1       4.911   5.156  18.051  0.00  0.00    +0.000 A 
ATOM      2  C   UNL     1       5.985   4.857  18.892  0.00  0.00    +0.000 A 
ATOM      3  C   UNL     1       7.128   5.651  18.875  0.00  0.00    +0.000 A 
ATOM      4  C   UNL     1       7.221   6.736  18.003  0.00  0.00    +0.000 A 
ATOM      5  C   UNL     1       6.160   7.017  17.140  0.00  0.00    +0.000 A 
ATOM      6  C   UNL     1       5.005   6.226  17.157  0.00  0.00    +0.000 A 
ENDROOT
BRANCH   1  11
ATOM      7  O   UNL     1       0.412   2.094  18.477  0.00  0.00    +0.000 OA
ATOM      8  C   UNL     1       1.406   2.799  18.332  0.00  0.00    +0.000 A 
ATOM      9  C   UNL     1       1.322   4.258  18.521  0.00  0.00    +0.000 A 
ATOM     10  C   UNL     1       2.413   5.008  18.381  0.00  0.00    +0.000 A 
ATOM     11  C   UNL     1       3.690   4.309  18.083  0.00  0.00    +0.000 A 
ATOM     12  N   UNL     1       3.786   3.036  17.862  0.00  0.00    +0.000 NA
ATOM     13  N   UNL     1       2.631   2.307  17.971  0.00  0.00    +0.000 N 
ATOM     14  H   UNL     1       2.714   1.307  17.835  0.00  0.00    +0.000 HD
ENDBRANCH   1  11
BRANCH   4  15
ATOM     15  O   UNL     1       8.304   7.571  17.913  0.00  0.00    +0.000 OA
BRANCH  15  16
ATOM     16  C   UNL     1       7.988   8.963  17.855  0.00  0.00    +0.000 C 
BRANCH  16  17
ATOM     17  C   UNL     1       8.910   9.758  18.765  0.00  0.00    +0.000 C 
BRANCH  17  18
ATOM     18  C   UNL     1       9.183  11.161  18.218  0.00  0.00    +0.000 C 
BRANCH  18  19
ATOM     19  N   UNL     1       9.259  12.161  19.292  0.00  0.00    +0.000 NA
ATOM     20  C   UNL     1       9.636  13.517  18.839  0.00  0.00    +0.000 C 
ATOM     21  C   UNL     1      11.126  13.685  18.507  0.00  0.00    +0.000 C 
ATOM     22  O   UNL     1      11.955  13.298  19.608  0.00  0.00    +0.000 OA
ATOM     23  C   UNL     1      11.684  11.944  19.993  0.00  0.00    +0.000 C 
ATOM     24  C   UNL     1      10.202  11.744  20.352  0.00  0.00    +0.000 C 
ENDBRANCH  18  19
ENDBRANCH  17  18
ENDBRANCH  16  17
ENDBRANCH  15  16
ENDBRANCH   4  15
TORSDOF 6
ENDMDL
MODEL 6
REMARK VINA RESULT:      -7.5      1.435      1.745
REMARK  Name = 
REMARK  6 active torsions:
REMARK  status: ('A' for Active; 'I' for Inactive)
REMARK    1  A    between atoms: C_5  and  C_6
REMARK    2  A    between atoms: C_9  and  O_10
REMARK    3  A    between atoms: O_10  and  C_11
REMARK    4  A    between atoms: C_11  and  C_12
REMARK    5  A    between atoms: C_12  and  C_13
REMARK    6  A    between atoms: C_13  and  N_14
REMARK                            x       y       z     vdW  Elec       q    Type
REMARK                         _______ _______ _______ _____ _____    ______ ____
ROOT
ATOM      1  C   UNL     1       4.937   5.382  18.917  0.00  0.00    +0.000 A 
ATOM      2  C   UNL     1       6.268   5.235  19.311  0.00  0.00    +0.000 A 
ATOM      3  C   UNL     1       7.263   6.002  18.715  0.00  0.00    +0.000 A 
ATOM      4  C   UNL     1       6.945   6.908  17.703  0.00  0.00    +0.000 A 
ATOM      5  C   UNL     1       5.618   7.035  17.286  0.00  0.00    +0.000 A 
ATOM      6  C   UNL     1       4.611   6.270  17.887  0.00  0.00    +0.000 A 
ENDROOT
BRANCH   1  11
ATOM      7  O   UNL     1       1.114   2.529  21.572  0.00  0.00    +0.000 OA
ATOM      8  C   UNL     1       1.941   3.169  20.930  0.00  0.00    +0.000 A 
ATOM      9  C   UNL     1       1.743   4.608  20.680  0.00  0.00    +0.000 A 
ATOM     10  C   UNL     1       2.659   5.296  20.001  0.00  0.00    +0.000 A 
ATOM     11  C   UNL     1       3.879   4.566  19.567  0.00  0.00    +0.000 A 
ATOM     12  N   UNL     1       4.058   3.293  19.727  0.00  0.00    +0.000 NA
ATOM     13  N   UNL     1       3.070   2.613  20.391  0.00  0.00    +0.000 N 
ATOM     14  H   UNL     1       3.229   1.626  20.548  0.00  0.00    +0.000 HD
ENDBRANCH   1  11
BRANCH   4  15
ATOM     15  O   UNL     1       7.854   7.704  17.057  0.00  0.00    +0.000 OA
BRANCH  15  16
ATOM     16  C   UNL     1       7.930   9.047  17.538  0.00  0.00    +0.000 C 
BRANCH  16  17
ATOM     17  C   UNL     1       8.899   9.143  18.704  0.00  0.00    +0.000 C 
BRANCH  17  18
ATOM     18  C   UNL     1       9.152  10.595  19.119  0.00  0.00    +0.000 C 
BRANCH  18  19
ATOM     19  N   UNL     1       9.962  11.314  18.126  0.00  0.00    +0.000 NA
ATOM     20  C   UNL     1      11.349  11.594  18.556  0.00  0.00    +0.000 C 
ATOM     21  C   UNL     1      11.481  12.740  19.570  0.00  0.00    +0.000 C 
ATOM     22  O   UNL     1      10.876  13.943  19.082  0.00  0.00    +0.000 OA
ATOM     23  C   UNL     1       9.496  13.721  18.764  0.00  0.00    +0.000 C 
ATOM     24  C   UNL     1       9.328  12.591  17.734  0.00  0.00    +0.000 C 
ENDBRANCH  18  19
ENDBRANCH  17  18
ENDBRANCH  16  17
ENDBRANCH  15  16
ENDBRANCH   4  15
TORSDOF 6
ENDMDL
MODEL 7
REMARK VINA RESULT:      -7.5      1.147      1.879
REMARK  Name = 
REMARK  6 active torsions:
REMARK  status: ('A' for Active; 'I' for Inactive)
REMARK    1  A    between atoms: C_5  and  C_6
REMARK    2  A    between atoms: C_9  and  O_10
REMARK    3  A    between atoms: O_10  and  C_11
REMARK    4  A    between atoms: C_11  and  C_12
REMARK    5  A    between atoms: C_12  and  C_13
REMARK    6  A    between atoms: C_13  and  N_14
REMARK                            x       y       z     vdW  Elec       q    Type
REMARK                         _______ _______ _______ _____ _____    ______ ____
ROOT
ATOM      1  C   UNL     1       4.562   5.197  17.967  0.00  0.00    +0.000 A 
ATOM      2  C   UNL     1       5.676   5.167  18.807  0.00  0.00    +0.000 A 
ATOM      3  C   UNL     1       6.755   6.012  18.570  0.00  0.00    +0.000 A 
ATOM      4  C   UNL     1       6.744   6.880  17.477  0.00  0.00    +0.000 A 
ATOM      5  C   UNL     1       5.644   6.890  16.617  0.00  0.00    +0.000 A 
ATOM      6  C   UNL     1       4.553   6.045  16.855  0.00  0.00    +0.000 A 
ENDROOT
BRANCH   1  11
ATOM      7  O   UNL     1       0.236   1.940  18.655  0.00  0.00    +0.000 OA
ATOM      8  C   UNL     1       1.237   2.640  18.535  0.00  0.00    +0.000 A 
ATOM      9  C   UNL     1       2.351   2.209  17.671  0.00  0.00    +0.000 A 
ATOM     10  C   UNL     1       3.422   2.988  17.533  0.00  0.00    +0.000 A 
ATOM     11  C   UNL     1       3.410   4.298  18.234  0.00  0.00    +0.000 A 
ATOM     12  N   UNL     1       2.469   4.681  19.039  0.00  0.00    +0.000 NA
ATOM     13  N   UNL     1       1.406   3.830  19.189  0.00  0.00    +0.000 N 
ATOM     14  H   UNL     1       0.655   4.148  19.789  0.00  0.00    +0.000 HD
ENDBRANCH   1  11
BRANCH   4  15
ATOM     15  O   UNL     1       7.759   7.745  17.161  0.00  0.00    +0.000 OA
BRANCH  15  16
ATOM     16  C   UNL     1       8.450   8.299  18.281  0.00  0.00    +0.000 C 
BRANCH  16  17
ATOM     17  C   UNL     1       8.589   9.804  18.134  0.00  0.00    +0.000 C 
BRANCH  17  18
ATOM     18  C   UNL     1       9.379  10.423  19.291  0.00  0.00    +0.000 C 
BRANCH  18  19
ATOM     19  N   UNL     1       9.359  11.891  19.242  0.00  0.00    +0.000 NA
ATOM     20  C   UNL     1       9.589  12.461  17.898  0.00  0.00    +0.000 C 
ATOM     21  C   UNL     1      11.051  12.413  17.428  0.00  0.00    +0.000 C 
ATOM     22  O   UNL     1      11.926  13.040  18.372  0.00  0.00    +0.000 OA
ATOM     23  C   UNL     1      11.801  12.426  19.661  0.00  0.00    +0.000 C 
ATOM     24  C   UNL     1      10.351  12.474  20.172  0.00  0.00    +0.000 C 
ENDBRANCH  18  19
ENDBRANCH  17  18
ENDBRANCH  16  17
ENDBRANCH  15  16
ENDBRANCH   4  15
TORSDOF 6
ENDMDL
MODEL 8
REMARK VINA RESULT:      -7.5      1.714      2.196
REMARK  Name = 
REMARK  6 active torsions:
REMARK  status: ('A' for Active; 'I' for Inactive)
REMARK    1  A    between atoms: C_5  and  C_6
REMARK    2  A    between atoms: C_9  and  O_10
REMARK    3  A    between atoms: O_10  and  C_11
REMARK    4  A    between atoms: C_11  and  C_12
REMARK    5  A    between atoms: C_12  and  C_13
REMARK    6  A    between atoms: C_13  and  N_14
REMARK                            x       y       z     vdW  Elec       q    Type
REMARK                         _______ _______ _______ _____ _____    ______ ____
ROOT
ATOM      1  C   UNL     1       4.561   5.211  18.999  0.00  0.00    +0.000 A 
ATOM      2  C   UNL     1       5.933   5.130  19.243  0.00  0.00    +0.000 A 
ATOM      3  C   UNL     1       6.821   5.918  18.518  0.00  0.00    +0.000 A 
ATOM      4  C   UNL     1       6.352   6.778  17.525  0.00  0.00    +0.000 A 
ATOM      5  C   UNL     1       4.982   6.839  17.258  0.00  0.00    +0.000 A 
ATOM      6  C   UNL     1       4.083   6.052  17.989  0.00  0.00    +0.000 A 
ENDROOT
BRANCH   1  11
ATOM      7  O   UNL     1       1.159   2.317  22.137  0.00  0.00    +0.000 OA
ATOM      8  C   UNL     1       1.890   2.958  21.388  0.00  0.00    +0.000 A 
ATOM      9  C   UNL     1       1.531   4.330  20.986  0.00  0.00    +0.000 A 
ATOM     10  C   UNL     1       2.345   5.022  20.191  0.00  0.00    +0.000 A 
ATOM     11  C   UNL     1       3.619   4.374  19.786  0.00  0.00    +0.000 A 
ATOM     12  N   UNL     1       3.938   3.153  20.081  0.00  0.00    +0.000 NA
ATOM     13  N   UNL     1       3.052   2.460  20.863  0.00  0.00    +0.000 N 
ATOM     14  H   UNL     1       3.321   1.519  21.124  0.00  0.00    +0.000 HD
ENDBRANCH   1  11
BRANCH   4  15
ATOM     15  O   UNL     1       7.147   7.589  16.758  0.00  0.00    +0.000 OA
BRANCH  15  16
ATOM     16  C   UNL     1       8.277   8.140  17.436  0.00  0.00    +0.000 C 
BRANCH  16  17
ATOM     17  C   UNL     1       8.004   9.575  17.852  0.00  0.00    +0.000 C 
BRANCH  17  18
ATOM     18  C   UNL     1       9.054  10.095  18.837  0.00  0.00    +0.000 C 
BRANCH  18  19
ATOM     19  N   UNL     1       9.400  11.499  18.577  0.00  0.00    +0.000 NA
ATOM     20  C   UNL     1      10.733  11.698  17.971  0.00  0.00    +0.000 C 
ATOM     21  C   UNL     1      11.907  11.536  18.949  0.00  0.00    +0.000 C 
ATOM     22  O   UNL     1      11.762  12.394  20.087  0.00  0.00    +0.000 OA
ATOM     23  C   UNL     1      10.522  12.138  20.758  0.00  0.00    +0.000 C 
ATOM     24  C   UNL     1       9.322  12.312  19.811  0.00  0.00    +0.000 C 
ENDBRANCH  18  19
ENDBRANCH  17  18
ENDBRANCH  16  17
ENDBRANCH  15  16
ENDBRANCH   4  15
TORSDOF 6
ENDMDL
MODEL 9
REMARK VINA RESULT:      -7.4      1.018      1.501
REMARK  Name = 
REMARK  6 active torsions:
REMARK  status: ('A' for Active; 'I' for Inactive)
REMARK    1  A    between atoms: C_5  and  C_6
REMARK    2  A    between atoms: C_9  and  O_10
REMARK    3  A    between atoms: O_10  and  C_11
REMARK    4  A    between atoms: C_11  and  C_12
REMARK    5  A    between atoms: C_12  and  C_13
REMARK    6  A    between atoms: C_13  and  N_14
REMARK                            x       y       z     vdW  Elec       q    Type
REMARK                         _______ _______ _______ _____ _____    ______ ____
ROOT
ATOM      1  C   UNL     1       4.604   5.229  18.015  0.00  0.00    +0.000 A 
ATOM      2  C   UNL     1       5.811   5.014  18.682  0.00  0.00    +0.000 A 
ATOM      3  C   UNL     1       6.906   5.835  18.429  0.00  0.00    +0.000 A 
ATOM      4  C   UNL     1       6.815   6.864  17.491  0.00  0.00    +0.000 A 
ATOM      5  C   UNL     1       5.618   7.061  16.800  0.00  0.00    +0.000 A 
ATOM      6  C   UNL     1       4.511   6.242  17.055  0.00  0.00    +0.000 A 
ENDROOT
BRANCH   1  11
ATOM      7  O   UNL     1       0.226   2.054  18.759  0.00  0.00    +0.000 OA
ATOM      8  C   UNL     1       1.238   2.736  18.628  0.00  0.00    +0.000 A 
ATOM      9  C   UNL     1       2.355   2.263  17.790  0.00  0.00    +0.000 A 
ATOM     10  C   UNL     1       3.438   3.023  17.639  0.00  0.00    +0.000 A 
ATOM     11  C   UNL     1       3.436   4.355  18.298  0.00  0.00    +0.000 A 
ATOM     12  N   UNL     1       2.493   4.776  19.080  0.00  0.00    +0.000 NA
ATOM     13  N   UNL     1       1.417   3.944  19.246  0.00  0.00    +0.000 N 
ATOM     14  H   UNL     1       0.664   4.291  19.827  0.00  0.00    +0.000 HD
ENDBRANCH   1  11
BRANCH   4  15
ATOM     15  O   UNL     1       7.837   7.719  17.174  0.00  0.00    +0.000 OA
BRANCH  15  16
ATOM     16  C   UNL     1       8.388   8.437  18.279  0.00  0.00    +0.000 C 
BRANCH  16  17
ATOM     17  C   UNL     1       8.418   9.928  17.986  0.00  0.00    +0.000 C 
BRANCH  17  18
ATOM     18  C   UNL     1       9.407  10.669  18.891  0.00  0.00    +0.000 C 
BRANCH  18  19
ATOM     19  N   UNL     1      10.347  11.489  18.116  0.00  0.00    +0.000 NA
ATOM     20  C   UNL     1      11.740  11.454  18.611  0.00  0.00    +0.000 C 
ATOM     21  C   UNL     1      11.984  12.281  19.882  0.00  0.00    +0.000 C 
ATOM     22  O   UNL     1      11.569  13.641  19.711  0.00  0.00    +0.000 OA
ATOM     23  C   UNL     1      10.186  13.703  19.339  0.00  0.00    +0.000 C 
ATOM     24  C   UNL     1       9.909  12.901  18.056  0.00  0.00    +0.000 C 
ENDBRANCH  18  19
ENDBRANCH  17  18
ENDBRANCH  16  17
ENDBRANCH  15  16
ENDBRANCH   4  15
TORSDOF 6
ENDMDL
