MODEL 1
REMARK VINA RESULT:      -8.5      0.000      0.000
REMARK  Name = 
REMARK  7 active torsions:
REMARK  status: ('A' for Active; 'I' for Inactive)
REMARK    1  A    between atoms: C_1  and  C_2
REMARK    2  A    between atoms: N_8  and  C_9
REMARK    3  A    between atoms: C_14  and  C_15
REMARK    4  A    between atoms: N_23  and  C_24
REMARK    5  A    between atoms: C_24  and  C_25
REMARK    6  A    between atoms: C_25  and  C_26
REMARK    7  A    between atoms: C_26  and  O_27
REMARK                            x       y       z     vdW  Elec       q    Type
REMARK                         _______ _______ _______ _____ _____    ______ ____
ROOT
ATOM      1  C   UNL     1       3.733   1.217  18.208  0.00  0.00    +0.000 C 
ATOM      2  C   UNL     1       3.230   2.624  18.094  0.00  0.00    +0.000 A 
ATOM      3  C   UNL     1       1.889   2.940  18.284  0.00  0.00    +0.000 A 
ATOM      4  C   UNL     1       1.471   4.277  18.225  0.00  0.00    +0.000 A 
ATOM      5  C   UNL     1       2.362   5.315  17.980  0.00  0.00    +0.000 A 
ATOM      6  N   UNL     1       1.913   6.569  17.985  0.00  0.00    +0.000 NA
ATOM      7  C   UNL     1       2.794   7.548  17.749  0.00  0.00    +0.000 A 
ATOM      8  N   UNL     1       2.347   8.870  17.730  0.00  0.00    +0.000 N 
ATOM      9  N   UNL     1       4.100   7.365  17.485  0.00  0.00    +0.000 NA
ATOM     10  C   UNL     1       4.546   6.090  17.509  0.00  0.00    +0.000 A 
ATOM     11  N   UNL     1       5.916   5.861  17.317  0.00  0.00    +0.000 N 
ATOM     12  C   UNL     1       3.702   5.005  17.757  0.00  0.00    +0.000 A 
ATOM     13  C   UNL     1       4.129   3.657  17.830  0.00  0.00    +0.000 A 
ATOM     14  H   UNL     1       3.148   9.476  17.629  0.00  0.00    +0.000 HD
ATOM     15  H   UNL     1       6.083   5.208  16.558  0.00  0.00    +0.000 HD
ENDROOT
BRANCH   8  16
ATOM     16  C   UNL     1       1.344   9.411  18.554  0.00  0.00    +0.000 A 
ATOM     17  C   UNL     1       0.490  10.343  17.967  0.00  0.00    +0.000 A 
ATOM     18  C   UNL     1      -0.518  10.953  18.701  0.00  0.00    +0.000 A 
ATOM     19  C   UNL     1      -0.588  10.723  20.079  0.00  0.00    +0.000 A 
ATOM     20  N   UNL     1      -1.500  11.334  20.897  0.00  0.00    +0.000 NA
ATOM     21  C   UNL     1      -1.110  11.182  22.144  0.00  0.00    +0.000 A 
ATOM     22  S   UNL     1       0.106  10.016  22.418  0.00  0.00    +0.000 S 
ATOM     23  C   UNL     1       0.333   9.881  20.701  0.00  0.00    +0.000 A 
ATOM     24  C   UNL     1       1.278   9.164  19.942  0.00  0.00    +0.000 A 
BRANCH  21  25
ATOM     25  C   UNL     1      -1.645  12.094  23.147  0.00  0.00    +0.000 C 
ATOM     26  N   UNL     1      -2.947  11.779  23.476  0.00  0.00    +0.000 N 
ATOM     27  O   UNL     1      -1.100  13.091  23.605  0.00  0.00    +0.000 OA
ATOM     28  H   UNL     1      -3.388  11.050  22.920  0.00  0.00    +0.000 HD
ATOM     29  H   UNL     1      -3.527  12.487  23.895  0.00  0.00    +0.000 HD
ENDBRANCH  21  25
ENDBRANCH   8  16
BRANCH  11  30
ATOM     30  C   UNL     1       6.865   6.960  17.415  0.00  0.00    +0.000 C 
BRANCH  30  31
ATOM     31  C   UNL     1       7.896   6.748  18.520  0.00  0.00    +0.000 C 
BRANCH  31  32
ATOM     32  C   UNL     1       7.807   5.392  19.206  0.00  0.00    +0.000 C 
BRANCH  32  33
ATOM     33  O   UNL     1       8.098   5.503  20.590  0.00  0.00    +0.000 OA
ATOM     34  H   UNL     1       8.929   6.016  20.647  0.00  0.00    +0.000 HD
ENDBRANCH  32  33
ENDBRANCH  31  32
ENDBRANCH  30  31
ENDBRANCH  11  30
TORSDOF 6
ENDMDL
MODEL 2
REMARK VINA RESULT:      -8.4      2.623      3.990
REMARK  Name = 
REMARK  7 active torsions:
REMARK  status: ('A' for Active; 'I' for Inactive)
REMARK    1  A    between atoms: C_1  and  C_2
REMARK    2  A    between atoms: N_8  and  C_9
REMARK    3  A    between atoms: C_14  and  C_15
REMARK    4  A    between atoms: N_23  and  C_24
REMARK    5  A    between atoms: C_24  and  C_25
REMARK    6  A    between atoms: C_25  and  C_26
REMARK    7  A    between atoms: C_26  and  O_27
REMARK                            x       y       z     vdW  Elec       q    Type
REMARK                         _______ _______ _______ _____ _____    ______ ____
ROOT
ATOM      1  C   UNL     1       6.282   3.790  14.332  0.00  0.00    +0.000 C 
ATOM      2  C   UNL     1       5.626   4.656  15.364  0.00  0.00    +0.000 A 
ATOM      3  C   UNL     1       5.499   6.030  15.195  0.00  0.00    +0.000 A 
ATOM      4  C   UNL     1       4.827   6.794  16.160  0.00  0.00    +0.000 A 
ATOM      5  C   UNL     1       4.274   6.219  17.297  0.00  0.00    +0.000 A 
ATOM      6  N   UNL     1       3.604   6.990  18.153  0.00  0.00    +0.000 NA
ATOM      7  C   UNL     1       3.080   6.408  19.239  0.00  0.00    +0.000 A 
ATOM      8  N   UNL     1       2.389   7.196  20.161  0.00  0.00    +0.000 N 
ATOM      9  N   UNL     1       3.194   5.104  19.546  0.00  0.00    +0.000 NA
ATOM     10  C   UNL     1       3.853   4.331  18.657  0.00  0.00    +0.000 A 
ATOM     11  N   UNL     1       3.926   2.952  18.901  0.00  0.00    +0.000 N 
ATOM     12  C   UNL     1       4.424   4.847  17.492  0.00  0.00    +0.000 A 
ATOM     13  C   UNL     1       5.090   4.072  16.512  0.00  0.00    +0.000 A 
ATOM     14  H   UNL     1       1.990   6.590  20.861  0.00  0.00    +0.000 HD
ATOM     15  H   UNL     1       4.886   2.622  18.900  0.00  0.00    +0.000 HD
ENDROOT
BRANCH   8  16
ATOM     16  C   UNL     1       1.574   8.300  19.853  0.00  0.00    +0.000 A 
ATOM     17  C   UNL     1       1.581   8.729  18.527  0.00  0.00    +0.000 A 
ATOM     18  C   UNL     1       0.828   9.825  18.126  0.00  0.00    +0.000 A 
ATOM     19  C   UNL     1       0.162  10.582  19.094  0.00  0.00    +0.000 A 
ATOM     20  N   UNL     1      -0.545  11.718  18.805  0.00  0.00    +0.000 NA
ATOM     21  C   UNL     1      -0.764  12.371  19.925  0.00  0.00    +0.000 A 
ATOM     22  S   UNL     1      -0.491  11.503  21.369  0.00  0.00    +0.000 S 
ATOM     23  C   UNL     1       0.239  10.229  20.441  0.00  0.00    +0.000 A 
ATOM     24  C   UNL     1       0.897   9.049  20.838  0.00  0.00    +0.000 A 
BRANCH  21  25
ATOM     25  C   UNL     1      -1.090  13.788  19.842  0.00  0.00    +0.000 C 
ATOM     26  N   UNL     1      -0.584  14.359  18.694  0.00  0.00    +0.000 N 
ATOM     27  O   UNL     1      -1.649  14.470  20.694  0.00  0.00    +0.000 OA
ATOM     28  H   UNL     1       0.023  13.770  18.128  0.00  0.00    +0.000 HD
ATOM     29  H   UNL     1      -0.456  15.357  18.663  0.00  0.00    +0.000 HD
ENDBRANCH  21  25
ENDBRANCH   8  16
BRANCH  11  30
ATOM     30  C   UNL     1       3.055   2.334  19.890  0.00  0.00    +0.000 C 
BRANCH  30  31
ATOM     31  C   UNL     1       1.724   1.879  19.297  0.00  0.00    +0.000 C 
BRANCH  31  32
ATOM     32  C   UNL     1       0.569   2.837  19.549  0.00  0.00    +0.000 C 
BRANCH  32  33
ATOM     33  O   UNL     1       0.827   3.658  20.677  0.00  0.00    +0.000 OA
ATOM     34  H   UNL     1      -0.034   4.060  20.915  0.00  0.00    +0.000 HD
ENDBRANCH  32  33
ENDBRANCH  31  32
ENDBRANCH  30  31
ENDBRANCH  11  30
TORSDOF 6
ENDMDL
MODEL 3
REMARK VINA RESULT:      -8.2      1.788      2.119
REMARK  Name = 
REMARK  7 active torsions:
REMARK  status: ('A' for Active; 'I' for Inactive)
REMARK    1  A    between atoms: C_1  and  C_2
REMARK    2  A    between atoms: N_8  and  C_9
REMARK    3  A    between atoms: C_14  and  C_15
REMARK    4  A    between atoms: N_23  and  C_24
REMARK    5  A    between atoms: C_24  and  C_25
REMARK    6  A    between atoms: C_25  and  C_26
REMARK    7  A    between atoms: C_26  and  O_27
REMARK                            x       y       z     vdW  Elec       q    Type
REMARK                         _______ _______ _______ _____ _____    ______ ____
ROOT
ATOM      1  C   UNL     1       4.695   1.410  20.527  0.00  0.00    +0.000 C 
ATOM      2  C   UNL     1       3.929   2.685  20.346  0.00  0.00    +0.000 A 
ATOM      3  C   UNL     1       2.783   2.963  21.083  0.00  0.00    +0.000 A 
ATOM      4  C   UNL     1       2.130   4.193  20.923  0.00  0.00    +0.000 A 
ATOM      5  C   UNL     1       2.592   5.161  20.040  0.00  0.00    +0.000 A 
ATOM      6  N   UNL     1       1.957   6.330  19.969  0.00  0.00    +0.000 NA
ATOM      7  C   UNL     1       2.427   7.244  19.112  0.00  0.00    +0.000 A 
ATOM      8  N   UNL     1       1.770   8.471  19.004  0.00  0.00    +0.000 N 
ATOM      9  N   UNL     1       3.483   7.069  18.298  0.00  0.00    +0.000 NA
ATOM     10  C   UNL     1       4.133   5.889  18.400  0.00  0.00    +0.000 A 
ATOM     11  N   UNL     1       5.287   5.696  17.626  0.00  0.00    +0.000 N 
ATOM     12  C   UNL     1       3.722   4.880  19.273  0.00  0.00    +0.000 A 
ATOM     13  C   UNL     1       4.391   3.644  19.444  0.00  0.00    +0.000 A 
ATOM     14  H   UNL     1       2.303   9.065  18.387  0.00  0.00    +0.000 HD
ATOM     15  H   UNL     1       5.220   4.857  17.059  0.00  0.00    +0.000 HD
ENDROOT
BRANCH   8  16
ATOM     16  C   UNL     1       1.159   9.173  20.058  0.00  0.00    +0.000 A 
ATOM     17  C   UNL     1       1.038   8.496  21.271  0.00  0.00    +0.000 A 
ATOM     18  C   UNL     1       0.429   9.093  22.366  0.00  0.00    +0.000 A 
ATOM     19  C   UNL     1      -0.187  10.337  22.205  0.00  0.00    +0.000 A 
ATOM     20  N   UNL     1      -0.874  10.971  23.206  0.00  0.00    +0.000 NA
ATOM     21  C   UNL     1      -1.602  11.928  22.672  0.00  0.00    +0.000 A 
ATOM     22  S   UNL     1      -1.222  12.358  21.065  0.00  0.00    +0.000 S 
ATOM     23  C   UNL     1      -0.174  10.976  20.965  0.00  0.00    +0.000 A 
ATOM     24  C   UNL     1       0.549  10.433  19.886  0.00  0.00    +0.000 A 
BRANCH  21  25
ATOM     25  C   UNL     1      -2.732  12.440  23.437  0.00  0.00    +0.000 C 
ATOM     26  N   UNL     1      -2.593  13.784  23.709  0.00  0.00    +0.000 N 
ATOM     27  O   UNL     1      -3.666  11.794  23.899  0.00  0.00    +0.000 OA
ATOM     28  H   UNL     1      -1.704  14.207  23.449  0.00  0.00    +0.000 HD
ATOM     29  H   UNL     1      -3.113  14.182  24.474  0.00  0.00    +0.000 HD
ENDBRANCH  21  25
ENDBRANCH   8  16
BRANCH  11  30
ATOM     30  C   UNL     1       5.942   6.828  16.990  0.00  0.00    +0.000 C 
BRANCH  30  31
ATOM     31  C   UNL     1       7.396   6.986  17.427  0.00  0.00    +0.000 C 
BRANCH  31  32
ATOM     32  C   UNL     1       7.752   6.230  18.699  0.00  0.00    +0.000 C 
BRANCH  32  33
ATOM     33  O   UNL     1       7.880   4.840  18.444  0.00  0.00    +0.000 OA
ATOM     34  H   UNL     1       8.517   4.506  19.109  0.00  0.00    +0.000 HD
ENDBRANCH  32  33
ENDBRANCH  31  32
ENDBRANCH  30  31
ENDBRANCH  11  30
TORSDOF 6
ENDMDL
MODEL 4
REMARK VINA RESULT:      -8.0      2.814      4.278
REMARK  Name = 
REMARK  7 active torsions:
REMARK  status: ('A' for Active; 'I' for Inactive)
REMARK    1  A    between atoms: C_1  and  C_2
REMARK    2  A    between atoms: N_8  and  C_9
REMARK    3  A    between atoms: C_14  and  C_15
REMARK    4  A    between atoms: N_23  and  C_24
REMARK    5  A    between atoms: C_24  and  C_25
REMARK    6  A    between atoms: C_25  and  C_26
REMARK    7  A    between atoms: C_26  and  O_27
REMARK                            x       y       z     vdW  Elec       q    Type
REMARK                         _______ _______ _______ _____ _____    ______ ____
ROOT
ATOM      1  C   UNL     1       6.227   4.084  13.957  0.00  0.00    +0.000 C 
ATOM      2  C   UNL     1       5.630   4.796  15.132  0.00  0.00    +0.000 A 
ATOM      3  C   UNL     1       5.497   6.180  15.161  0.00  0.00    +0.000 A 
ATOM      4  C   UNL     1       4.880   6.800  16.257  0.00  0.00    +0.000 A 
ATOM      5  C   UNL     1       4.389   6.072  17.333  0.00  0.00    +0.000 A 
ATOM      6  N   UNL     1       3.768   6.714  18.321  0.00  0.00    +0.000 NA
ATOM      7  C   UNL     1       3.304   5.985  19.344  0.00  0.00    +0.000 A 
ATOM      8  N   UNL     1       2.666   6.635  20.401  0.00  0.00    +0.000 N 
ATOM      9  N   UNL     1       3.431   4.652  19.462  0.00  0.00    +0.000 NA
ATOM     10  C   UNL     1       4.039   4.011  18.441  0.00  0.00    +0.000 A 
ATOM     11  N   UNL     1       4.122   2.613  18.488  0.00  0.00    +0.000 N 
ATOM     12  C   UNL     1       4.546   4.686  17.328  0.00  0.00    +0.000 A 
ATOM     13  C   UNL     1       5.156   4.057  16.216  0.00  0.00    +0.000 A 
ATOM     14  H   UNL     1       2.304   5.936  21.033  0.00  0.00    +0.000 HD
ATOM     15  H   UNL     1       5.080   2.291  18.390  0.00  0.00    +0.000 HD
ENDROOT
BRANCH   8  16
ATOM     16  C   UNL     1       1.837   7.766  20.293  0.00  0.00    +0.000 A 
ATOM     17  C   UNL     1       1.154   8.152  21.445  0.00  0.00    +0.000 A 
ATOM     18  C   UNL     1       0.294   9.242  21.436  0.00  0.00    +0.000 A 
ATOM     19  C   UNL     1       0.011   9.873  20.221  0.00  0.00    +0.000 A 
ATOM     20  N   UNL     1      -0.878  10.907  20.100  0.00  0.00    +0.000 NA
ATOM     21  C   UNL     1      -1.173  11.058  18.828  0.00  0.00    +0.000 A 
ATOM     22  S   UNL     1      -0.149  10.265  17.716  0.00  0.00    +0.000 S 
ATOM     23  C   UNL     1       0.600   9.424  19.039  0.00  0.00    +0.000 A 
ATOM     24  C   UNL     1       1.568   8.402  19.062  0.00  0.00    +0.000 A 
BRANCH  21  25
ATOM     25  C   UNL     1      -2.399  11.769  18.486  0.00  0.00    +0.000 C 
ATOM     26  N   UNL     1      -2.835  12.558  19.529  0.00  0.00    +0.000 N 
ATOM     27  O   UNL     1      -3.063  11.648  17.463  0.00  0.00    +0.000 OA
ATOM     28  H   UNL     1      -2.331  12.463  20.408  0.00  0.00    +0.000 HD
ATOM     29  H   UNL     1      -3.802  12.840  19.553  0.00  0.00    +0.000 HD
ENDBRANCH  21  25
ENDBRANCH   8  16
BRANCH  11  30
ATOM     30  C   UNL     1       3.305   1.860  19.428  0.00  0.00    +0.000 C 
BRANCH  30  31
ATOM     31  C   UNL     1       1.812   1.977  19.133  0.00  0.00    +0.000 C 
BRANCH  31  32
ATOM     32  C   UNL     1       1.002   2.613  20.254  0.00  0.00    +0.000 C 
BRANCH  32  33
ATOM     33  O   UNL     1       1.842   3.009  21.327  0.00  0.00    +0.000 OA
ATOM     34  H   UNL     1       1.261   3.472  21.963  0.00  0.00    +0.000 HD
ENDBRANCH  32  33
ENDBRANCH  31  32
ENDBRANCH  30  31
ENDBRANCH  11  30
TORSDOF 6
ENDMDL
MODEL 5
REMARK VINA RESULT:      -7.8      2.740      4.005
REMARK  Name = 
REMARK  7 active torsions:
REMARK  status: ('A' for Active; 'I' for Inactive)
REMARK    1  A    between atoms: C_1  and  C_2
REMARK    2  A    between atoms: N_8  and  C_9
REMARK    3  A    between atoms: C_14  and  C_15
REMARK    4  A    between atoms: N_23  and  C_24
REMARK    5  A    between atoms: C_24  and  C_25
REMARK    6  A    between atoms: C_25  and  C_26
REMARK    7  A    between atoms: C_26  and  O_27
REMARK                            x       y       z     vdW  Elec       q    Type
REMARK                         _______ _______ _______ _____ _____    ______ ____
ROOT
ATOM      1  C   UNL     1       5.941   3.657  15.161  0.00  0.00    +0.000 C 
ATOM      2  C   UNL     1       5.298   4.627  16.105  0.00  0.00    +0.000 A 
ATOM      3  C   UNL     1       5.242   5.989  15.831  0.00  0.00    +0.000 A 
ATOM      4  C   UNL     1       4.580   6.853  16.715  0.00  0.00    +0.000 A 
ATOM      5  C   UNL     1       3.968   6.391  17.873  0.00  0.00    +0.000 A 
ATOM      6  N   UNL     1       3.311   7.254  18.648  0.00  0.00    +0.000 NA
ATOM      7  C   UNL     1       2.729   6.779  19.756  0.00  0.00    +0.000 A 
ATOM      8  N   UNL     1       2.051   7.665  20.595  0.00  0.00    +0.000 N 
ATOM      9  N   UNL     1       2.771   5.498  20.162  0.00  0.00    +0.000 NA
ATOM     10  C   UNL     1       3.417   4.631  19.354  0.00  0.00    +0.000 A 
ATOM     11  N   UNL     1       3.417   3.272  19.700  0.00  0.00    +0.000 N 
ATOM     12  C   UNL     1       4.046   5.032  18.173  0.00  0.00    +0.000 A 
ATOM     13  C   UNL     1       4.702   4.156  17.274  0.00  0.00    +0.000 A 
ATOM     14  H   UNL     1       1.602   7.132  21.325  0.00  0.00    +0.000 HD
ATOM     15  H   UNL     1       4.360   2.899  19.755  0.00  0.00    +0.000 HD
ENDROOT
BRANCH   8  16
ATOM     16  C   UNL     1       1.298   8.778  20.180  0.00  0.00    +0.000 A 
ATOM     17  C   UNL     1       1.309   9.065  18.816  0.00  0.00    +0.000 A 
ATOM     18  C   UNL     1       0.617  10.157  18.310  0.00  0.00    +0.000 A 
ATOM     19  C   UNL     1       0.015  11.051  19.200  0.00  0.00    +0.000 A 
ATOM     20  N   UNL     1      -0.627  12.192  18.799  0.00  0.00    +0.000 NA
ATOM     21  C   UNL     1      -0.787  12.972  19.847  0.00  0.00    +0.000 A 
ATOM     22  S   UNL     1      -0.542  12.245  21.372  0.00  0.00    +0.000 S 
ATOM     23  C   UNL     1       0.094  10.838  20.576  0.00  0.00    +0.000 A 
ATOM     24  C   UNL     1       0.686   9.668  21.088  0.00  0.00    +0.000 A 
BRANCH  21  25
ATOM     25  C   UNL     1      -1.027  14.391  19.618  0.00  0.00    +0.000 C 
ATOM     26  N   UNL     1      -2.151  14.829  20.286  0.00  0.00    +0.000 N 
ATOM     27  O   UNL     1      -0.412  15.133  18.861  0.00  0.00    +0.000 OA
ATOM     28  H   UNL     1      -2.710  14.113  20.745  0.00  0.00    +0.000 HD
ATOM     29  H   UNL     1      -2.605  15.671  19.973  0.00  0.00    +0.000 HD
ENDBRANCH  21  25
ENDBRANCH   8  16
BRANCH  11  30
ATOM     30  C   UNL     1       2.489   2.770  20.703  0.00  0.00    +0.000 C 
BRANCH  30  31
ATOM     31  C   UNL     1       1.101   2.495  20.132  0.00  0.00    +0.000 C 
BRANCH  31  32
ATOM     32  C   UNL     1       1.039   2.494  18.612  0.00  0.00    +0.000 C 
BRANCH  32  33
ATOM     33  O   UNL     1       1.941   1.544  18.067  0.00  0.00    +0.000 OA
ATOM     34  H   UNL     1       1.763   1.530  17.105  0.00  0.00    +0.000 HD
ENDBRANCH  32  33
ENDBRANCH  31  32
ENDBRANCH  30  31
ENDBRANCH  11  30
TORSDOF 6
ENDMDL
MODEL 6
REMARK VINA RESULT:      -7.7      2.666      4.266
REMARK  Name = 
REMARK  7 active torsions:
REMARK  status: ('A' for Active; 'I' for Inactive)
REMARK    1  A    between atoms: C_1  and  C_2
REMARK    2  A    between atoms: N_8  and  C_9
REMARK    3  A    between atoms: C_14  and  C_15
REMARK    4  A    between atoms: N_23  and  C_24
REMARK    5  A    between atoms: C_24  and  C_25
REMARK    6  A    between atoms: C_25  and  C_26
REMARK    7  A    between atoms: C_26  and  O_27
REMARK                            x       y       z     vdW  Elec       q    Type
REMARK                         _______ _______ _______ _____ _____    ______ ____
ROOT
ATOM      1  C   UNL     1       6.156   4.545  14.238  0.00  0.00    +0.000 C 
ATOM      2  C   UNL     1       5.529   5.159  15.452  0.00  0.00    +0.000 A 
ATOM      3  C   UNL     1       5.761   6.484  15.807  0.00  0.00    +0.000 A 
ATOM      4  C   UNL     1       5.108   7.034  16.919  0.00  0.00    +0.000 A 
ATOM      5  C   UNL     1       4.223   6.293  17.692  0.00  0.00    +0.000 A 
ATOM      6  N   UNL     1       3.595   6.887  18.706  0.00  0.00    +0.000 NA
ATOM      7  C   UNL     1       2.746   6.149  19.432  0.00  0.00    +0.000 A 
ATOM      8  N   UNL     1       2.089   6.741  20.512  0.00  0.00    +0.000 N 
ATOM      9  N   UNL     1       2.490   4.844  19.230  0.00  0.00    +0.000 NA
ATOM     10  C   UNL     1       3.113   4.263  18.183  0.00  0.00    +0.000 A 
ATOM     11  N   UNL     1       2.814   2.925  17.889  0.00  0.00    +0.000 N 
ATOM     12  C   UNL     1       4.008   4.956  17.364  0.00  0.00    +0.000 A 
ATOM     13  C   UNL     1       4.655   4.402  16.233  0.00  0.00    +0.000 A 
ATOM     14  H   UNL     1       1.429   6.076  20.886  0.00  0.00    +0.000 HD
ATOM     15  H   UNL     1       3.652   2.352  17.857  0.00  0.00    +0.000 HD
ENDROOT
BRANCH   8  16
ATOM     16  C   UNL     1       1.630   8.069  20.568  0.00  0.00    +0.000 A 
ATOM     17  C   UNL     1       1.425   8.604  21.839  0.00  0.00    +0.000 A 
ATOM     18  C   UNL     1       0.951   9.899  22.001  0.00  0.00    +0.000 A 
ATOM     19  C   UNL     1       0.551  10.622  20.874  0.00  0.00    +0.000 A 
ATOM     20  N   UNL     1       0.006  11.876  20.940  0.00  0.00    +0.000 NA
ATOM     21  C   UNL     1      -0.562  12.146  19.784  0.00  0.00    +0.000 A 
ATOM     22  S   UNL     1      -0.152  11.119  18.484  0.00  0.00    +0.000 S 
ATOM     23  C   UNL     1       0.644  10.056  19.603  0.00  0.00    +0.000 A 
ATOM     24  C   UNL     1       1.239   8.792  19.422  0.00  0.00    +0.000 A 
BRANCH  21  25
ATOM     25  C   UNL     1      -1.571  13.197  19.743  0.00  0.00    +0.000 C 
ATOM     26  N   UNL     1      -1.093  14.335  19.127  0.00  0.00    +0.000 N 
ATOM     27  O   UNL     1      -2.682  13.176  20.259  0.00  0.00    +0.000 OA
ATOM     28  H   UNL     1      -0.104  14.337  18.890  0.00  0.00    +0.000 HD
ATOM     29  H   UNL     1      -1.549  15.214  19.309  0.00  0.00    +0.000 HD
ENDBRANCH  21  25
ENDBRANCH   8  16
BRANCH  11  30
ATOM     30  C   UNL     1       1.646   2.288  18.478  0.00  0.00    +0.000 C 
BRANCH  30  31
ATOM     31  C   UNL     1       1.922   1.732  19.873  0.00  0.00    +0.000 C 
BRANCH  31  32
ATOM     32  C   UNL     1       1.262   2.514  20.999  0.00  0.00    +0.000 C 
BRANCH  32  33
ATOM     33  O   UNL     1       0.379   3.498  20.485  0.00  0.00    +0.000 OA
ATOM     34  H   UNL     1       0.936   4.277  20.285  0.00  0.00    +0.000 HD
ENDBRANCH  32  33
ENDBRANCH  31  32
ENDBRANCH  30  31
ENDBRANCH  11  30
TORSDOF 6
ENDMDL
MODEL 7
REMARK VINA RESULT:      -7.6      2.764      4.248
REMARK  Name = 
REMARK  7 active torsions:
REMARK  status: ('A' for Active; 'I' for Inactive)
REMARK    1  A    between atoms: C_1  and  C_2
REMARK    2  A    between atoms: N_8  and  C_9
REMARK    3  A    between atoms: C_14  and  C_15
REMARK    4  A    between atoms: N_23  and  C_24
REMARK    5  A    between atoms: C_24  and  C_25
REMARK    6  A    between atoms: C_25  and  C_26
REMARK    7  A    between atoms: C_26  and  O_27
REMARK                            x       y       z     vdW  Elec       q    Type
REMARK                         _______ _______ _______ _____ _____    ______ ____
ROOT
ATOM      1  C   UNL     1       6.004   4.330  14.408  0.00  0.00    +0.000 C 
ATOM      2  C   UNL     1       5.375   5.117  15.517  0.00  0.00    +0.000 A 
ATOM      3  C   UNL     1       5.173   6.490  15.418  0.00  0.00    +0.000 A 
ATOM      4  C   UNL     1       4.529   7.177  16.456  0.00  0.00    +0.000 A 
ATOM      5  C   UNL     1       4.076   6.528  17.598  0.00  0.00    +0.000 A 
ATOM      6  N   UNL     1       3.426   7.227  18.527  0.00  0.00    +0.000 NA
ATOM      7  C   UNL     1       3.000   6.574  19.615  0.00  0.00    +0.000 A 
ATOM      8  N   UNL     1       2.333   7.287  20.613  0.00  0.00    +0.000 N 
ATOM      9  N   UNL     1       3.194   5.266  19.856  0.00  0.00    +0.000 NA
ATOM     10  C   UNL     1       3.831   4.564  18.894  0.00  0.00    +0.000 A 
ATOM     11  N   UNL     1       3.984   3.181  19.069  0.00  0.00    +0.000 N 
ATOM     12  C   UNL     1       4.302   5.158  17.720  0.00  0.00    +0.000 A 
ATOM     13  C   UNL     1       4.941   4.459  16.667  0.00  0.00    +0.000 A 
ATOM     14  H   UNL     1       2.008   6.632  21.308  0.00  0.00    +0.000 HD
ATOM     15  H   UNL     1       4.957   2.900  18.995  0.00  0.00    +0.000 HD
ENDROOT
BRANCH   8  16
ATOM     16  C   UNL     1       1.449   8.361  20.406  0.00  0.00    +0.000 A 
ATOM     17  C   UNL     1       0.940   8.978  21.547  0.00  0.00    +0.000 A 
ATOM     18  C   UNL     1       0.041  10.032  21.450  0.00  0.00    +0.000 A 
ATOM     19  C   UNL     1      -0.456  10.386  20.192  0.00  0.00    +0.000 A 
ATOM     20  N   UNL     1      -1.397  11.362  20.004  0.00  0.00    +0.000 NA
ATOM     21  C   UNL     1      -1.896  11.234  18.793  0.00  0.00    +0.000 A 
ATOM     22  S   UNL     1      -1.025  10.231  17.721  0.00  0.00    +0.000 S 
ATOM     23  C   UNL     1      -0.042   9.700  19.051  0.00  0.00    +0.000 A 
ATOM     24  C   UNL     1       0.962   8.715  19.130  0.00  0.00    +0.000 A 
BRANCH  21  25
ATOM     25  C   UNL     1      -3.190  11.844  18.514  0.00  0.00    +0.000 C 
ATOM     26  N   UNL     1      -3.499  11.785  17.172  0.00  0.00    +0.000 N 
ATOM     27  O   UNL     1      -3.913  12.439  19.305  0.00  0.00    +0.000 OA
ATOM     28  H   UNL     1      -2.767  11.440  16.555  0.00  0.00    +0.000 HD
ATOM     29  H   UNL     1      -4.181  12.428  16.802  0.00  0.00    +0.000 HD
ENDBRANCH  21  25
ENDBRANCH   8  16
BRANCH  11  30
ATOM     30  C   UNL     1       3.208   2.480  20.080  0.00  0.00    +0.000 C 
BRANCH  30  31
ATOM     31  C   UNL     1       1.941   1.845  19.512  0.00  0.00    +0.000 C 
BRANCH  31  32
ATOM     32  C   UNL     1       1.651   2.218  18.066  0.00  0.00    +0.000 C 
BRANCH  32  33
ATOM     33  O   UNL     1       1.125   3.533  17.977  0.00  0.00    +0.000 OA
ATOM     34  H   UNL     1       1.297   3.827  17.059  0.00  0.00    +0.000 HD
ENDBRANCH  32  33
ENDBRANCH  31  32
ENDBRANCH  30  31
ENDBRANCH  11  30
TORSDOF 6
ENDMDL
MODEL 8
REMARK VINA RESULT:      -7.6      3.231      8.924
REMARK  Name = 
REMARK  7 active torsions:
REMARK  status: ('A' for Active; 'I' for Inactive)
REMARK    1  A    between atoms: C_1  and  C_2
REMARK    2  A    between atoms: N_8  and  C_9
REMARK    3  A    between atoms: C_14  and  C_15
REMARK    4  A    between atoms: N_23  and  C_24
REMARK    5  A    between atoms: C_24  and  C_25
REMARK    6  A    between atoms: C_25  and  C_26
REMARK    7  A    between atoms: C_26  and  O_27
REMARK                            x       y       z     vdW  Elec       q    Type
REMARK                         _______ _______ _______ _____ _____    ______ ____
ROOT
ATOM      1  C   UNL     1      -3.087  12.404  23.125  0.00  0.00    +0.000 C 
ATOM      2  C   UNL     1      -1.980  11.822  22.301  0.00  0.00    +0.000 A 
ATOM      3  C   UNL     1      -0.874  11.212  22.884  0.00  0.00    +0.000 A 
ATOM      4  C   UNL     1       0.111  10.629  22.074  0.00  0.00    +0.000 A 
ATOM      5  C   UNL     1       0.021  10.638  20.687  0.00  0.00    +0.000 A 
ATOM      6  N   UNL     1       0.964  10.024  19.973  0.00  0.00    +0.000 NA
ATOM      7  C   UNL     1       0.850  10.047  18.640  0.00  0.00    +0.000 A 
ATOM      8  N   UNL     1       1.833   9.427  17.867  0.00  0.00    +0.000 N 
ATOM      9  N   UNL     1      -0.134  10.661  17.959  0.00  0.00    +0.000 NA
ATOM     10  C   UNL     1      -1.096  11.256  18.696  0.00  0.00    +0.000 A 
ATOM     11  N   UNL     1      -2.181  11.840  18.027  0.00  0.00    +0.000 N 
ATOM     12  C   UNL     1      -1.067  11.275  20.092  0.00  0.00    +0.000 A 
ATOM     13  C   UNL     1      -2.069  11.852  20.909  0.00  0.00    +0.000 A 
ATOM     14  H   UNL     1       1.547   9.462  16.900  0.00  0.00    +0.000 HD
ATOM     15  H   UNL     1      -2.302  12.814  18.289  0.00  0.00    +0.000 HD
ENDROOT
BRANCH   8  16
ATOM     16  C   UNL     1       2.519   8.245  18.200  0.00  0.00    +0.000 A 
ATOM     17  C   UNL     1       3.519   7.835  17.320  0.00  0.00    +0.000 A 
ATOM     18  C   UNL     1       4.238   6.669  17.548  0.00  0.00    +0.000 A 
ATOM     19  C   UNL     1       3.858   5.833  18.602  0.00  0.00    +0.000 A 
ATOM     20  N   UNL     1       4.459   4.630  18.860  0.00  0.00    +0.000 NA
ATOM     21  C   UNL     1       3.687   3.943  19.674  0.00  0.00    +0.000 A 
ATOM     22  S   UNL     1       2.445   4.818  20.452  0.00  0.00    +0.000 S 
ATOM     23  C   UNL     1       2.784   6.175  19.422  0.00  0.00    +0.000 A 
ATOM     24  C   UNL     1       2.133   7.414  19.273  0.00  0.00    +0.000 A 
BRANCH  21  25
ATOM     25  C   UNL     1       3.872   2.500  19.743  0.00  0.00    +0.000 C 
ATOM     26  N   UNL     1       3.230   1.856  18.705  0.00  0.00    +0.000 N 
ATOM     27  O   UNL     1       4.427   1.867  20.634  0.00  0.00    +0.000 OA
ATOM     28  H   UNL     1       2.641   2.435  18.112  0.00  0.00    +0.000 HD
ATOM     29  H   UNL     1       3.008   0.879  18.804  0.00  0.00    +0.000 HD
ENDBRANCH  21  25
ENDBRANCH   8  16
BRANCH  11  30
ATOM     30  C   UNL     1      -2.431  11.534  16.627  0.00  0.00    +0.000 C 
BRANCH  30  31
ATOM     31  C   UNL     1      -3.163  10.209  16.437  0.00  0.00    +0.000 C 
BRANCH  31  32
ATOM     32  C   UNL     1      -3.677   9.976  15.023  0.00  0.00    +0.000 C 
BRANCH  32  33
ATOM     33  O   UNL     1      -2.607   9.952  14.092  0.00  0.00    +0.000 OA
ATOM     34  H   UNL     1      -2.920   9.405  13.342  0.00  0.00    +0.000 HD
ENDBRANCH  32  33
ENDBRANCH  31  32
ENDBRANCH  30  31
ENDBRANCH  11  30
TORSDOF 6
ENDMDL
MODEL 9
REMARK VINA RESULT:      -7.5      3.057      4.411
REMARK  Name = 
REMARK  7 active torsions:
REMARK  status: ('A' for Active; 'I' for Inactive)
REMARK    1  A    between atoms: C_1  and  C_2
REMARK    2  A    between atoms: N_8  and  C_9
REMARK    3  A    between atoms: C_14  and  C_15
REMARK    4  A    between atoms: N_23  and  C_24
REMARK    5  A    between atoms: C_24  and  C_25
REMARK    6  A    between atoms: C_25  and  C_26
REMARK    7  A    between atoms: C_26  and  O_27
REMARK                            x       y       z     vdW  Elec       q    Type
REMARK                         _______ _______ _______ _____ _____    ______ ____
ROOT
ATOM      1  C   UNL     1       5.826   4.255  15.514  0.00  0.00    +0.000 C 
ATOM      2  C   UNL     1       5.075   5.191  16.411  0.00  0.00    +0.000 A 
ATOM      3  C   UNL     1       4.867   6.523  16.070  0.00  0.00    +0.000 A 
ATOM      4  C   UNL     1       4.109   7.350  16.912  0.00  0.00    +0.000 A 
ATOM      5  C   UNL     1       3.549   6.879  18.093  0.00  0.00    +0.000 A 
ATOM      6  N   UNL     1       2.797   7.700  18.826  0.00  0.00    +0.000 NA
ATOM      7  C   UNL     1       2.268   7.218  19.957  0.00  0.00    +0.000 A 
ATOM      8  N   UNL     1       1.491   8.062  20.753  0.00  0.00    +0.000 N 
ATOM      9  N   UNL     1       2.453   5.971  20.426  0.00  0.00    +0.000 NA
ATOM     10  C   UNL     1       3.195   5.143  19.660  0.00  0.00    +0.000 A 
ATOM     11  N   UNL     1       3.347   3.812  20.074  0.00  0.00    +0.000 N 
ATOM     12  C   UNL     1       3.778   5.554  18.460  0.00  0.00    +0.000 A 
ATOM     13  C   UNL     1       4.532   4.714  17.604  0.00  0.00    +0.000 A 
ATOM     14  H   UNL     1       1.104   7.518  21.510  0.00  0.00    +0.000 HD
ATOM     15  H   UNL     1       4.326   3.551  20.144  0.00  0.00    +0.000 HD
ENDROOT
BRANCH   8  16
ATOM     16  C   UNL     1       0.620   9.062  20.286  0.00  0.00    +0.000 A 
ATOM     17  C   UNL     1       0.222  10.024  21.212  0.00  0.00    +0.000 A 
ATOM     18  C   UNL     1      -0.655  11.040  20.856  0.00  0.00    +0.000 A 
ATOM     19  C   UNL     1      -1.246  11.014  19.589  0.00  0.00    +0.000 A 
ATOM     20  N   UNL     1      -2.175  11.929  19.174  0.00  0.00    +0.000 NA
ATOM     21  C   UNL     1      -2.775  11.460  18.102  0.00  0.00    +0.000 A 
ATOM     22  S   UNL     1      -2.021  10.133  17.336  0.00  0.00    +0.000 S 
ATOM     23  C   UNL     1      -0.944   9.990  18.691  0.00  0.00    +0.000 A 
ATOM     24  C   UNL     1       0.038   9.029  19.001  0.00  0.00    +0.000 A 
BRANCH  21  25
ATOM     25  C   UNL     1      -4.072  12.016  17.740  0.00  0.00    +0.000 C 
ATOM     26  N   UNL     1      -4.652  12.680  18.800  0.00  0.00    +0.000 N 
ATOM     27  O   UNL     1      -4.673  11.865  16.683  0.00  0.00    +0.000 OA
ATOM     28  H   UNL     1      -4.174  12.605  19.695  0.00  0.00    +0.000 HD
ATOM     29  H   UNL     1      -5.649  12.828  18.794  0.00  0.00    +0.000 HD
ENDBRANCH  21  25
ENDBRANCH   8  16
BRANCH  11  30
ATOM     30  C   UNL     1       2.479   3.259  21.102  0.00  0.00    +0.000 C 
BRANCH  30  31
ATOM     31  C   UNL     1       1.215   2.625  20.526  0.00  0.00    +0.000 C 
BRANCH  31  32
ATOM     32  C   UNL     1       1.260   2.402  19.021  0.00  0.00    +0.000 C 
BRANCH  32  33
ATOM     33  O   UNL     1       2.267   1.464  18.676  0.00  0.00    +0.000 OA
ATOM     34  H   UNL     1       2.900   1.950  18.110  0.00  0.00    +0.000 HD
ENDBRANCH  32  33
ENDBRANCH  31  32
ENDBRANCH  30  31
ENDBRANCH  11  30
TORSDOF 6
ENDMDL
