MODEL 1
REMARK VINA RESULT:      -8.2      0.000      0.000
REMARK  Name = 
REMARK  3 active torsions:
REMARK  status: ('A' for Active; 'I' for Inactive)
REMARK    1  A    between atoms: C_1  and  C_2
REMARK    2  A    between atoms: C_6  and  C_8
REMARK    3  A    between atoms: C_15  and  C_16
REMARK                            x       y       z     vdW  Elec       q    Type
REMARK                         _______ _______ _______ _____ _____    ______ ____
ROOT
ATOM      1  C   UNL     1       3.816   2.074  19.552  0.00  0.00    +0.000 C 
ATOM      2  C   UNL     1       3.503   3.529  19.595  0.00  0.00    +0.000 A 
ATOM      3  S   UNL     1       2.373   4.134  20.757  0.00  0.00    +0.000 S 
ATOM      4  C   UNL     1       2.575   5.699  20.123  0.00  0.00    +0.000 A 
ATOM      5  N   UNL     1       1.787   6.667  20.679  0.00  0.00    +0.000 N 
ATOM      6  C   UNL     1       1.700   7.917  20.102  0.00  0.00    +0.000 C 
ATOM      7  O   UNL     1       2.223   8.275  19.054  0.00  0.00    +0.000 OA
ATOM      8  N   UNL     1       3.460   5.824  19.173  0.00  0.00    +0.000 NA
ATOM      9  C   UNL     1       3.991   4.592  18.844  0.00  0.00    +0.000 A 
ATOM     10  H   UNL     1       1.279   6.412  21.509  0.00  0.00    +0.000 HD
ENDROOT
BRANCH   6  11
ATOM     11  C   UNL     1       0.884   8.928  20.837  0.00  0.00    +0.000 A 
ATOM     12  C   UNL     1       0.780   8.779  22.229  0.00  0.00    +0.000 A 
ATOM     13  C   UNL     1       0.008   9.662  22.980  0.00  0.00    +0.000 A 
ATOM     14  C   UNL     1      -0.660  10.707  22.348  0.00  0.00    +0.000 A 
ATOM     15  C   UNL     1      -0.539  10.883  20.969  0.00  0.00    +0.000 A 
ATOM     16  C   UNL     1       0.237  10.000  20.211  0.00  0.00    +0.000 A 
ENDBRANCH   6  11
BRANCH   9  17
ATOM     17  C   UNL     1       4.983   4.520  17.776  0.00  0.00    +0.000 A 
ATOM     18  C   UNL     1       6.344   4.671  18.100  0.00  0.00    +0.000 A 
ATOM     19  C   UNL     1       7.320   4.665  17.099  0.00  0.00    +0.000 A 
ATOM     20  C   UNL     1       6.947   4.506  15.768  0.00  0.00    +0.000 A 
ATOM     21  C   UNL     1       5.601   4.368  15.435  0.00  0.00    +0.000 A 
ATOM     22  C   UNL     1       4.627   4.387  16.432  0.00  0.00    +0.000 A 
ENDBRANCH   9  17
TORSDOF 2
ENDMDL
MODEL 2
REMARK VINA RESULT:      -8.2      0.121      1.058
REMARK  Name = 
REMARK  3 active torsions:
REMARK  status: ('A' for Active; 'I' for Inactive)
REMARK    1  A    between atoms: C_1  and  C_2
REMARK    2  A    between atoms: C_6  and  C_8
REMARK    3  A    between atoms: C_15  and  C_16
REMARK                            x       y       z     vdW  Elec       q    Type
REMARK                         _______ _______ _______ _____ _____    ______ ____
ROOT
ATOM      1  C   UNL     1       3.788   2.161  19.437  0.00  0.00    +0.000 C 
ATOM      2  C   UNL     1       3.475   3.614  19.526  0.00  0.00    +0.000 A 
ATOM      3  S   UNL     1       2.329   4.178  20.692  0.00  0.00    +0.000 S 
ATOM      4  C   UNL     1       2.538   5.764  20.115  0.00  0.00    +0.000 A 
ATOM      5  N   UNL     1       1.742   6.712  20.694  0.00  0.00    +0.000 N 
ATOM      6  C   UNL     1       1.662   7.981  20.159  0.00  0.00    +0.000 C 
ATOM      7  O   UNL     1       2.199   8.375  19.130  0.00  0.00    +0.000 OA
ATOM      8  N   UNL     1       3.436   5.921  19.183  0.00  0.00    +0.000 NA
ATOM      9  C   UNL     1       3.972   4.702  18.819  0.00  0.00    +0.000 A 
ATOM     10  H   UNL     1       1.223   6.429  21.507  0.00  0.00    +0.000 HD
ENDROOT
BRANCH   6  11
ATOM     11  C   UNL     1       0.835   8.966  20.917  0.00  0.00    +0.000 A 
ATOM     12  C   UNL     1       0.780   8.818  22.312  0.00  0.00    +0.000 A 
ATOM     13  C   UNL     1       0.002   9.677  23.085  0.00  0.00    +0.000 A 
ATOM     14  C   UNL     1      -0.720  10.697  22.472  0.00  0.00    +0.000 A 
ATOM     15  C   UNL     1      -0.647  10.873  21.090  0.00  0.00    +0.000 A 
ATOM     16  C   UNL     1       0.134  10.014  20.309  0.00  0.00    +0.000 A 
ENDBRANCH   6  11
BRANCH   9  17
ATOM     17  C   UNL     1       4.978   4.667  17.762  0.00  0.00    +0.000 A 
ATOM     18  C   UNL     1       4.557   4.545  16.425  0.00  0.00    +0.000 A 
ATOM     19  C   UNL     1       5.492   4.452  15.390  0.00  0.00    +0.000 A 
ATOM     20  C   UNL     1       6.852   4.480  15.679  0.00  0.00    +0.000 A 
ATOM     21  C   UNL     1       7.280   4.588  17.000  0.00  0.00    +0.000 A 
ATOM     22  C   UNL     1       6.348   4.669  18.034  0.00  0.00    +0.000 A 
ENDBRANCH   9  17
TORSDOF 2
ENDMDL
MODEL 3
REMARK VINA RESULT:      -8.1      0.195      1.499
REMARK  Name = 
REMARK  3 active torsions:
REMARK  status: ('A' for Active; 'I' for Inactive)
REMARK    1  A    between atoms: C_1  and  C_2
REMARK    2  A    between atoms: C_6  and  C_8
REMARK    3  A    between atoms: C_15  and  C_16
REMARK                            x       y       z     vdW  Elec       q    Type
REMARK                         _______ _______ _______ _____ _____    ______ ____
ROOT
ATOM      1  C   UNL     1       3.913   2.236  19.637  0.00  0.00    +0.000 C 
ATOM      2  C   UNL     1       3.556   3.680  19.684  0.00  0.00    +0.000 A 
ATOM      3  S   UNL     1       2.420   4.249  20.857  0.00  0.00    +0.000 S 
ATOM      4  C   UNL     1       2.566   5.820  20.221  0.00  0.00    +0.000 A 
ATOM      5  N   UNL     1       1.754   6.763  20.786  0.00  0.00    +0.000 N 
ATOM      6  C   UNL     1       1.621   8.009  20.209  0.00  0.00    +0.000 C 
ATOM      7  O   UNL     1       2.121   8.383  19.155  0.00  0.00    +0.000 OA
ATOM      8  N   UNL     1       3.436   5.972  19.262  0.00  0.00    +0.000 NA
ATOM      9  C   UNL     1       4.002   4.757  18.928  0.00  0.00    +0.000 A 
ATOM     10  H   UNL     1       1.262   6.492  21.620  0.00  0.00    +0.000 HD
ENDROOT
BRANCH   6  11
ATOM     11  C   UNL     1       0.781   8.994  20.953  0.00  0.00    +0.000 A 
ATOM     12  C   UNL     1       0.247  10.065  20.218  0.00  0.00    +0.000 A 
ATOM     13  C   UNL     1      -0.518  11.044  20.848  0.00  0.00    +0.000 A 
ATOM     14  C   UNL     1      -0.763  10.957  22.215  0.00  0.00    +0.000 A 
ATOM     15  C   UNL     1      -0.264   9.881  22.949  0.00  0.00    +0.000 A 
ATOM     16  C   UNL     1       0.503   8.894  22.321  0.00  0.00    +0.000 A 
ENDBRANCH   6  11
BRANCH   9  17
ATOM     17  C   UNL     1       4.985   4.716  17.849  0.00  0.00    +0.000 A 
ATOM     18  C   UNL     1       4.538   4.527  16.528  0.00  0.00    +0.000 A 
ATOM     19  C   UNL     1       5.451   4.426  15.475  0.00  0.00    +0.000 A 
ATOM     20  C   UNL     1       6.816   4.514  15.730  0.00  0.00    +0.000 A 
ATOM     21  C   UNL     1       7.270   4.690  17.035  0.00  0.00    +0.000 A 
ATOM     22  C   UNL     1       6.360   4.777  18.087  0.00  0.00    +0.000 A 
ENDBRANCH   9  17
TORSDOF 2
ENDMDL
MODEL 4
REMARK VINA RESULT:      -8.1      0.172      1.053
REMARK  Name = 
REMARK  3 active torsions:
REMARK  status: ('A' for Active; 'I' for Inactive)
REMARK    1  A    between atoms: C_1  and  C_2
REMARK    2  A    between atoms: C_6  and  C_8
REMARK    3  A    between atoms: C_15  and  C_16
REMARK                            x       y       z     vdW  Elec       q    Type
REMARK                         _______ _______ _______ _____ _____    ______ ____
ROOT
ATOM      1  C   UNL     1       3.910   2.093  19.664  0.00  0.00    +0.000 C 
ATOM      2  C   UNL     1       3.568   3.541  19.696  0.00  0.00    +0.000 A 
ATOM      3  S   UNL     1       2.444   4.135  20.869  0.00  0.00    +0.000 S 
ATOM      4  C   UNL     1       2.603   5.697  20.214  0.00  0.00    +0.000 A 
ATOM      5  N   UNL     1       1.804   6.655  20.772  0.00  0.00    +0.000 N 
ATOM      6  C   UNL     1       1.681   7.896  20.182  0.00  0.00    +0.000 C 
ATOM      7  O   UNL     1       2.179   8.252  19.121  0.00  0.00    +0.000 OA
ATOM      8  N   UNL     1       3.470   5.829  19.249  0.00  0.00    +0.000 NA
ATOM      9  C   UNL     1       4.021   4.605  18.925  0.00  0.00    +0.000 A 
ATOM     10  H   UNL     1       1.314   6.399  21.612  0.00  0.00    +0.000 HD
ENDROOT
BRANCH   6  11
ATOM     11  C   UNL     1       0.855   8.898  20.918  0.00  0.00    +0.000 A 
ATOM     12  C   UNL     1       0.483  10.059  20.221  0.00  0.00    +0.000 A 
ATOM     13  C   UNL     1      -0.258  11.057  20.851  0.00  0.00    +0.000 A 
ATOM     14  C   UNL     1      -0.640  10.899  22.180  0.00  0.00    +0.000 A 
ATOM     15  C   UNL     1      -0.303   9.736  22.873  0.00  0.00    +0.000 A 
ATOM     16  C   UNL     1       0.439   8.730  22.244  0.00  0.00    +0.000 A 
ENDBRANCH   6  11
BRANCH   9  17
ATOM     17  C   UNL     1       4.997   4.541  17.842  0.00  0.00    +0.000 A 
ATOM     18  C   UNL     1       6.364   4.673  18.149  0.00  0.00    +0.000 A 
ATOM     19  C   UNL     1       7.325   4.674  17.134  0.00  0.00    +0.000 A 
ATOM     20  C   UNL     1       6.931   4.542  15.806  0.00  0.00    +0.000 A 
ATOM     21  C   UNL     1       5.580   4.423  15.490  0.00  0.00    +0.000 A 
ATOM     22  C   UNL     1       4.621   4.435  16.501  0.00  0.00    +0.000 A 
ENDBRANCH   9  17
TORSDOF 2
ENDMDL
MODEL 5
REMARK VINA RESULT:      -7.8      1.100      1.516
REMARK  Name = 
REMARK  3 active torsions:
REMARK  status: ('A' for Active; 'I' for Inactive)
REMARK    1  A    between atoms: C_1  and  C_2
REMARK    2  A    between atoms: C_6  and  C_8
REMARK    3  A    between atoms: C_15  and  C_16
REMARK                            x       y       z     vdW  Elec       q    Type
REMARK                         _______ _______ _______ _____ _____    ______ ____
ROOT
ATOM      1  C   UNL     1       3.600   2.703  19.437  0.00  0.00    +0.000 C 
ATOM      2  C   UNL     1       3.206   4.135  19.534  0.00  0.00    +0.000 A 
ATOM      3  S   UNL     1       2.262   4.680  20.877  0.00  0.00    +0.000 S 
ATOM      4  C   UNL     1       2.246   6.248  20.217  0.00  0.00    +0.000 A 
ATOM      5  N   UNL     1       1.508   7.170  20.903  0.00  0.00    +0.000 N 
ATOM      6  C   UNL     1       1.239   8.405  20.350  0.00  0.00    +0.000 C 
ATOM      7  O   UNL     1       1.543   8.782  19.225  0.00  0.00    +0.000 OA
ATOM      8  N   UNL     1       2.940   6.417  19.125  0.00  0.00    +0.000 NA
ATOM      9  C   UNL     1       3.483   5.218  18.708  0.00  0.00    +0.000 A 
ATOM     10  H   UNL     1       1.172   6.893  21.810  0.00  0.00    +0.000 HD
ENDROOT
BRANCH   6  11
ATOM     11  C   UNL     1       0.501   9.370  21.217  0.00  0.00    +0.000 A 
ATOM     12  C   UNL     1       0.454  10.708  20.791  0.00  0.00    +0.000 A 
ATOM     13  C   UNL     1      -0.186  11.674  21.564  0.00  0.00    +0.000 A 
ATOM     14  C   UNL     1      -0.792  11.311  22.763  0.00  0.00    +0.000 A 
ATOM     15  C   UNL     1      -0.778   9.980  23.180  0.00  0.00    +0.000 A 
ATOM     16  C   UNL     1      -0.139   9.005  22.407  0.00  0.00    +0.000 A 
ENDBRANCH   6  11
BRANCH   9  17
ATOM     17  C   UNL     1       4.274   5.197  17.481  0.00  0.00    +0.000 A 
ATOM     18  C   UNL     1       4.796   6.406  16.987  0.00  0.00    +0.000 A 
ATOM     19  C   UNL     1       5.510   6.436  15.786  0.00  0.00    +0.000 A 
ATOM     20  C   UNL     1       5.710   5.261  15.069  0.00  0.00    +0.000 A 
ATOM     21  C   UNL     1       5.187   4.060  15.542  0.00  0.00    +0.000 A 
ATOM     22  C   UNL     1       4.464   4.032  16.734  0.00  0.00    +0.000 A 
ENDBRANCH   9  17
TORSDOF 2
ENDMDL
MODEL 6
REMARK VINA RESULT:      -7.7      1.079      1.229
REMARK  Name = 
REMARK  3 active torsions:
REMARK  status: ('A' for Active; 'I' for Inactive)
REMARK    1  A    between atoms: C_1  and  C_2
REMARK    2  A    between atoms: C_6  and  C_8
REMARK    3  A    between atoms: C_15  and  C_16
REMARK                            x       y       z     vdW  Elec       q    Type
REMARK                         _______ _______ _______ _____ _____    ______ ____
ROOT
ATOM      1  C   UNL     1       3.578   2.718  19.287  0.00  0.00    +0.000 C 
ATOM      2  C   UNL     1       3.204   4.155  19.386  0.00  0.00    +0.000 A 
ATOM      3  S   UNL     1       2.292   4.716  20.744  0.00  0.00    +0.000 S 
ATOM      4  C   UNL     1       2.283   6.281  20.078  0.00  0.00    +0.000 A 
ATOM      5  N   UNL     1       1.569   7.215  20.775  0.00  0.00    +0.000 N 
ATOM      6  C   UNL     1       1.305   8.451  20.222  0.00  0.00    +0.000 C 
ATOM      7  O   UNL     1       1.593   8.821  19.090  0.00  0.00    +0.000 OA
ATOM      8  N   UNL     1       2.958   6.438  18.973  0.00  0.00    +0.000 NA
ATOM      9  C   UNL     1       3.479   5.231  18.551  0.00  0.00    +0.000 A 
ATOM     10  H   UNL     1       1.246   6.946  21.688  0.00  0.00    +0.000 HD
ENDROOT
BRANCH   6  11
ATOM     11  C   UNL     1       0.595   9.429  21.099  0.00  0.00    +0.000 A 
ATOM     12  C   UNL     1       0.132   8.959  22.338  0.00  0.00    +0.000 A 
ATOM     13  C   UNL     1      -0.570   9.802  23.197  0.00  0.00    +0.000 A 
ATOM     14  C   UNL     1      -0.806  11.124  22.829  0.00  0.00    +0.000 A 
ATOM     15  C   UNL     1      -0.323  11.609  21.614  0.00  0.00    +0.000 A 
ATOM     16  C   UNL     1       0.383  10.767  20.749  0.00  0.00    +0.000 A 
ENDBRANCH   6  11
BRANCH   9  17
ATOM     17  C   UNL     1       4.246   5.196  17.309  0.00  0.00    +0.000 A 
ATOM     18  C   UNL     1       4.563   3.948  16.740  0.00  0.00    +0.000 A 
ATOM     19  C   UNL     1       5.343   3.871  15.583  0.00  0.00    +0.000 A 
ATOM     20  C   UNL     1       5.812   5.036  14.984  0.00  0.00    +0.000 A 
ATOM     21  C   UNL     1       5.514   6.275  15.545  0.00  0.00    +0.000 A 
ATOM     22  C   UNL     1       4.746   6.352  16.706  0.00  0.00    +0.000 A 
ENDBRANCH   9  17
TORSDOF 2
ENDMDL
MODEL 7
REMARK VINA RESULT:      -7.4      1.982      3.137
REMARK  Name = 
REMARK  3 active torsions:
REMARK  status: ('A' for Active; 'I' for Inactive)
REMARK    1  A    between atoms: C_1  and  C_2
REMARK    2  A    between atoms: C_6  and  C_8
REMARK    3  A    between atoms: C_15  and  C_16
REMARK                            x       y       z     vdW  Elec       q    Type
REMARK                         _______ _______ _______ _____ _____    ______ ____
ROOT
ATOM      1  C   UNL     1       4.956   6.173  16.355  0.00  0.00    +0.000 C 
ATOM      2  C   UNL     1       3.938   6.488  17.394  0.00  0.00    +0.000 A 
ATOM      3  S   UNL     1       3.396   8.117  17.604  0.00  0.00    +0.000 S 
ATOM      4  C   UNL     1       2.395   7.609  18.883  0.00  0.00    +0.000 A 
ATOM      5  N   UNL     1       1.713   8.601  19.528  0.00  0.00    +0.000 N 
ATOM      6  C   UNL     1       1.052   8.341  20.711  0.00  0.00    +0.000 C 
ATOM      7  O   UNL     1       1.048   7.283  21.328  0.00  0.00    +0.000 OA
ATOM      8  N   UNL     1       2.374   6.326  19.119  0.00  0.00    +0.000 NA
ATOM      9  C   UNL     1       3.262   5.669  18.291  0.00  0.00    +0.000 A 
ATOM     10  H   UNL     1       1.733   9.512  19.103  0.00  0.00    +0.000 HD
ENDROOT
BRANCH   6  11
ATOM     11  C   UNL     1       0.264   9.470  21.288  0.00  0.00    +0.000 A 
ATOM     12  C   UNL     1      -0.114   9.364  22.637  0.00  0.00    +0.000 A 
ATOM     13  C   UNL     1      -0.881  10.361  23.237  0.00  0.00    +0.000 A 
ATOM     14  C   UNL     1      -1.268  11.476  22.498  0.00  0.00    +0.000 A 
ATOM     15  C   UNL     1      -0.871  11.606  21.167  0.00  0.00    +0.000 A 
ATOM     16  C   UNL     1      -0.100  10.609  20.560  0.00  0.00    +0.000 A 
ENDBRANCH   6  11
BRANCH   9  17
ATOM     17  C   UNL     1       3.404   4.222  18.426  0.00  0.00    +0.000 A 
ATOM     18  C   UNL     1       2.635   3.383  17.599  0.00  0.00    +0.000 A 
ATOM     19  C   UNL     1       2.701   1.993  17.736  0.00  0.00    +0.000 A 
ATOM     20  C   UNL     1       3.536   1.430  18.696  0.00  0.00    +0.000 A 
ATOM     21  C   UNL     1       4.293   2.252  19.528  0.00  0.00    +0.000 A 
ATOM     22  C   UNL     1       4.217   3.638  19.400  0.00  0.00    +0.000 A 
ENDBRANCH   9  17
TORSDOF 2
ENDMDL
MODEL 8
REMARK VINA RESULT:      -7.4      1.990      3.300
REMARK  Name = 
REMARK  3 active torsions:
REMARK  status: ('A' for Active; 'I' for Inactive)
REMARK    1  A    between atoms: C_1  and  C_2
REMARK    2  A    between atoms: C_6  and  C_8
REMARK    3  A    between atoms: C_15  and  C_16
REMARK                            x       y       z     vdW  Elec       q    Type
REMARK                         _______ _______ _______ _____ _____    ______ ____
ROOT
ATOM      1  C   UNL     1       4.927   6.198  16.346  0.00  0.00    +0.000 C 
ATOM      2  C   UNL     1       3.915   6.501  17.395  0.00  0.00    +0.000 A 
ATOM      3  S   UNL     1       3.364   8.125  17.617  0.00  0.00    +0.000 S 
ATOM      4  C   UNL     1       2.378   7.604  18.902  0.00  0.00    +0.000 A 
ATOM      5  N   UNL     1       1.694   8.589  19.557  0.00  0.00    +0.000 N 
ATOM      6  C   UNL     1       1.045   8.319  20.745  0.00  0.00    +0.000 C 
ATOM      7  O   UNL     1       1.055   7.259  21.358  0.00  0.00    +0.000 OA
ATOM      8  N   UNL     1       2.368   6.320  19.133  0.00  0.00    +0.000 NA
ATOM      9  C   UNL     1       3.253   5.673  18.294  0.00  0.00    +0.000 A 
ATOM     10  H   UNL     1       1.705   9.502  19.136  0.00  0.00    +0.000 HD
ENDROOT
BRANCH   6  11
ATOM     11  C   UNL     1       0.254   9.440  21.334  0.00  0.00    +0.000 A 
ATOM     12  C   UNL     1       0.023  10.559  20.518  0.00  0.00    +0.000 A 
ATOM     13  C   UNL     1      -0.677  11.660  21.008  0.00  0.00    +0.000 A 
ATOM     14  C   UNL     1      -1.159  11.647  22.314  0.00  0.00    +0.000 A 
ATOM     15  C   UNL     1      -0.962  10.528  23.122  0.00  0.00    +0.000 A 
ATOM     16  C   UNL     1      -0.262   9.420  22.635  0.00  0.00    +0.000 A 
ENDBRANCH   6  11
BRANCH   9  17
ATOM     17  C   UNL     1       3.407   4.226  18.421  0.00  0.00    +0.000 A 
ATOM     18  C   UNL     1       2.629   3.385  17.604  0.00  0.00    +0.000 A 
ATOM     19  C   UNL     1       2.706   1.996  17.735  0.00  0.00    +0.000 A 
ATOM     20  C   UNL     1       3.560   1.435  18.679  0.00  0.00    +0.000 A 
ATOM     21  C   UNL     1       4.326   2.258  19.501  0.00  0.00    +0.000 A 
ATOM     22  C   UNL     1       4.240   3.644  19.379  0.00  0.00    +0.000 A 
ENDBRANCH   9  17
TORSDOF 2
ENDMDL
MODEL 9
REMARK VINA RESULT:      -7.4      2.253      7.945
REMARK  Name = 
REMARK  3 active torsions:
REMARK  status: ('A' for Active; 'I' for Inactive)
REMARK    1  A    between atoms: C_1  and  C_2
REMARK    2  A    between atoms: C_6  and  C_8
REMARK    3  A    between atoms: C_15  and  C_16
REMARK                            x       y       z     vdW  Elec       q    Type
REMARK                         _______ _______ _______ _____ _____    ______ ____
ROOT
ATOM      1  C   UNL     1       2.521   4.501  20.955  0.00  0.00    +0.000 C 
ATOM      2  C   UNL     1       3.019   4.884  19.606  0.00  0.00    +0.000 A 
ATOM      3  S   UNL     1       3.894   3.737  18.652  0.00  0.00    +0.000 S 
ATOM      4  C   UNL     1       4.087   4.911  17.436  0.00  0.00    +0.000 A 
ATOM      5  N   UNL     1       4.840   4.529  16.361  0.00  0.00    +0.000 N 
ATOM      6  C   UNL     1       5.250   5.459  15.428  0.00  0.00    +0.000 C 
ATOM      7  O   UNL     1       5.067   6.669  15.473  0.00  0.00    +0.000 OA
ATOM      8  N   UNL     1       3.498   6.056  17.645  0.00  0.00    +0.000 NA
ATOM      9  C   UNL     1       2.896   6.068  18.888  0.00  0.00    +0.000 A 
ATOM     10  H   UNL     1       5.080   3.555  16.303  0.00  0.00    +0.000 HD
ENDROOT
BRANCH   6  11
ATOM     11  C   UNL     1       5.991   4.925  14.247  0.00  0.00    +0.000 A 
ATOM     12  C   UNL     1       5.366   3.912  13.502  0.00  0.00    +0.000 A 
ATOM     13  C   UNL     1       6.010   3.339  12.407  0.00  0.00    +0.000 A 
ATOM     14  C   UNL     1       7.278   3.780  12.041  0.00  0.00    +0.000 A 
ATOM     15  C   UNL     1       7.895   4.808  12.755  0.00  0.00    +0.000 A 
ATOM     16  C   UNL     1       7.253   5.387  13.854  0.00  0.00    +0.000 A 
ENDBRANCH   6  11
BRANCH   9  17
ATOM     17  C   UNL     1       2.206   7.280  19.319  0.00  0.00    +0.000 A 
ATOM     18  C   UNL     1       2.031   8.328  18.397  0.00  0.00    +0.000 A 
ATOM     19  C   UNL     1       1.426   9.526  18.787  0.00  0.00    +0.000 A 
ATOM     20  C   UNL     1       0.990   9.688  20.098  0.00  0.00    +0.000 A 
ATOM     21  C   UNL     1       1.169   8.662  21.023  0.00  0.00    +0.000 A 
ATOM     22  C   UNL     1       1.784   7.472  20.637  0.00  0.00    +0.000 A 
ENDBRANCH   9  17
TORSDOF 2
ENDMDL
