MODEL 1
REMARK VINA RESULT:      -8.2      0.000      0.000
REMARK  Name = 
REMARK  5 active torsions:
REMARK  status: ('A' for Active; 'I' for Inactive)
REMARK    1  A    between atoms: C_4  and  N_5
REMARK    2  A    between atoms: N_5  and  C_18
REMARK    3  A    between atoms: C_6  and  C_8
REMARK    4  A    between atoms: C_8  and  O_9
REMARK    5  A    between atoms: O_9  and  C_10
REMARK                            x       y       z     vdW  Elec       q    Type
REMARK                         _______ _______ _______ _____ _____    ______ ____
ROOT
ATOM      1  N   UNL     1       5.844   5.590  16.713  0.00  0.00    +0.000 N 
ATOM      2  C   UNL     1       4.855   5.604  17.704  0.00  0.00    +0.000 C 
ATOM      3  O   UNL     1       5.130   5.844  18.883  0.00  0.00    +0.000 OA
ENDROOT
BRANCH   1   7
ATOM      4  O   UNL     1       8.740   5.100  20.305  0.00  0.00    +0.000 OA
ATOM      5  C   UNL     1       8.250   5.541  19.275  0.00  0.00    +0.000 C 
ATOM      6  C   UNL     1       7.767   4.707  18.124  0.00  0.00    +0.000 C 
ATOM      7  C   UNL     1       7.258   5.732  17.110  0.00  0.00    +0.000 C 
ATOM      8  C   UNL     1       7.599   7.077  17.737  0.00  0.00    +0.000 C 
ATOM      9  O   UNL     1       7.458   8.174  17.218  0.00  0.00    +0.000 OA
ATOM     10  N   UNL     1       8.127   6.855  18.968  0.00  0.00    +0.000 N 
ATOM     11  H   UNL     1       8.401   7.596  19.591  0.00  0.00    +0.000 HD
ENDBRANCH   1   7
BRANCH   1  12
ATOM     12  C   UNL     1       5.590   5.120  15.372  0.00  0.00    +0.000 C 
ATOM     13  C   UNL     1       6.711   4.846  14.403  0.00  0.00    +0.000 C 
ATOM     14  C   UNL     1       5.902   3.710  14.942  0.00  0.00    +0.000 C 
ENDBRANCH   1  12
BRANCH   2  15
ATOM     15  C   UNL     1       3.416   5.241  17.296  0.00  0.00    +0.000 C 
BRANCH  15  16
ATOM     16  O   UNL     1       3.123   3.865  17.507  0.00  0.00    +0.000 OA
BRANCH  16  17
ATOM     17  C   UNL     1       2.527   3.526  18.695  0.00  0.00    +0.000 A 
ATOM     18  C   UNL     1       1.180   3.721  19.015  0.00  0.00    +0.000 A 
ATOM     19  C   UNL     1       0.693   3.347  20.273  0.00  0.00    +0.000 A 
ATOM     20  C   UNL     1       1.549   2.774  21.207  0.00  0.00    +0.000 A 
ATOM     21  F   UNL     1       1.071   2.419  22.406  0.00  0.00    +0.000 F 
ATOM     22  C   UNL     1       2.887   2.566  20.912  0.00  0.00    +0.000 A 
ATOM     23  C   UNL     1       3.365   2.945  19.661  0.00  0.00    +0.000 A 
ATOM     24  F   UNL     1       4.664   2.744  19.390  0.00  0.00    +0.000 F 
ENDBRANCH  16  17
ENDBRANCH  15  16
ENDBRANCH   2  15
TORSDOF 5
ENDMDL
MODEL 2
REMARK VINA RESULT:      -8.0      0.950      1.381
REMARK  Name = 
REMARK  5 active torsions:
REMARK  status: ('A' for Active; 'I' for Inactive)
REMARK    1  A    between atoms: C_4  and  N_5
REMARK    2  A    between atoms: N_5  and  C_18
REMARK    3  A    between atoms: C_6  and  C_8
REMARK    4  A    between atoms: C_8  and  O_9
REMARK    5  A    between atoms: O_9  and  C_10
REMARK                            x       y       z     vdW  Elec       q    Type
REMARK                         _______ _______ _______ _____ _____    ______ ____
ROOT
ATOM      1  N   UNL     1       5.899   5.530  16.722  0.00  0.00    +0.000 N 
ATOM      2  C   UNL     1       4.907   5.471  17.708  0.00  0.00    +0.000 C 
ATOM      3  O   UNL     1       5.168   5.678  18.897  0.00  0.00    +0.000 OA
ENDROOT
BRANCH   1   7
ATOM      4  O   UNL     1       8.777   5.106  20.337  0.00  0.00    +0.000 OA
ATOM      5  C   UNL     1       8.284   5.538  19.305  0.00  0.00    +0.000 C 
ATOM      6  C   UNL     1       7.834   4.695  18.147  0.00  0.00    +0.000 C 
ATOM      7  C   UNL     1       7.306   5.710  17.132  0.00  0.00    +0.000 C 
ATOM      8  C   UNL     1       7.605   7.061  17.766  0.00  0.00    +0.000 C 
ATOM      9  O   UNL     1       7.438   8.156  17.250  0.00  0.00    +0.000 OA
ATOM     10  N   UNL     1       8.128   6.849  19.001  0.00  0.00    +0.000 N 
ATOM     11  H   UNL     1       8.377   7.595  19.629  0.00  0.00    +0.000 HD
ENDBRANCH   1   7
BRANCH   1  12
ATOM     12  C   UNL     1       5.668   5.102  15.363  0.00  0.00    +0.000 C 
ATOM     13  C   UNL     1       6.806   4.860  14.405  0.00  0.00    +0.000 C 
ATOM     14  C   UNL     1       5.991   3.706  14.895  0.00  0.00    +0.000 C 
ENDBRANCH   1  12
BRANCH   2  15
ATOM     15  C   UNL     1       3.484   5.072  17.279  0.00  0.00    +0.000 C 
BRANCH  15  16
ATOM     16  O   UNL     1       3.209   3.697  17.523  0.00  0.00    +0.000 OA
BRANCH  16  17
ATOM     17  C   UNL     1       2.725   3.366  18.763  0.00  0.00    +0.000 A 
ATOM     18  C   UNL     1       3.488   2.888  19.834  0.00  0.00    +0.000 A 
ATOM     19  C   UNL     1       2.873   2.567  21.050  0.00  0.00    +0.000 A 
ATOM     20  C   UNL     1       1.499   2.728  21.197  0.00  0.00    +0.000 A 
ATOM     21  F   UNL     1       0.922   2.419  22.366  0.00  0.00    +0.000 F 
ATOM     22  C   UNL     1       0.722   3.203  20.152  0.00  0.00    +0.000 A 
ATOM     23  C   UNL     1       1.341   3.515  18.944  0.00  0.00    +0.000 A 
ATOM     24  F   UNL     1       0.577   3.968  17.939  0.00  0.00    +0.000 F 
ENDBRANCH  16  17
ENDBRANCH  15  16
ENDBRANCH   2  15
TORSDOF 5
ENDMDL
MODEL 3
REMARK VINA RESULT:      -7.7      2.114      3.378
REMARK  Name = 
REMARK  5 active torsions:
REMARK  status: ('A' for Active; 'I' for Inactive)
REMARK    1  A    between atoms: C_4  and  N_5
REMARK    2  A    between atoms: N_5  and  C_18
REMARK    3  A    between atoms: C_6  and  C_8
REMARK    4  A    between atoms: C_8  and  O_9
REMARK    5  A    between atoms: O_9  and  C_10
REMARK                            x       y       z     vdW  Elec       q    Type
REMARK                         _______ _______ _______ _____ _____    ______ ____
ROOT
ATOM      1  N   UNL     1       5.242   5.796  18.039  0.00  0.00    +0.000 N 
ATOM      2  C   UNL     1       6.001   4.781  18.633  0.00  0.00    +0.000 C 
ATOM      3  O   UNL     1       6.981   4.293  18.062  0.00  0.00    +0.000 OA
ENDROOT
BRANCH   1   7
ATOM      4  O   UNL     1       6.731   4.153  13.963  0.00  0.00    +0.000 OA
ATOM      5  C   UNL     1       6.546   4.926  14.892  0.00  0.00    +0.000 C 
ATOM      6  C   UNL     1       5.230   5.148  15.579  0.00  0.00    +0.000 C 
ATOM      7  C   UNL     1       5.541   6.195  16.649  0.00  0.00    +0.000 C 
ATOM      8  C   UNL     1       6.999   6.558  16.403  0.00  0.00    +0.000 C 
ATOM      9  O   UNL     1       7.632   7.435  16.971  0.00  0.00    +0.000 OA
ATOM     10  N   UNL     1       7.477   5.762  15.412  0.00  0.00    +0.000 N 
ATOM     11  H   UNL     1       8.431   5.794  15.092  0.00  0.00    +0.000 HD
ENDBRANCH   1   7
BRANCH   1  12
ATOM     12  C   UNL     1       3.984   6.244  18.586  0.00  0.00    +0.000 C 
ATOM     13  C   UNL     1       3.114   7.240  17.862  0.00  0.00    +0.000 C 
ATOM     14  C   UNL     1       2.659   5.823  18.006  0.00  0.00    +0.000 C 
ENDBRANCH   1  12
BRANCH   2  15
ATOM     15  C   UNL     1       5.539   4.234  19.995  0.00  0.00    +0.000 C 
BRANCH  15  16
ATOM     16  O   UNL     1       5.121   2.876  19.921  0.00  0.00    +0.000 OA
BRANCH  16  17
ATOM     17  C   UNL     1       3.853   2.634  19.456  0.00  0.00    +0.000 A 
ATOM     18  C   UNL     1       3.516   2.324  18.135  0.00  0.00    +0.000 A 
ATOM     19  C   UNL     1       2.179   2.115  17.779  0.00  0.00    +0.000 A 
ATOM     20  C   UNL     1       1.181   2.211  18.743  0.00  0.00    +0.000 A 
ATOM     21  F   UNL     1      -0.095   2.007  18.391  0.00  0.00    +0.000 F 
ATOM     22  C   UNL     1       1.490   2.514  20.060  0.00  0.00    +0.000 A 
ATOM     23  C   UNL     1       2.822   2.725  20.405  0.00  0.00    +0.000 A 
ATOM     24  F   UNL     1       3.107   3.023  21.682  0.00  0.00    +0.000 F 
ENDBRANCH  16  17
ENDBRANCH  15  16
ENDBRANCH   2  15
TORSDOF 5
ENDMDL
MODEL 4
REMARK VINA RESULT:      -7.7      2.081      3.332
REMARK  Name = 
REMARK  5 active torsions:
REMARK  status: ('A' for Active; 'I' for Inactive)
REMARK    1  A    between atoms: C_4  and  N_5
REMARK    2  A    between atoms: N_5  and  C_18
REMARK    3  A    between atoms: C_6  and  C_8
REMARK    4  A    between atoms: C_8  and  O_9
REMARK    5  A    between atoms: O_9  and  C_10
REMARK                            x       y       z     vdW  Elec       q    Type
REMARK                         _______ _______ _______ _____ _____    ______ ____
ROOT
ATOM      1  N   UNL     1       5.285   5.801  17.974  0.00  0.00    +0.000 N 
ATOM      2  C   UNL     1       6.051   4.789  18.564  0.00  0.00    +0.000 C 
ATOM      3  O   UNL     1       7.022   4.295  17.982  0.00  0.00    +0.000 OA
ENDROOT
BRANCH   1   7
ATOM      4  O   UNL     1       6.696   4.122  13.885  0.00  0.00    +0.000 OA
ATOM      5  C   UNL     1       6.531   4.902  14.812  0.00  0.00    +0.000 C 
ATOM      6  C   UNL     1       5.227   5.137  15.519  0.00  0.00    +0.000 C 
ATOM      7  C   UNL     1       5.563   6.189  16.577  0.00  0.00    +0.000 C 
ATOM      8  C   UNL     1       7.019   6.541  16.304  0.00  0.00    +0.000 C 
ATOM      9  O   UNL     1       7.667   7.417  16.856  0.00  0.00    +0.000 OA
ATOM     10  N   UNL     1       7.476   5.736  15.310  0.00  0.00    +0.000 N 
ATOM     11  H   UNL     1       8.424   5.759  14.975  0.00  0.00    +0.000 HD
ENDBRANCH   1   7
BRANCH   1  12
ATOM     12  C   UNL     1       4.036   6.255  18.537  0.00  0.00    +0.000 C 
ATOM     13  C   UNL     1       3.185   7.289  17.846  0.00  0.00    +0.000 C 
ATOM     14  C   UNL     1       2.702   5.878  17.945  0.00  0.00    +0.000 C 
ENDBRANCH   1  12
BRANCH   2  15
ATOM     15  C   UNL     1       5.609   4.253  19.937  0.00  0.00    +0.000 C 
BRANCH  15  16
ATOM     16  O   UNL     1       5.119   2.919  19.867  0.00  0.00    +0.000 OA
BRANCH  16  17
ATOM     17  C   UNL     1       3.779   2.755  19.626  0.00  0.00    +0.000 A 
ATOM     18  C   UNL     1       2.758   2.900  20.571  0.00  0.00    +0.000 A 
ATOM     19  C   UNL     1       1.424   2.688  20.205  0.00  0.00    +0.000 A 
ATOM     20  C   UNL     1       1.110   2.339  18.896  0.00  0.00    +0.000 A 
ATOM     21  F   UNL     1      -0.171   2.141  18.557  0.00  0.00    +0.000 F 
ATOM     22  C   UNL     1       2.103   2.193  17.940  0.00  0.00    +0.000 A 
ATOM     23  C   UNL     1       3.429   2.400  18.313  0.00  0.00    +0.000 A 
ATOM     24  F   UNL     1       4.381   2.250  17.381  0.00  0.00    +0.000 F 
ENDBRANCH  16  17
ENDBRANCH  15  16
ENDBRANCH   2  15
TORSDOF 5
ENDMDL
MODEL 5
REMARK VINA RESULT:      -7.7      1.212      1.316
REMARK  Name = 
REMARK  5 active torsions:
REMARK  status: ('A' for Active; 'I' for Inactive)
REMARK    1  A    between atoms: C_4  and  N_5
REMARK    2  A    between atoms: N_5  and  C_18
REMARK    3  A    between atoms: C_6  and  C_8
REMARK    4  A    between atoms: C_8  and  O_9
REMARK    5  A    between atoms: O_9  and  C_10
REMARK                            x       y       z     vdW  Elec       q    Type
REMARK                         _______ _______ _______ _____ _____    ______ ____
ROOT
ATOM      1  N   UNL     1       5.847   5.601  16.584  0.00  0.00    +0.000 N 
ATOM      2  C   UNL     1       4.826   5.603  17.542  0.00  0.00    +0.000 C 
ATOM      3  O   UNL     1       5.061   5.827  18.732  0.00  0.00    +0.000 OA
ENDROOT
BRANCH   1   7
ATOM      4  O   UNL     1       8.616   5.088  20.270  0.00  0.00    +0.000 OA
ATOM      5  C   UNL     1       8.164   5.535  19.226  0.00  0.00    +0.000 C 
ATOM      6  C   UNL     1       7.718   4.706  18.056  0.00  0.00    +0.000 C 
ATOM      7  C   UNL     1       7.248   5.737  17.030  0.00  0.00    +0.000 C 
ATOM      8  C   UNL     1       7.572   7.078  17.672  0.00  0.00    +0.000 C 
ATOM      9  O   UNL     1       7.452   8.178  17.153  0.00  0.00    +0.000 OA
ATOM     10  N   UNL     1       8.056   6.850  18.920  0.00  0.00    +0.000 N 
ATOM     11  H   UNL     1       8.312   7.588  19.554  0.00  0.00    +0.000 HD
ENDBRANCH   1   7
BRANCH   1  12
ATOM     12  C   UNL     1       5.637   5.150  15.229  0.00  0.00    +0.000 C 
ATOM     13  C   UNL     1       6.791   4.864  14.302  0.00  0.00    +0.000 C 
ATOM     14  C   UNL     1       5.940   3.739  14.796  0.00  0.00    +0.000 C 
ENDBRANCH   1  12
BRANCH   2  15
ATOM     15  C   UNL     1       3.401   5.247  17.081  0.00  0.00    +0.000 C 
BRANCH  15  16
ATOM     16  O   UNL     1       2.423   5.533  18.075  0.00  0.00    +0.000 OA
BRANCH  16  17
ATOM     17  C   UNL     1       2.178   4.560  19.010  0.00  0.00    +0.000 A 
ATOM     18  C   UNL     1       2.035   3.194  18.746  0.00  0.00    +0.000 A 
ATOM     19  C   UNL     1       1.769   2.298  19.789  0.00  0.00    +0.000 A 
ATOM     20  C   UNL     1       1.650   2.767  21.093  0.00  0.00    +0.000 A 
ATOM     21  F   UNL     1       1.396   1.900  22.082  0.00  0.00    +0.000 F 
ATOM     22  C   UNL     1       1.790   4.115  21.380  0.00  0.00    +0.000 A 
ATOM     23  C   UNL     1       2.051   5.000  20.338  0.00  0.00    +0.000 A 
ATOM     24  F   UNL     1       2.179   6.303  20.628  0.00  0.00    +0.000 F 
ENDBRANCH  16  17
ENDBRANCH  15  16
ENDBRANCH   2  15
TORSDOF 5
ENDMDL
MODEL 6
REMARK VINA RESULT:      -7.6      3.341      6.261
REMARK  Name = 
REMARK  5 active torsions:
REMARK  status: ('A' for Active; 'I' for Inactive)
REMARK    1  A    between atoms: C_4  and  N_5
REMARK    2  A    between atoms: N_5  and  C_18
REMARK    3  A    between atoms: C_6  and  C_8
REMARK    4  A    between atoms: C_8  and  O_9
REMARK    5  A    between atoms: O_9  and  C_10
REMARK                            x       y       z     vdW  Elec       q    Type
REMARK                         _______ _______ _______ _____ _____    ______ ____
ROOT
ATOM      1  N   UNL     1       2.511   4.609  18.124  0.00  0.00    +0.000 N 
ATOM      2  C   UNL     1       3.401   3.649  17.626  0.00  0.00    +0.000 C 
ATOM      3  O   UNL     1       3.468   2.519  18.119  0.00  0.00    +0.000 OA
ENDROOT
BRANCH   1   7
ATOM      4  O   UNL     1       2.771   2.446  22.220  0.00  0.00    +0.000 OA
ATOM      5  C   UNL     1       2.302   2.886  21.180  0.00  0.00    +0.000 C 
ATOM      6  C   UNL     1       2.541   4.268  20.644  0.00  0.00    +0.000 C 
ATOM      7  C   UNL     1       1.737   4.305  19.344  0.00  0.00    +0.000 C 
ATOM      8  C   UNL     1       1.019   2.964  19.310  0.00  0.00    +0.000 C 
ATOM      9  O   UNL     1       0.187   2.608  18.489  0.00  0.00    +0.000 OA
ATOM     10  N   UNL     1       1.431   2.229  20.376  0.00  0.00    +0.000 N 
ATOM     11  H   UNL     1       1.118   1.290  20.551  0.00  0.00    +0.000 HD
ENDBRANCH   1   7
BRANCH   1  12
ATOM     12  C   UNL     1       2.548   5.990  17.705  0.00  0.00    +0.000 C 
ATOM     13  C   UNL     1       2.177   7.112  18.641  0.00  0.00    +0.000 C 
ATOM     14  C   UNL     1       3.597   6.952  18.200  0.00  0.00    +0.000 C 
ENDBRANCH   1  12
BRANCH   2  15
ATOM     15  C   UNL     1       4.349   4.062  16.487  0.00  0.00    +0.000 C 
BRANCH  15  16
ATOM     16  O   UNL     1       5.711   3.774  16.783  0.00  0.00    +0.000 OA
BRANCH  16  17
ATOM     17  C   UNL     1       6.451   4.774  17.360  0.00  0.00    +0.000 A 
ATOM     18  C   UNL     1       6.960   4.763  18.663  0.00  0.00    +0.000 A 
ATOM     19  C   UNL     1       7.690   5.856  19.144  0.00  0.00    +0.000 A 
ATOM     20  C   UNL     1       7.916   6.956  18.324  0.00  0.00    +0.000 A 
ATOM     21  F   UNL     1       8.617   7.995  18.795  0.00  0.00    +0.000 F 
ATOM     22  C   UNL     1       7.425   6.990  17.028  0.00  0.00    +0.000 A 
ATOM     23  C   UNL     1       6.696   5.901  16.557  0.00  0.00    +0.000 A 
ATOM     24  F   UNL     1       6.222   5.948  15.303  0.00  0.00    +0.000 F 
ENDBRANCH  16  17
ENDBRANCH  15  16
ENDBRANCH   2  15
TORSDOF 5
ENDMDL
MODEL 7
REMARK VINA RESULT:      -7.5      1.151      1.968
REMARK  Name = 
REMARK  5 active torsions:
REMARK  status: ('A' for Active; 'I' for Inactive)
REMARK    1  A    between atoms: C_4  and  N_5
REMARK    2  A    between atoms: N_5  and  C_18
REMARK    3  A    between atoms: C_6  and  C_8
REMARK    4  A    between atoms: C_8  and  O_9
REMARK    5  A    between atoms: O_9  and  C_10
REMARK                            x       y       z     vdW  Elec       q    Type
REMARK                         _______ _______ _______ _____ _____    ______ ____
ROOT
ATOM      1  N   UNL     1       5.155   5.122  17.254  0.00  0.00    +0.000 N 
ATOM      2  C   UNL     1       3.799   4.794  17.378  0.00  0.00    +0.000 C 
ATOM      3  O   UNL     1       3.029   5.486  18.049  0.00  0.00    +0.000 OA
ENDROOT
BRANCH   1   7
ATOM      4  O   UNL     1       8.356   8.480  17.208  0.00  0.00    +0.000 OA
ATOM      5  C   UNL     1       7.608   7.611  17.633  0.00  0.00    +0.000 C 
ATOM      6  C   UNL     1       6.164   7.457  17.252  0.00  0.00    +0.000 C 
ATOM      7  C   UNL     1       5.697   6.240  18.051  0.00  0.00    +0.000 C 
ATOM      8  C   UNL     1       6.902   5.871  18.907  0.00  0.00    +0.000 C 
ATOM      9  O   UNL     1       6.937   5.011  19.774  0.00  0.00    +0.000 OA
ATOM     10  N   UNL     1       7.933   6.688  18.570  0.00  0.00    +0.000 N 
ATOM     11  H   UNL     1       8.849   6.615  18.979  0.00  0.00    +0.000 HD
ENDBRANCH   1   7
BRANCH   1  12
ATOM     12  C   UNL     1       6.115   4.231  16.646  0.00  0.00    +0.000 C 
ATOM     13  C   UNL     1       5.942   3.722  15.239  0.00  0.00    +0.000 C 
ATOM     14  C   UNL     1       7.046   4.680  15.550  0.00  0.00    +0.000 C 
ENDBRANCH   1  12
BRANCH   2  15
ATOM     15  C   UNL     1       3.303   3.501  16.708  0.00  0.00    +0.000 C 
BRANCH  15  16
ATOM     16  O   UNL     1       3.379   2.376  17.577  0.00  0.00    +0.000 OA
BRANCH  16  17
ATOM     17  C   UNL     1       2.686   2.450  18.758  0.00  0.00    +0.000 A 
ATOM     18  C   UNL     1       1.294   2.511  18.884  0.00  0.00    +0.000 A 
ATOM     19  C   UNL     1       0.704   2.602  20.150  0.00  0.00    +0.000 A 
ATOM     20  C   UNL     1       1.502   2.626  21.288  0.00  0.00    +0.000 A 
ATOM     21  F   UNL     1       0.926   2.711  22.494  0.00  0.00    +0.000 F 
ATOM     22  C   UNL     1       2.883   2.563  21.190  0.00  0.00    +0.000 A 
ATOM     23  C   UNL     1       3.464   2.478  19.927  0.00  0.00    +0.000 A 
ATOM     24  F   UNL     1       4.801   2.423  19.846  0.00  0.00    +0.000 F 
ENDBRANCH  16  17
ENDBRANCH  15  16
ENDBRANCH   2  15
TORSDOF 5
ENDMDL
MODEL 8
REMARK VINA RESULT:      -7.3      1.626      2.979
REMARK  Name = 
REMARK  5 active torsions:
REMARK  status: ('A' for Active; 'I' for Inactive)
REMARK    1  A    between atoms: C_4  and  N_5
REMARK    2  A    between atoms: N_5  and  C_18
REMARK    3  A    between atoms: C_6  and  C_8
REMARK    4  A    between atoms: C_8  and  O_9
REMARK    5  A    between atoms: O_9  and  C_10
REMARK                            x       y       z     vdW  Elec       q    Type
REMARK                         _______ _______ _______ _____ _____    ______ ____
ROOT
ATOM      1  N   UNL     1       4.002   5.289  17.938  0.00  0.00    +0.000 N 
ATOM      2  C   UNL     1       4.169   4.181  17.098  0.00  0.00    +0.000 C 
ATOM      3  O   UNL     1       5.280   3.869  16.659  0.00  0.00    +0.000 OA
ENDROOT
BRANCH   1   7
ATOM      4  O   UNL     1       7.999   6.770  16.107  0.00  0.00    +0.000 OA
ATOM      5  C   UNL     1       7.173   6.432  16.943  0.00  0.00    +0.000 C 
ATOM      6  C   UNL     1       5.738   6.871  16.963  0.00  0.00    +0.000 C 
ATOM      7  C   UNL     1       5.154   6.176  18.193  0.00  0.00    +0.000 C 
ATOM      8  C   UNL     1       6.349   5.480  18.831  0.00  0.00    +0.000 C 
ATOM      9  O   UNL     1       6.355   4.884  19.897  0.00  0.00    +0.000 OA
ATOM     10  N   UNL     1       7.430   5.663  18.029  0.00  0.00    +0.000 N 
ATOM     11  H   UNL     1       8.334   5.269  18.226  0.00  0.00    +0.000 HD
ENDBRANCH   1   7
BRANCH   1  12
ATOM     12  C   UNL     1       2.700   5.794  18.304  0.00  0.00    +0.000 C 
ATOM     13  C   UNL     1       2.362   6.153  19.728  0.00  0.00    +0.000 C 
ATOM     14  C   UNL     1       2.478   7.231  18.699  0.00  0.00    +0.000 C 
ENDBRANCH   1  12
BRANCH   2  15
ATOM     15  C   UNL     1       2.915   3.397  16.676  0.00  0.00    +0.000 C 
BRANCH  15  16
ATOM     16  O   UNL     1       2.721   2.223  17.456  0.00  0.00    +0.000 OA
BRANCH  16  17
ATOM     17  C   UNL     1       2.238   2.389  18.729  0.00  0.00    +0.000 A 
ATOM     18  C   UNL     1       0.908   2.662  19.067  0.00  0.00    +0.000 A 
ATOM     19  C   UNL     1       0.542   2.828  20.408  0.00  0.00    +0.000 A 
ATOM     20  C   UNL     1       1.500   2.717  21.409  0.00  0.00    +0.000 A 
ATOM     21  F   UNL     1       1.137   2.877  22.688  0.00  0.00    +0.000 F 
ATOM     22  C   UNL     1       2.823   2.444  21.100  0.00  0.00    +0.000 A 
ATOM     23  C   UNL     1       3.182   2.284  19.764  0.00  0.00    +0.000 A 
ATOM     24  F   UNL     1       4.467   2.026  19.478  0.00  0.00    +0.000 F 
ENDBRANCH  16  17
ENDBRANCH  15  16
ENDBRANCH   2  15
TORSDOF 5
ENDMDL
MODEL 9
REMARK VINA RESULT:      -7.2      3.141      6.398
REMARK  Name = 
REMARK  5 active torsions:
REMARK  status: ('A' for Active; 'I' for Inactive)
REMARK    1  A    between atoms: C_4  and  N_5
REMARK    2  A    between atoms: N_5  and  C_18
REMARK    3  A    between atoms: C_6  and  C_8
REMARK    4  A    between atoms: C_8  and  O_9
REMARK    5  A    between atoms: O_9  and  C_10
REMARK                            x       y       z     vdW  Elec       q    Type
REMARK                         _______ _______ _______ _____ _____    ______ ____
ROOT
ATOM      1  N   UNL     1       3.114   5.416  19.196  0.00  0.00    +0.000 N 
ATOM      2  C   UNL     1       4.290   4.671  19.350  0.00  0.00    +0.000 C 
ATOM      3  O   UNL     1       4.263   3.502  19.747  0.00  0.00    +0.000 OA
ENDROOT
BRANCH   1   7
ATOM      4  O   UNL     1       1.290   2.336  22.149  0.00  0.00    +0.000 OA
ATOM      5  C   UNL     1       1.440   3.015  21.143  0.00  0.00    +0.000 C 
ATOM      6  C   UNL     1       1.754   4.483  21.133  0.00  0.00    +0.000 C 
ATOM      7  C   UNL     1       1.834   4.835  19.647  0.00  0.00    +0.000 C 
ATOM      8  C   UNL     1       1.448   3.545  18.936  0.00  0.00    +0.000 C 
ATOM      9  O   UNL     1       1.286   3.401  17.734  0.00  0.00    +0.000 OA
ATOM     10  N   UNL     1       1.277   2.575  19.872  0.00  0.00    +0.000 N 
ATOM     11  H   UNL     1       1.049   1.623  19.641  0.00  0.00    +0.000 HD
ENDBRANCH   1   7
BRANCH   1  12
ATOM     12  C   UNL     1       3.125   6.834  18.928  0.00  0.00    +0.000 C 
ATOM     13  C   UNL     1       3.575   7.385  17.599  0.00  0.00    +0.000 C 
ATOM     14  C   UNL     1       2.137   7.483  17.994  0.00  0.00    +0.000 C 
ENDBRANCH   1  12
BRANCH   2  15
ATOM     15  C   UNL     1       5.632   5.372  19.075  0.00  0.00    +0.000 C 
BRANCH  15  16
ATOM     16  O   UNL     1       6.560   4.524  18.409  0.00  0.00    +0.000 OA
BRANCH  16  17
ATOM     17  C   UNL     1       6.479   4.457  17.041  0.00  0.00    +0.000 A 
ATOM     18  C   UNL     1       5.808   3.469  16.312  0.00  0.00    +0.000 A 
ATOM     19  C   UNL     1       5.812   3.501  14.913  0.00  0.00    +0.000 A 
ATOM     20  C   UNL     1       6.478   4.521  14.243  0.00  0.00    +0.000 A 
ATOM     21  F   UNL     1       6.473   4.542  12.904  0.00  0.00    +0.000 F 
ATOM     22  C   UNL     1       7.147   5.514  14.942  0.00  0.00    +0.000 A 
ATOM     23  C   UNL     1       7.143   5.473  16.334  0.00  0.00    +0.000 A 
ATOM     24  F   UNL     1       7.798   6.436  17.000  0.00  0.00    +0.000 F 
ENDBRANCH  16  17
ENDBRANCH  15  16
ENDBRANCH   2  15
TORSDOF 5
ENDMDL
