MODEL 1
REMARK VINA RESULT:      -7.5      0.000      0.000
REMARK  Name = 
REMARK  12 active torsions:
REMARK  status: ('A' for Active; 'I' for Inactive)
REMARK    1  A    between atoms: C_1  and  N_2
REMARK    2  A    between atoms: C_3  and  C_5
REMARK    3  A    between atoms: C_5  and  C_6
REMARK    4  A    between atoms: C_5  and  N_13
REMARK    5  A    between atoms: C_6  and  C_7
REMARK    6  A    between atoms: C_14  and  C_16
REMARK    7  A    between atoms: C_16  and  C_17
REMARK    8  A    between atoms: C_17  and  S_18
REMARK    9  A    between atoms: C_21  and  C_22
REMARK   10  A    between atoms: C_22  and  C_23
REMARK   11  A    between atoms: C_22  and  C_24
REMARK   12  A    between atoms: C_22  and  C_25
REMARK                            x       y       z     vdW  Elec       q    Type
REMARK                         _______ _______ _______ _____ _____    ______ ____
ROOT
ATOM      1  N   UNL     1       1.886   7.644  20.305  0.00  0.00    +0.000 N 
ATOM      2  C   UNL     1       2.536   7.169  19.186  0.00  0.00    +0.000 C 
ATOM      3  O   UNL     1       2.765   7.933  18.244  0.00  0.00    +0.000 OA
ATOM      4  H   UNL     1       1.866   7.100  21.158  0.00  0.00    +0.000 HD
ENDROOT
BRANCH   2   5
ATOM      5  C   UNL     1       3.017   5.693  19.192  0.00  0.00    +0.000 C 
ATOM      6  C   UNL     1       4.562   5.688  19.362  0.00  0.00    +0.000 C 
ATOM      7  C   UNL     1       5.267   4.414  18.889  0.00  0.00    +0.000 C 
ATOM      8  C   UNL     1       4.910   3.957  17.464  0.00  0.00    +0.000 C 
ATOM      9  C   UNL     1       3.377   3.832  17.389  0.00  0.00    +0.000 C 
ATOM     10  C   UNL     1       2.615   5.077  17.817  0.00  0.00    +0.000 C 
BRANCH   8  11
ATOM     11  C   UNL     1       5.644   4.711  16.277  0.00  0.00    +0.000 C 
ATOM     12  C   UNL     1       7.167   4.767  16.565  0.00  0.00    +0.000 C 
ATOM     13  C   UNL     1       5.478   3.931  14.953  0.00  0.00    +0.000 C 
ATOM     14  C   UNL     1       5.192   6.158  16.023  0.00  0.00    +0.000 C 
ENDBRANCH   8  11
BRANCH   5  15
ATOM     15  C   UNL     1       2.408   4.924  20.395  0.00  0.00    +0.000 C 
BRANCH  15  16
ATOM     16  S   UNL     1       0.991   3.833  20.053  0.00  0.00    +0.000 S 
ATOM     17  H   UNL     1       0.093   4.488  20.804  0.00  0.00    +0.000 HD
ENDBRANCH  15  16
ENDBRANCH   5  15
ENDBRANCH   2   5
BRANCH   1  18
ATOM     18  C   UNL     1       1.488   9.056  20.380  0.00  0.00    +0.000 C 
BRANCH  18  21
ATOM     19  C   UNL     1      -0.830   9.949  23.270  0.00  0.00    +0.000 C 
ATOM     20  N   UNL     1      -0.255   9.643  21.988  0.00  0.00    +0.000 N 
ATOM     21  C   UNL     1       1.090   9.371  21.834  0.00  0.00    +0.000 C 
ATOM     22  O   UNL     1       1.899   9.440  22.755  0.00  0.00    +0.000 OA
ATOM     23  H   UNL     1      -0.832   9.693  21.148  0.00  0.00    +0.000 HD
ENDBRANCH  18  21
BRANCH  18  24
ATOM     24  C   UNL     1       0.338   9.418  19.421  0.00  0.00    +0.000 C 
BRANCH  24  25
ATOM     25  C   UNL     1       0.405  10.857  18.961  0.00  0.00    +0.000 A 
ATOM     26  C   UNL     1       1.647  11.467  18.748  0.00  0.00    +0.000 A 
ATOM     27  C   UNL     1       1.723  12.829  18.455  0.00  0.00    +0.000 A 
ATOM     28  C   UNL     1       0.558  13.588  18.356  0.00  0.00    +0.000 A 
ATOM     29  C   UNL     1      -0.686  12.976  18.502  0.00  0.00    +0.000 A 
ATOM     30  C   UNL     1      -0.764  11.614  18.790  0.00  0.00    +0.000 A 
ENDBRANCH  24  25
ENDBRANCH  18  24
ENDBRANCH   1  18
TORSDOF 8
ENDMDL
MODEL 2
REMARK VINA RESULT:      -7.2      0.165      1.247
REMARK  Name = 
REMARK  12 active torsions:
REMARK  status: ('A' for Active; 'I' for Inactive)
REMARK    1  A    between atoms: C_1  and  N_2
REMARK    2  A    between atoms: C_3  and  C_5
REMARK    3  A    between atoms: C_5  and  C_6
REMARK    4  A    between atoms: C_5  and  N_13
REMARK    5  A    between atoms: C_6  and  C_7
REMARK    6  A    between atoms: C_14  and  C_16
REMARK    7  A    between atoms: C_16  and  C_17
REMARK    8  A    between atoms: C_17  and  S_18
REMARK    9  A    between atoms: C_21  and  C_22
REMARK   10  A    between atoms: C_22  and  C_23
REMARK   11  A    between atoms: C_22  and  C_24
REMARK   12  A    between atoms: C_22  and  C_25
REMARK                            x       y       z     vdW  Elec       q    Type
REMARK                         _______ _______ _______ _____ _____    ______ ____
ROOT
ATOM      1  N   UNL     1       1.872   7.615  20.301  0.00  0.00    +0.000 N 
ATOM      2  C   UNL     1       2.578   7.156  19.210  0.00  0.00    +0.000 C 
ATOM      3  O   UNL     1       2.861   7.936  18.296  0.00  0.00    +0.000 OA
ATOM      4  H   UNL     1       1.804   7.057  21.142  0.00  0.00    +0.000 HD
ENDROOT
BRANCH   2   5
ATOM      5  C   UNL     1       3.048   5.677  19.214  0.00  0.00    +0.000 C 
ATOM      6  C   UNL     1       4.595   5.661  19.366  0.00  0.00    +0.000 C 
ATOM      7  C   UNL     1       5.285   4.381  18.888  0.00  0.00    +0.000 C 
ATOM      8  C   UNL     1       4.908   3.923  17.468  0.00  0.00    +0.000 C 
ATOM      9  C   UNL     1       3.374   3.809  17.411  0.00  0.00    +0.000 C 
ATOM     10  C   UNL     1       2.626   5.061  17.845  0.00  0.00    +0.000 C 
BRANCH   8  11
ATOM     11  C   UNL     1       5.635   4.669  16.272  0.00  0.00    +0.000 C 
ATOM     12  C   UNL     1       5.110   6.125  16.176  0.00  0.00    +0.000 C 
ATOM     13  C   UNL     1       7.154   4.768  16.537  0.00  0.00    +0.000 C 
ATOM     14  C   UNL     1       5.446   4.044  14.881  0.00  0.00    +0.000 C 
ENDBRANCH   8  11
BRANCH   5  15
ATOM     15  C   UNL     1       2.447   4.915  20.426  0.00  0.00    +0.000 C 
BRANCH  15  16
ATOM     16  S   UNL     1       0.982   3.879  20.114  0.00  0.00    +0.000 S 
ATOM     17  H   UNL     1       0.078   4.703  20.663  0.00  0.00    +0.000 HD
ENDBRANCH  15  16
ENDBRANCH   5  15
ENDBRANCH   2   5
BRANCH   1  18
ATOM     18  C   UNL     1       1.480   9.029  20.382  0.00  0.00    +0.000 C 
BRANCH  18  21
ATOM     19  C   UNL     1      -0.778   9.905  23.324  0.00  0.00    +0.000 C 
ATOM     20  N   UNL     1      -0.231   9.599  22.030  0.00  0.00    +0.000 N 
ATOM     21  C   UNL     1       1.115   9.349  21.843  0.00  0.00    +0.000 C 
ATOM     22  O   UNL     1       1.946   9.439  22.743  0.00  0.00    +0.000 OA
ATOM     23  H   UNL     1      -0.830   9.633  21.205  0.00  0.00    +0.000 HD
ENDBRANCH  18  21
BRANCH  18  24
ATOM     24  C   UNL     1       0.312   9.392  19.447  0.00  0.00    +0.000 C 
BRANCH  24  25
ATOM     25  C   UNL     1       0.268  10.869  19.129  0.00  0.00    +0.000 A 
ATOM     26  C   UNL     1      -0.964  11.510  18.948  0.00  0.00    +0.000 A 
ATOM     27  C   UNL     1      -1.012  12.839  18.522  0.00  0.00    +0.000 A 
ATOM     28  C   UNL     1       0.169  13.541  18.290  0.00  0.00    +0.000 A 
ATOM     29  C   UNL     1       1.400  12.931  18.529  0.00  0.00    +0.000 A 
ATOM     30  C   UNL     1       1.450  11.606  18.960  0.00  0.00    +0.000 A 
ENDBRANCH  24  25
ENDBRANCH  18  24
ENDBRANCH   1  18
TORSDOF 8
ENDMDL
MODEL 3
REMARK VINA RESULT:      -7.1      4.170      7.747
REMARK  Name = 
REMARK  12 active torsions:
REMARK  status: ('A' for Active; 'I' for Inactive)
REMARK    1  A    between atoms: C_1  and  N_2
REMARK    2  A    between atoms: C_3  and  C_5
REMARK    3  A    between atoms: C_5  and  C_6
REMARK    4  A    between atoms: C_5  and  N_13
REMARK    5  A    between atoms: C_6  and  C_7
REMARK    6  A    between atoms: C_14  and  C_16
REMARK    7  A    between atoms: C_16  and  C_17
REMARK    8  A    between atoms: C_17  and  S_18
REMARK    9  A    between atoms: C_21  and  C_22
REMARK   10  A    between atoms: C_22  and  C_23
REMARK   11  A    between atoms: C_22  and  C_24
REMARK   12  A    between atoms: C_22  and  C_25
REMARK                            x       y       z     vdW  Elec       q    Type
REMARK                         _______ _______ _______ _____ _____    ______ ____
ROOT
ATOM      1  N   UNL     1       5.142   4.619  17.367  0.00  0.00    +0.000 N 
ATOM      2  C   UNL     1       4.560   5.864  17.474  0.00  0.00    +0.000 C 
ATOM      3  O   UNL     1       5.160   6.856  17.049  0.00  0.00    +0.000 OA
ATOM      4  H   UNL     1       4.597   3.781  17.520  0.00  0.00    +0.000 HD
ENDROOT
BRANCH   2   5
ATOM      5  C   UNL     1       3.129   5.952  18.069  0.00  0.00    +0.000 C 
ATOM      6  C   UNL     1       3.246   5.906  19.619  0.00  0.00    +0.000 C 
ATOM      7  C   UNL     1       1.977   5.471  20.357  0.00  0.00    +0.000 C 
ATOM      8  C   UNL     1       1.342   4.162  19.854  0.00  0.00    +0.000 C 
ATOM      9  C   UNL     1       1.108   4.313  18.340  0.00  0.00    +0.000 C 
ATOM     10  C   UNL     1       2.340   4.715  17.542  0.00  0.00    +0.000 C 
BRANCH   8  11
ATOM     11  C   UNL     1       2.008   2.815  20.364  0.00  0.00    +0.000 C 
ATOM     12  C   UNL     1       1.495   2.494  21.791  0.00  0.00    +0.000 C 
ATOM     13  C   UNL     1       1.585   1.628  19.469  0.00  0.00    +0.000 C 
ATOM     14  C   UNL     1       3.543   2.815  20.440  0.00  0.00    +0.000 C 
ENDBRANCH   8  11
BRANCH   5  15
ATOM     15  C   UNL     1       2.459   7.299  17.687  0.00  0.00    +0.000 C 
BRANCH  15  16
ATOM     16  S   UNL     1       2.005   8.418  19.050  0.00  0.00    +0.000 S 
ATOM     17  H   UNL     1       1.899   9.537  18.317  0.00  0.00    +0.000 HD
ENDBRANCH  15  16
ENDBRANCH   5  15
ENDBRANCH   2   5
BRANCH   1  18
ATOM     18  C   UNL     1       6.459   4.475  16.732  0.00  0.00    +0.000 C 
BRANCH  18  21
ATOM     19  C   UNL     1       8.097   5.833  19.893  0.00  0.00    +0.000 C 
ATOM     20  N   UNL     1       7.224   5.556  18.785  0.00  0.00    +0.000 N 
ATOM     21  C   UNL     1       7.540   4.622  17.818  0.00  0.00    +0.000 C 
ATOM     22  O   UNL     1       8.609   4.018  17.792  0.00  0.00    +0.000 OA
ATOM     23  H   UNL     1       6.376   6.108  18.657  0.00  0.00    +0.000 HD
ENDBRANCH  18  21
BRANCH  18  24
ATOM     24  C   UNL     1       6.702   5.486  15.596  0.00  0.00    +0.000 C 
BRANCH  24  25
ATOM     25  C   UNL     1       6.753   4.823  14.237  0.00  0.00    +0.000 A 
ATOM     26  C   UNL     1       7.688   5.248  13.286  0.00  0.00    +0.000 A 
ATOM     27  C   UNL     1       7.655   4.737  11.987  0.00  0.00    +0.000 A 
ATOM     28  C   UNL     1       6.698   3.786  11.635  0.00  0.00    +0.000 A 
ATOM     29  C   UNL     1       5.805   3.310  12.593  0.00  0.00    +0.000 A 
ATOM     30  C   UNL     1       5.840   3.815  13.892  0.00  0.00    +0.000 A 
ENDBRANCH  24  25
ENDBRANCH  18  24
ENDBRANCH   1  18
TORSDOF 8
ENDMDL
MODEL 4
REMARK VINA RESULT:      -6.9      4.105      7.573
REMARK  Name = 
REMARK  12 active torsions:
REMARK  status: ('A' for Active; 'I' for Inactive)
REMARK    1  A    between atoms: C_1  and  N_2
REMARK    2  A    between atoms: C_3  and  C_5
REMARK    3  A    between atoms: C_5  and  C_6
REMARK    4  A    between atoms: C_5  and  N_13
REMARK    5  A    between atoms: C_6  and  C_7
REMARK    6  A    between atoms: C_14  and  C_16
REMARK    7  A    between atoms: C_16  and  C_17
REMARK    8  A    between atoms: C_17  and  S_18
REMARK    9  A    between atoms: C_21  and  C_22
REMARK   10  A    between atoms: C_22  and  C_23
REMARK   11  A    between atoms: C_22  and  C_24
REMARK   12  A    between atoms: C_22  and  C_25
REMARK                            x       y       z     vdW  Elec       q    Type
REMARK                         _______ _______ _______ _____ _____    ______ ____
ROOT
ATOM      1  N   UNL     1       5.170   4.984  17.448  0.00  0.00    +0.000 N 
ATOM      2  C   UNL     1       4.449   6.145  17.628  0.00  0.00    +0.000 C 
ATOM      3  O   UNL     1       4.972   7.233  17.370  0.00  0.00    +0.000 OA
ATOM      4  H   UNL     1       4.708   4.084  17.458  0.00  0.00    +0.000 HD
ENDROOT
BRANCH   2   5
ATOM      5  C   UNL     1       2.971   6.023  18.085  0.00  0.00    +0.000 C 
ATOM      6  C   UNL     1       2.946   6.000  19.639  0.00  0.00    +0.000 C 
ATOM      7  C   UNL     1       1.690   5.384  20.263  0.00  0.00    +0.000 C 
ATOM      8  C   UNL     1       1.305   3.994  19.726  0.00  0.00    +0.000 C 
ATOM      9  C   UNL     1       1.196   4.104  18.194  0.00  0.00    +0.000 C 
ATOM     10  C   UNL     1       2.425   4.682  17.508  0.00  0.00    +0.000 C 
BRANCH   8  11
ATOM     11  C   UNL     1       2.110   2.762  20.319  0.00  0.00    +0.000 C 
ATOM     12  C   UNL     1       1.608   2.460  21.755  0.00  0.00    +0.000 C 
ATOM     13  C   UNL     1       1.843   1.488  19.485  0.00  0.00    +0.000 C 
ATOM     14  C   UNL     1       3.633   2.943  20.416  0.00  0.00    +0.000 C 
ENDBRANCH   8  11
BRANCH   5  15
ATOM     15  C   UNL     1       2.150   7.255  17.619  0.00  0.00    +0.000 C 
BRANCH  15  16
ATOM     16  S   UNL     1       1.987   8.638  18.793  0.00  0.00    +0.000 S 
ATOM     17  H   UNL     1       1.806   9.606  17.882  0.00  0.00    +0.000 HD
ENDBRANCH  15  16
ENDBRANCH   5  15
ENDBRANCH   2   5
BRANCH   1  18
ATOM     18  C   UNL     1       6.545   5.045  16.934  0.00  0.00    +0.000 C 
BRANCH  18  21
ATOM     19  C   UNL     1       8.533   7.699  18.811  0.00  0.00    +0.000 C 
ATOM     20  N   UNL     1       7.716   6.968  17.880  0.00  0.00    +0.000 N 
ATOM     21  C   UNL     1       7.451   5.622  18.036  0.00  0.00    +0.000 C 
ATOM     22  O   UNL     1       7.945   4.940  18.931  0.00  0.00    +0.000 OA
ATOM     23  H   UNL     1       7.374   7.428  17.036  0.00  0.00    +0.000 HD
ENDBRANCH  18  21
BRANCH  18  24
ATOM     24  C   UNL     1       6.678   5.875  15.644  0.00  0.00    +0.000 C 
BRANCH  24  25
ATOM     25  C   UNL     1       6.449   5.046  14.400  0.00  0.00    +0.000 A 
ATOM     26  C   UNL     1       5.269   4.306  14.259  0.00  0.00    +0.000 A 
ATOM     27  C   UNL     1       5.108   3.434  13.181  0.00  0.00    +0.000 A 
ATOM     28  C   UNL     1       6.116   3.309  12.228  0.00  0.00    +0.000 A 
ATOM     29  C   UNL     1       7.267   4.089  12.324  0.00  0.00    +0.000 A 
ATOM     30  C   UNL     1       7.428   4.965  13.397  0.00  0.00    +0.000 A 
ENDBRANCH  24  25
ENDBRANCH  18  24
ENDBRANCH   1  18
TORSDOF 8
ENDMDL
MODEL 5
REMARK VINA RESULT:      -6.8      1.912      3.306
REMARK  Name = 
REMARK  12 active torsions:
REMARK  status: ('A' for Active; 'I' for Inactive)
REMARK    1  A    between atoms: C_1  and  N_2
REMARK    2  A    between atoms: C_3  and  C_5
REMARK    3  A    between atoms: C_5  and  C_6
REMARK    4  A    between atoms: C_5  and  N_13
REMARK    5  A    between atoms: C_6  and  C_7
REMARK    6  A    between atoms: C_14  and  C_16
REMARK    7  A    between atoms: C_16  and  C_17
REMARK    8  A    between atoms: C_17  and  S_18
REMARK    9  A    between atoms: C_21  and  C_22
REMARK   10  A    between atoms: C_22  and  C_23
REMARK   11  A    between atoms: C_22  and  C_24
REMARK   12  A    between atoms: C_22  and  C_25
REMARK                            x       y       z     vdW  Elec       q    Type
REMARK                         _______ _______ _______ _____ _____    ______ ____
ROOT
ATOM      1  N   UNL     1       1.791   7.890  19.448  0.00  0.00    +0.000 N 
ATOM      2  C   UNL     1       2.645   7.794  18.370  0.00  0.00    +0.000 C 
ATOM      3  O   UNL     1       2.912   8.804  17.713  0.00  0.00    +0.000 OA
ATOM      4  H   UNL     1       1.715   7.132  20.114  0.00  0.00    +0.000 HD
ENDROOT
BRANCH   2   5
ATOM      5  C   UNL     1       3.292   6.416  18.072  0.00  0.00    +0.000 C 
ATOM      6  C   UNL     1       2.173   5.448  17.597  0.00  0.00    +0.000 C 
ATOM      7  C   UNL     1       2.491   3.957  17.747  0.00  0.00    +0.000 C 
ATOM      8  C   UNL     1       2.979   3.527  19.141  0.00  0.00    +0.000 C 
ATOM      9  C   UNL     1       4.183   4.416  19.504  0.00  0.00    +0.000 C 
ATOM     10  C   UNL     1       3.923   5.912  19.405  0.00  0.00    +0.000 C 
BRANCH   8  11
ATOM     11  C   UNL     1       1.860   3.319  20.246  0.00  0.00    +0.000 C 
ATOM     12  C   UNL     1       1.291   4.697  20.671  0.00  0.00    +0.000 C 
ATOM     13  C   UNL     1       0.673   2.514  19.670  0.00  0.00    +0.000 C 
ATOM     14  C   UNL     1       2.315   2.616  21.535  0.00  0.00    +0.000 C 
ENDBRANCH   8  11
BRANCH   5  15
ATOM     15  C   UNL     1       4.330   6.535  16.924  0.00  0.00    +0.000 C 
BRANCH  15  16
ATOM     16  S   UNL     1       6.072   6.772  17.399  0.00  0.00    +0.000 S 
ATOM     17  H   UNL     1       5.973   8.062  17.752  0.00  0.00    +0.000 HD
ENDBRANCH  15  16
ENDBRANCH   5  15
ENDBRANCH   2   5
BRANCH   1  18
ATOM     18  C   UNL     1       1.221   9.191  19.821  0.00  0.00    +0.000 C 
BRANCH  18  21
ATOM     19  C   UNL     1      -0.484  10.194  23.078  0.00  0.00    +0.000 C 
ATOM     20  N   UNL     1       0.270  10.155  21.855  0.00  0.00    +0.000 N 
ATOM     21  C   UNL     1       0.380   9.005  21.097  0.00  0.00    +0.000 C 
ATOM     22  O   UNL     1      -0.093   7.926  21.443  0.00  0.00    +0.000 OA
ATOM     23  H   UNL     1       0.804  10.973  21.562  0.00  0.00    +0.000 HD
ENDBRANCH  18  21
BRANCH  18  24
ATOM     24  C   UNL     1       0.368   9.826  18.707  0.00  0.00    +0.000 C 
BRANCH  24  25
ATOM     25  C   UNL     1       0.533  11.328  18.641  0.00  0.00    +0.000 A 
ATOM     26  C   UNL     1       1.813  11.893  18.669  0.00  0.00    +0.000 A 
ATOM     27  C   UNL     1       1.971  13.278  18.744  0.00  0.00    +0.000 A 
ATOM     28  C   UNL     1       0.852  14.108  18.776  0.00  0.00    +0.000 A 
ATOM     29  C   UNL     1      -0.425  13.557  18.684  0.00  0.00    +0.000 A 
ATOM     30  C   UNL     1      -0.585  12.175  18.602  0.00  0.00    +0.000 A 
ENDBRANCH  24  25
ENDBRANCH  18  24
ENDBRANCH   1  18
TORSDOF 8
ENDMDL
MODEL 6
REMARK VINA RESULT:      -6.7      3.951      7.446
REMARK  Name = 
REMARK  12 active torsions:
REMARK  status: ('A' for Active; 'I' for Inactive)
REMARK    1  A    between atoms: C_1  and  N_2
REMARK    2  A    between atoms: C_3  and  C_5
REMARK    3  A    between atoms: C_5  and  C_6
REMARK    4  A    between atoms: C_5  and  N_13
REMARK    5  A    between atoms: C_6  and  C_7
REMARK    6  A    between atoms: C_14  and  C_16
REMARK    7  A    between atoms: C_16  and  C_17
REMARK    8  A    between atoms: C_17  and  S_18
REMARK    9  A    between atoms: C_21  and  C_22
REMARK   10  A    between atoms: C_22  and  C_23
REMARK   11  A    between atoms: C_22  and  C_24
REMARK   12  A    between atoms: C_22  and  C_25
REMARK                            x       y       z     vdW  Elec       q    Type
REMARK                         _______ _______ _______ _____ _____    ______ ____
ROOT
ATOM      1  N   UNL     1       5.012   5.366  17.542  0.00  0.00    +0.000 N 
ATOM      2  C   UNL     1       4.124   6.420  17.514  0.00  0.00    +0.000 C 
ATOM      3  O   UNL     1       4.437   7.465  16.936  0.00  0.00    +0.000 OA
ATOM      4  H   UNL     1       4.708   4.445  17.828  0.00  0.00    +0.000 HD
ENDROOT
BRANCH   2   5
ATOM      5  C   UNL     1       2.727   6.215  18.158  0.00  0.00    +0.000 C 
ATOM      6  C   UNL     1       2.911   6.134  19.699  0.00  0.00    +0.000 C 
ATOM      7  C   UNL     1       1.776   5.440  20.458  0.00  0.00    +0.000 C 
ATOM      8  C   UNL     1       1.378   4.055  19.919  0.00  0.00    +0.000 C 
ATOM      9  C   UNL     1       1.060   4.216  18.421  0.00  0.00    +0.000 C 
ATOM     10  C   UNL     1       2.162   4.872  17.603  0.00  0.00    +0.000 C 
BRANCH   8  11
ATOM     11  C   UNL     1       2.303   2.840  20.347  0.00  0.00    +0.000 C 
ATOM     12  C   UNL     1       2.019   1.625  19.427  0.00  0.00    +0.000 C 
ATOM     13  C   UNL     1       3.793   3.198  20.152  0.00  0.00    +0.000 C 
ATOM     14  C   UNL     1       2.130   2.346  21.792  0.00  0.00    +0.000 C 
ENDBRANCH   8  11
BRANCH   5  15
ATOM     15  C   UNL     1       1.802   7.425  17.857  0.00  0.00    +0.000 C 
BRANCH  15  16
ATOM     16  S   UNL     1       1.828   8.807  19.043  0.00  0.00    +0.000 S 
ATOM     17  H   UNL     1       0.701   8.485  19.695  0.00  0.00    +0.000 HD
ENDBRANCH  15  16
ENDBRANCH   5  15
ENDBRANCH   2   5
BRANCH   1  18
ATOM     18  C   UNL     1       6.313   5.483  16.872  0.00  0.00    +0.000 C 
BRANCH  18  21
ATOM     19  C   UNL     1       8.263   8.537  18.051  0.00  0.00    +0.000 C 
ATOM     20  N   UNL     1       7.432   7.603  17.340  0.00  0.00    +0.000 N 
ATOM     21  C   UNL     1       7.253   6.304  17.773  0.00  0.00    +0.000 C 
ATOM     22  O   UNL     1       7.839   5.833  18.745  0.00  0.00    +0.000 OA
ATOM     23  H   UNL     1       7.013   7.872  16.450  0.00  0.00    +0.000 HD
ENDBRANCH  18  21
BRANCH  18  24
ATOM     24  C   UNL     1       6.224   6.120  15.472  0.00  0.00    +0.000 C 
BRANCH  24  25
ATOM     25  C   UNL     1       6.296   5.091  14.366  0.00  0.00    +0.000 A 
ATOM     26  C   UNL     1       7.392   5.076  13.495  0.00  0.00    +0.000 A 
ATOM     27  C   UNL     1       7.404   4.221  12.392  0.00  0.00    +0.000 A 
ATOM     28  C   UNL     1       6.330   3.364  12.161  0.00  0.00    +0.000 A 
ATOM     29  C   UNL     1       5.264   3.326  13.058  0.00  0.00    +0.000 A 
ATOM     30  C   UNL     1       5.252   4.175  14.164  0.00  0.00    +0.000 A 
ENDBRANCH  24  25
ENDBRANCH  18  24
ENDBRANCH   1  18
TORSDOF 8
ENDMDL
MODEL 7
REMARK VINA RESULT:      -6.7      2.104      2.959
REMARK  Name = 
REMARK  12 active torsions:
REMARK  status: ('A' for Active; 'I' for Inactive)
REMARK    1  A    between atoms: C_1  and  N_2
REMARK    2  A    between atoms: C_3  and  C_5
REMARK    3  A    between atoms: C_5  and  C_6
REMARK    4  A    between atoms: C_5  and  N_13
REMARK    5  A    between atoms: C_6  and  C_7
REMARK    6  A    between atoms: C_14  and  C_16
REMARK    7  A    between atoms: C_16  and  C_17
REMARK    8  A    between atoms: C_17  and  S_18
REMARK    9  A    between atoms: C_21  and  C_22
REMARK   10  A    between atoms: C_22  and  C_23
REMARK   11  A    between atoms: C_22  and  C_24
REMARK   12  A    between atoms: C_22  and  C_25
REMARK                            x       y       z     vdW  Elec       q    Type
REMARK                         _______ _______ _______ _____ _____    ______ ____
ROOT
ATOM      1  N   UNL     1       0.977   8.680  19.012  0.00  0.00    +0.000 N 
ATOM      2  C   UNL     1       1.958   8.083  18.250  0.00  0.00    +0.000 C 
ATOM      3  O   UNL     1       2.320   8.616  17.197  0.00  0.00    +0.000 OA
ATOM      4  H   UNL     1       0.808   8.377  19.963  0.00  0.00    +0.000 HD
ENDROOT
BRANCH   2   5
ATOM      5  C   UNL     1       2.619   6.788  18.793  0.00  0.00    +0.000 C 
ATOM      6  C   UNL     1       4.146   7.045  18.932  0.00  0.00    +0.000 C 
ATOM      7  C   UNL     1       5.021   5.789  18.953  0.00  0.00    +0.000 C 
ATOM      8  C   UNL     1       4.773   4.797  17.801  0.00  0.00    +0.000 C 
ATOM      9  C   UNL     1       3.271   4.458  17.799  0.00  0.00    +0.000 C 
ATOM     10  C   UNL     1       2.345   5.664  17.749  0.00  0.00    +0.000 C 
BRANCH   8  11
ATOM     11  C   UNL     1       5.448   5.150  16.411  0.00  0.00    +0.000 C 
ATOM     12  C   UNL     1       6.991   5.130  16.565  0.00  0.00    +0.000 C 
ATOM     13  C   UNL     1       5.100   4.080  15.351  0.00  0.00    +0.000 C 
ATOM     14  C   UNL     1       5.085   6.522  15.820  0.00  0.00    +0.000 C 
ENDBRANCH   8  11
BRANCH   5  15
ATOM     15  C   UNL     1       2.070   6.444  20.204  0.00  0.00    +0.000 C 
BRANCH  15  16
ATOM     16  S   UNL     1       1.382   4.775  20.444  0.00  0.00    +0.000 S 
ATOM     17  H   UNL     1       0.160   5.027  19.953  0.00  0.00    +0.000 HD
ENDBRANCH  15  16
ENDBRANCH   5  15
ENDBRANCH   2   5
BRANCH   1  18
ATOM     18  C   UNL     1       0.383   9.952  18.581  0.00  0.00    +0.000 C 
BRANCH  18  21
ATOM     19  C   UNL     1       2.875  12.810  18.205  0.00  0.00    +0.000 C 
ATOM     20  N   UNL     1       1.974  11.709  17.993  0.00  0.00    +0.000 N 
ATOM     21  C   UNL     1       1.306  11.098  19.035  0.00  0.00    +0.000 C 
ATOM     22  O   UNL     1       1.482  11.397  20.213  0.00  0.00    +0.000 OA
ATOM     23  H   UNL     1       1.870  11.312  17.060  0.00  0.00    +0.000 HD
ENDBRANCH  18  21
BRANCH  18  24
ATOM     24  C   UNL     1      -1.044  10.171  19.117  0.00  0.00    +0.000 C 
BRANCH  24  25
ATOM     25  C   UNL     1      -2.052  10.364  18.007  0.00  0.00    +0.000 A 
ATOM     26  C   UNL     1      -1.852   9.750  16.765  0.00  0.00    +0.000 A 
ATOM     27  C   UNL     1      -2.703  10.029  15.694  0.00  0.00    +0.000 A 
ATOM     28  C   UNL     1      -3.769  10.911  15.861  0.00  0.00    +0.000 A 
ATOM     29  C   UNL     1      -4.014  11.478  17.111  0.00  0.00    +0.000 A 
ATOM     30  C   UNL     1      -3.169  11.196  18.183  0.00  0.00    +0.000 A 
ENDBRANCH  24  25
ENDBRANCH  18  24
ENDBRANCH   1  18
TORSDOF 8
ENDMDL
MODEL 8
REMARK VINA RESULT:      -6.7      3.928      6.737
REMARK  Name = 
REMARK  12 active torsions:
REMARK  status: ('A' for Active; 'I' for Inactive)
REMARK    1  A    between atoms: C_1  and  N_2
REMARK    2  A    between atoms: C_3  and  C_5
REMARK    3  A    between atoms: C_5  and  C_6
REMARK    4  A    between atoms: C_5  and  N_13
REMARK    5  A    between atoms: C_6  and  C_7
REMARK    6  A    between atoms: C_14  and  C_16
REMARK    7  A    between atoms: C_16  and  C_17
REMARK    8  A    between atoms: C_17  and  S_18
REMARK    9  A    between atoms: C_21  and  C_22
REMARK   10  A    between atoms: C_22  and  C_23
REMARK   11  A    between atoms: C_22  and  C_24
REMARK   12  A    between atoms: C_22  and  C_25
REMARK                            x       y       z     vdW  Elec       q    Type
REMARK                         _______ _______ _______ _____ _____    ______ ____
ROOT
ATOM      1  N   UNL     1       5.500   6.560  18.055  0.00  0.00    +0.000 N 
ATOM      2  C   UNL     1       4.336   6.810  17.360  0.00  0.00    +0.000 C 
ATOM      3  O   UNL     1       4.398   7.234  16.203  0.00  0.00    +0.000 OA
ATOM      4  H   UNL     1       5.480   6.030  18.917  0.00  0.00    +0.000 HD
ENDROOT
BRANCH   2   5
ATOM      5  C   UNL     1       2.987   6.476  18.050  0.00  0.00    +0.000 C 
ATOM      6  C   UNL     1       3.254   6.286  19.570  0.00  0.00    +0.000 C 
ATOM      7  C   UNL     1       2.198   5.472  20.322  0.00  0.00    +0.000 C 
ATOM      8  C   UNL     1       1.847   4.112  19.693  0.00  0.00    +0.000 C 
ATOM      9  C   UNL     1       1.444   4.370  18.229  0.00  0.00    +0.000 C 
ATOM     10  C   UNL     1       2.467   5.150  17.416  0.00  0.00    +0.000 C 
BRANCH   8  11
ATOM     11  C   UNL     1       2.856   2.922  19.978  0.00  0.00    +0.000 C 
ATOM     12  C   UNL     1       2.746   2.497  21.465  0.00  0.00    +0.000 C 
ATOM     13  C   UNL     1       2.480   1.679  19.139  0.00  0.00    +0.000 C 
ATOM     14  C   UNL     1       4.340   3.227  19.718  0.00  0.00    +0.000 C 
ENDBRANCH   8  11
BRANCH   5  15
ATOM     15  C   UNL     1       1.985   7.651  17.891  0.00  0.00    +0.000 C 
BRANCH  15  16
ATOM     16  S   UNL     1       1.750   8.743  19.329  0.00  0.00    +0.000 S 
ATOM     17  H   UNL     1       1.471   9.861  18.643  0.00  0.00    +0.000 HD
ENDBRANCH  15  16
ENDBRANCH   5  15
ENDBRANCH   2   5
BRANCH   1  18
ATOM     18  C   UNL     1       6.802   6.779  17.413  0.00  0.00    +0.000 C 
BRANCH  18  21
ATOM     19  C   UNL     1       6.931   4.492  14.367  0.00  0.00    +0.000 C 
ATOM     20  N   UNL     1       6.693   5.563  15.297  0.00  0.00    +0.000 N 
ATOM     21  C   UNL     1       7.159   5.523  16.597  0.00  0.00    +0.000 C 
ATOM     22  O   UNL     1       7.742   4.552  17.071  0.00  0.00    +0.000 OA
ATOM     23  H   UNL     1       6.103   6.349  15.025  0.00  0.00    +0.000 HD
ENDBRANCH  18  21
BRANCH  18  24
ATOM     24  C   UNL     1       7.928   7.104  18.412  0.00  0.00    +0.000 C 
BRANCH  24  25
ATOM     25  C   UNL     1       8.326   8.562  18.376  0.00  0.00    +0.000 A 
ATOM     26  C   UNL     1       9.193   9.076  19.348  0.00  0.00    +0.000 A 
ATOM     27  C   UNL     1       9.459  10.445  19.403  0.00  0.00    +0.000 A 
ATOM     28  C   UNL     1       8.875  11.308  18.478  0.00  0.00    +0.000 A 
ATOM     29  C   UNL     1       8.061  10.797  17.467  0.00  0.00    +0.000 A 
ATOM     30  C   UNL     1       7.799   9.430  17.407  0.00  0.00    +0.000 A 
ENDBRANCH  24  25
ENDBRANCH  18  24
ENDBRANCH   1  18
TORSDOF 8
ENDMDL
MODEL 9
REMARK VINA RESULT:      -6.7      0.639      1.051
REMARK  Name = 
REMARK  12 active torsions:
REMARK  status: ('A' for Active; 'I' for Inactive)
REMARK    1  A    between atoms: C_1  and  N_2
REMARK    2  A    between atoms: C_3  and  C_5
REMARK    3  A    between atoms: C_5  and  C_6
REMARK    4  A    between atoms: C_5  and  N_13
REMARK    5  A    between atoms: C_6  and  C_7
REMARK    6  A    between atoms: C_14  and  C_16
REMARK    7  A    between atoms: C_16  and  C_17
REMARK    8  A    between atoms: C_17  and  S_18
REMARK    9  A    between atoms: C_21  and  C_22
REMARK   10  A    between atoms: C_22  and  C_23
REMARK   11  A    between atoms: C_22  and  C_24
REMARK   12  A    between atoms: C_22  and  C_25
REMARK                            x       y       z     vdW  Elec       q    Type
REMARK                         _______ _______ _______ _____ _____    ______ ____
ROOT
ATOM      1  N   UNL     1       1.708   7.861  19.908  0.00  0.00    +0.000 N 
ATOM      2  C   UNL     1       2.529   7.304  18.951  0.00  0.00    +0.000 C 
ATOM      3  O   UNL     1       2.978   8.013  18.046  0.00  0.00    +0.000 OA
ATOM      4  H   UNL     1       1.494   7.358  20.759  0.00  0.00    +0.000 HD
ENDROOT
BRANCH   2   5
ATOM      5  C   UNL     1       2.910   5.807  19.098  0.00  0.00    +0.000 C 
ATOM      6  C   UNL     1       4.424   5.723  19.439  0.00  0.00    +0.000 C 
ATOM      7  C   UNL     1       5.092   4.382  19.123  0.00  0.00    +0.000 C 
ATOM      8  C   UNL     1       4.860   3.853  17.697  0.00  0.00    +0.000 C 
ATOM      9  C   UNL     1       3.339   3.812  17.460  0.00  0.00    +0.000 C 
ATOM     10  C   UNL     1       2.618   5.125  17.727  0.00  0.00    +0.000 C 
BRANCH   8  11
ATOM     11  C   UNL     1       5.765   4.483  16.556  0.00  0.00    +0.000 C 
ATOM     12  C   UNL     1       5.752   3.555  15.315  0.00  0.00    +0.000 C 
ATOM     13  C   UNL     1       5.188   5.840  16.094  0.00  0.00    +0.000 C 
ATOM     14  C   UNL     1       7.241   4.707  16.921  0.00  0.00    +0.000 C 
ENDBRANCH   8  11
BRANCH   5  15
ATOM     15  C   UNL     1       2.127   5.155  20.270  0.00  0.00    +0.000 C 
BRANCH  15  16
ATOM     16  S   UNL     1       1.053   3.741  19.868  0.00  0.00    +0.000 S 
ATOM     17  H   UNL     1      -0.119   4.367  20.049  0.00  0.00    +0.000 HD
ENDBRANCH  15  16
ENDBRANCH   5  15
ENDBRANCH   2   5
BRANCH   1  18
ATOM     18  C   UNL     1       1.389   9.294  19.859  0.00  0.00    +0.000 C 
BRANCH  18  21
ATOM     19  C   UNL     1      -0.633   9.227  23.088  0.00  0.00    +0.000 C 
ATOM     20  N   UNL     1      -0.083   8.980  21.783  0.00  0.00    +0.000 N 
ATOM     21  C   UNL     1       0.946   9.741  21.264  0.00  0.00    +0.000 C 
ATOM     22  O   UNL     1       1.413  10.719  21.841  0.00  0.00    +0.000 OA
ATOM     23  H   UNL     1      -0.502   8.270  21.182  0.00  0.00    +0.000 HD
ENDBRANCH  18  21
BRANCH  18  24
ATOM     24  C   UNL     1       0.307   9.643  18.821  0.00  0.00    +0.000 C 
BRANCH  24  25
ATOM     25  C   UNL     1      -0.043  11.114  18.827  0.00  0.00    +0.000 A 
ATOM     26  C   UNL     1       0.938  12.069  18.533  0.00  0.00    +0.000 A 
ATOM     27  C   UNL     1       0.661  13.430  18.667  0.00  0.00    +0.000 A 
ATOM     28  C   UNL     1      -0.602  13.848  19.081  0.00  0.00    +0.000 A 
ATOM     29  C   UNL     1      -1.605  12.907  19.314  0.00  0.00    +0.000 A 
ATOM     30  C   UNL     1      -1.331  11.548  19.174  0.00  0.00    +0.000 A 
ENDBRANCH  24  25
ENDBRANCH  18  24
ENDBRANCH   1  18
TORSDOF 8
ENDMDL
