MODEL 1
REMARK VINA RESULT:      -9.4      0.000      0.000
REMARK  Name = 
REMARK  9 active torsions:
REMARK  status: ('A' for Active; 'I' for Inactive)
REMARK    1  A    between atoms: C_1  and  N_2
REMARK    2  A    between atoms: N_2  and  C_3
REMARK    3  A    between atoms: N_2  and  C_4
REMARK    4  A    between atoms: C_4  and  C_5
REMARK    5  A    between atoms: C_5  and  C_6
REMARK    6  A    between atoms: C_6  and  N_7
REMARK    7  A    between atoms: C_6  and  C_18
REMARK    8  A    between atoms: C_8  and  C_10
REMARK    9  A    between atoms: C_11  and  C_12
REMARK                            x       y       z     vdW  Elec       q    Type
REMARK                         _______ _______ _______ _____ _____    ______ ____
ROOT
ATOM      1  C   UNL     1       6.115   5.812  16.676  0.00  0.00    +0.000 C 
ENDROOT
BRANCH   1   2
ATOM      2  C   UNL     1       4.899   5.637  17.595  0.00  0.00    +0.000 A 
ATOM      3  C   UNL     1       3.903   6.617  17.665  0.00  0.00    +0.000 A 
ATOM      4  C   UNL     1       2.811   6.458  18.529  0.00  0.00    +0.000 A 
ATOM      5  C   UNL     1       2.677   5.309  19.333  0.00  0.00    +0.000 A 
ATOM      6  C   UNL     1       1.589   5.114  20.201  0.00  0.00    +0.000 A 
ATOM      7  C   UNL     1       1.487   3.955  20.976  0.00  0.00    +0.000 A 
ATOM      8  C   UNL     1       2.468   2.972  20.899  0.00  0.00    +0.000 A 
ATOM      9  C   UNL     1       3.553   3.149  20.045  0.00  0.00    +0.000 A 
ATOM     10  C   UNL     1       3.664   4.310  19.261  0.00  0.00    +0.000 A 
ATOM     11  C   UNL     1       4.748   4.489  18.400  0.00  0.00    +0.000 A 
ENDBRANCH   1   2
BRANCH   1  12
ATOM     12  N   UNL     1       6.779   7.096  16.876  0.00  0.00    +0.000 N 
ATOM     13  C   UNL     1       7.653   7.326  17.901  0.00  0.00    +0.000 C 
ATOM     14  O   UNL     1       8.006   6.490  18.722  0.00  0.00    +0.000 OA
ATOM     15  H   UNL     1       6.392   7.904  16.395  0.00  0.00    +0.000 HD
BRANCH  13  16
ATOM     16  C   UNL     1       8.153   8.664  18.069  0.00  0.00    +0.000 C 
ATOM     17  C   UNL     1       8.727   9.682  18.349  0.00  0.00    +0.000 C 
BRANCH  17  18
ATOM     18  C   UNL     1       9.499  10.780  18.833  0.00  0.00    +0.000 A 
ATOM     19  C   UNL     1       9.867  11.797  17.952  0.00  0.00    +0.000 A 
ATOM     20  C   UNL     1      10.575  12.903  18.418  0.00  0.00    +0.000 A 
ATOM     21  C   UNL     1      10.910  12.994  19.770  0.00  0.00    +0.000 A 
ATOM     22  C   UNL     1      10.521  11.991  20.658  0.00  0.00    +0.000 A 
ATOM     23  C   UNL     1       9.810  10.884  20.190  0.00  0.00    +0.000 A 
ENDBRANCH  17  18
ENDBRANCH  13  16
ENDBRANCH   1  12
BRANCH   1  24
ATOM     24  C   UNL     1       5.738   5.541  15.203  0.00  0.00    +0.000 C 
BRANCH  24  25
ATOM     25  C   UNL     1       5.661   4.080  14.768  0.00  0.00    +0.000 C 
BRANCH  25  27
ATOM     26  C   UNL     1       5.698   3.434  12.435  0.00  0.00    +0.000 C 
ATOM     27  N   UNL     1       6.510   3.724  13.622  0.00  0.00    +0.000 NA
ATOM     28  C   UNL     1       7.408   4.849  13.327  0.00  0.00    +0.000 C 
ENDBRANCH  25  27
ENDBRANCH  24  25
ENDBRANCH   1  24
TORSDOF 7
ENDMDL
MODEL 2
REMARK VINA RESULT:      -9.1      1.195      1.618
REMARK  Name = 
REMARK  9 active torsions:
REMARK  status: ('A' for Active; 'I' for Inactive)
REMARK    1  A    between atoms: C_1  and  N_2
REMARK    2  A    between atoms: N_2  and  C_3
REMARK    3  A    between atoms: N_2  and  C_4
REMARK    4  A    between atoms: C_4  and  C_5
REMARK    5  A    between atoms: C_5  and  C_6
REMARK    6  A    between atoms: C_6  and  N_7
REMARK    7  A    between atoms: C_6  and  C_18
REMARK    8  A    between atoms: C_8  and  C_10
REMARK    9  A    between atoms: C_11  and  C_12
REMARK                            x       y       z     vdW  Elec       q    Type
REMARK                         _______ _______ _______ _____ _____    ______ ____
ROOT
ATOM      1  C   UNL     1       6.262   5.529  16.136  0.00  0.00    +0.000 C 
ENDROOT
BRANCH   1   2
ATOM      2  C   UNL     1       4.954   5.196  16.866  0.00  0.00    +0.000 A 
ATOM      3  C   UNL     1       4.128   6.211  17.362  0.00  0.00    +0.000 A 
ATOM      4  C   UNL     1       2.949   5.893  18.051  0.00  0.00    +0.000 A 
ATOM      5  C   UNL     1       2.556   4.555  18.247  0.00  0.00    +0.000 A 
ATOM      6  C   UNL     1       1.375   4.204  18.923  0.00  0.00    +0.000 A 
ATOM      7  C   UNL     1       1.014   2.864  19.089  0.00  0.00    +0.000 A 
ATOM      8  C   UNL     1       1.825   1.852  18.586  0.00  0.00    +0.000 A 
ATOM      9  C   UNL     1       2.998   2.182  17.914  0.00  0.00    +0.000 A 
ATOM     10  C   UNL     1       3.369   3.526  17.741  0.00  0.00    +0.000 A 
ATOM     11  C   UNL     1       4.543   3.862  17.063  0.00  0.00    +0.000 A 
ENDBRANCH   1   2
BRANCH   1  12
ATOM     12  N   UNL     1       6.826   6.804  16.568  0.00  0.00    +0.000 N 
ATOM     13  C   UNL     1       7.580   6.933  17.700  0.00  0.00    +0.000 C 
ATOM     14  O   UNL     1       7.898   6.013  18.440  0.00  0.00    +0.000 OA
ATOM     15  H   UNL     1       6.442   7.649  16.156  0.00  0.00    +0.000 HD
BRANCH  13  16
ATOM     16  C   UNL     1       7.982   8.258  18.089  0.00  0.00    +0.000 C 
ATOM     17  C   UNL     1       8.534   9.283  18.389  0.00  0.00    +0.000 C 
BRANCH  17  18
ATOM     18  C   UNL     1       9.362  10.384  18.761  0.00  0.00    +0.000 A 
ATOM     19  C   UNL     1       9.469  10.735  20.107  0.00  0.00    +0.000 A 
ATOM     20  C   UNL     1      10.313  11.774  20.493  0.00  0.00    +0.000 A 
ATOM     21  C   UNL     1      11.057  12.459  19.532  0.00  0.00    +0.000 A 
ATOM     22  C   UNL     1      10.970  12.095  18.188  0.00  0.00    +0.000 A 
ATOM     23  C   UNL     1      10.125  11.053  17.802  0.00  0.00    +0.000 A 
ENDBRANCH  17  18
ENDBRANCH  13  16
ENDBRANCH   1  12
BRANCH   1  24
ATOM     24  C   UNL     1       6.082   5.426  14.606  0.00  0.00    +0.000 C 
BRANCH  24  25
ATOM     25  C   UNL     1       6.037   4.022  14.009  0.00  0.00    +0.000 C 
BRANCH  25  27
ATOM     26  C   UNL     1       7.192   3.297  12.008  0.00  0.00    +0.000 C 
ATOM     27  N   UNL     1       6.000   3.967  12.541  0.00  0.00    +0.000 NA
ATOM     28  C   UNL     1       4.803   3.225  12.122  0.00  0.00    +0.000 C 
ENDBRANCH  25  27
ENDBRANCH  24  25
ENDBRANCH   1  24
TORSDOF 7
ENDMDL
MODEL 3
REMARK VINA RESULT:      -9.0      0.856      1.050
REMARK  Name = 
REMARK  9 active torsions:
REMARK  status: ('A' for Active; 'I' for Inactive)
REMARK    1  A    between atoms: C_1  and  N_2
REMARK    2  A    between atoms: N_2  and  C_3
REMARK    3  A    between atoms: N_2  and  C_4
REMARK    4  A    between atoms: C_4  and  C_5
REMARK    5  A    between atoms: C_5  and  C_6
REMARK    6  A    between atoms: C_6  and  N_7
REMARK    7  A    between atoms: C_6  and  C_18
REMARK    8  A    between atoms: C_8  and  C_10
REMARK    9  A    between atoms: C_11  and  C_12
REMARK                            x       y       z     vdW  Elec       q    Type
REMARK                         _______ _______ _______ _____ _____    ______ ____
ROOT
ATOM      1  C   UNL     1       6.169   5.761  16.782  0.00  0.00    +0.000 C 
ENDROOT
BRANCH   1   2
ATOM      2  C   UNL     1       4.969   5.537  17.711  0.00  0.00    +0.000 A 
ATOM      3  C   UNL     1       3.948   6.488  17.810  0.00  0.00    +0.000 A 
ATOM      4  C   UNL     1       2.869   6.284  18.683  0.00  0.00    +0.000 A 
ATOM      5  C   UNL     1       2.775   5.116  19.465  0.00  0.00    +0.000 A 
ATOM      6  C   UNL     1       1.702   4.877  20.341  0.00  0.00    +0.000 A 
ATOM      7  C   UNL     1       1.639   3.700  21.094  0.00  0.00    +0.000 A 
ATOM      8  C   UNL     1       2.646   2.746  20.989  0.00  0.00    +0.000 A 
ATOM      9  C   UNL     1       3.716   2.968  20.127  0.00  0.00    +0.000 A 
ATOM     10  C   UNL     1       3.787   4.146  19.365  0.00  0.00    +0.000 A 
ATOM     11  C   UNL     1       4.857   4.370  18.495  0.00  0.00    +0.000 A 
ENDBRANCH   1   2
BRANCH   1  12
ATOM     12  N   UNL     1       6.717   7.109  16.904  0.00  0.00    +0.000 N 
ATOM     13  C   UNL     1       7.634   7.451  17.857  0.00  0.00    +0.000 C 
ATOM     14  O   UNL     1       8.124   6.678  18.670  0.00  0.00    +0.000 OA
ATOM     15  H   UNL     1       6.220   7.861  16.435  0.00  0.00    +0.000 HD
BRANCH  13  16
ATOM     16  C   UNL     1       8.012   8.835  17.957  0.00  0.00    +0.000 C 
ATOM     17  C   UNL     1       8.539   9.916  17.978  0.00  0.00    +0.000 C 
BRANCH  17  18
ATOM     18  C   UNL     1       9.343  11.094  17.993  0.00  0.00    +0.000 A 
ATOM     19  C   UNL     1      10.725  10.975  18.145  0.00  0.00    +0.000 A 
ATOM     20  C   UNL     1      11.531  12.112  18.109  0.00  0.00    +0.000 A 
ATOM     21  C   UNL     1      10.955  13.368  17.917  0.00  0.00    +0.000 A 
ATOM     22  C   UNL     1       9.576  13.486  17.740  0.00  0.00    +0.000 A 
ATOM     23  C   UNL     1       8.769  12.348  17.774  0.00  0.00    +0.000 A 
ENDBRANCH  17  18
ENDBRANCH  13  16
ENDBRANCH   1  12
BRANCH   1  24
ATOM     24  C   UNL     1       5.824   5.370  15.329  0.00  0.00    +0.000 C 
BRANCH  24  25
ATOM     25  C   UNL     1       6.148   3.940  14.904  0.00  0.00    +0.000 C 
BRANCH  25  27
ATOM     26  C   UNL     1       5.409   3.703  12.611  0.00  0.00    +0.000 C 
ATOM     27  N   UNL     1       6.570   3.785  13.505  0.00  0.00    +0.000 NA
ATOM     28  C   UNL     1       7.390   4.942  13.123  0.00  0.00    +0.000 C 
ENDBRANCH  25  27
ENDBRANCH  24  25
ENDBRANCH   1  24
TORSDOF 7
ENDMDL
MODEL 4
REMARK VINA RESULT:      -8.8      4.647      7.034
REMARK  Name = 
REMARK  9 active torsions:
REMARK  status: ('A' for Active; 'I' for Inactive)
REMARK    1  A    between atoms: C_1  and  N_2
REMARK    2  A    between atoms: N_2  and  C_3
REMARK    3  A    between atoms: N_2  and  C_4
REMARK    4  A    between atoms: C_4  and  C_5
REMARK    5  A    between atoms: C_5  and  C_6
REMARK    6  A    between atoms: C_6  and  N_7
REMARK    7  A    between atoms: C_6  and  C_18
REMARK    8  A    between atoms: C_8  and  C_10
REMARK    9  A    between atoms: C_11  and  C_12
REMARK                            x       y       z     vdW  Elec       q    Type
REMARK                         _______ _______ _______ _____ _____    ______ ____
ROOT
ATOM      1  C   UNL     1       3.179   5.761  19.693  0.00  0.00    +0.000 C 
ENDROOT
BRANCH   1   2
ATOM      2  C   UNL     1       2.444   7.075  19.400  0.00  0.00    +0.000 A 
ATOM      3  C   UNL     1       2.485   7.656  18.128  0.00  0.00    +0.000 A 
ATOM      4  C   UNL     1       1.832   8.872  17.881  0.00  0.00    +0.000 A 
ATOM      5  C   UNL     1       1.107   9.530  18.894  0.00  0.00    +0.000 A 
ATOM      6  C   UNL     1       0.432  10.743  18.675  0.00  0.00    +0.000 A 
ATOM      7  C   UNL     1      -0.285  11.361  19.704  0.00  0.00    +0.000 A 
ATOM      8  C   UNL     1      -0.340  10.781  20.967  0.00  0.00    +0.000 A 
ATOM      9  C   UNL     1       0.324   9.579  21.200  0.00  0.00    +0.000 A 
ATOM     10  C   UNL     1       1.045   8.950  20.173  0.00  0.00    +0.000 A 
ATOM     11  C   UNL     1       1.708   7.742  20.402  0.00  0.00    +0.000 A 
ENDBRANCH   1   2
BRANCH   1  12
ATOM     12  N   UNL     1       3.808   5.203  18.500  0.00  0.00    +0.000 N 
ATOM     13  C   UNL     1       5.161   5.055  18.378  0.00  0.00    +0.000 C 
ATOM     14  O   UNL     1       5.978   5.324  19.248  0.00  0.00    +0.000 OA
ATOM     15  H   UNL     1       3.250   5.159  17.652  0.00  0.00    +0.000 HD
BRANCH  13  16
ATOM     16  C   UNL     1       5.675   4.606  17.112  0.00  0.00    +0.000 C 
ATOM     17  C   UNL     1       6.041   4.441  15.978  0.00  0.00    +0.000 C 
BRANCH  17  18
ATOM     18  C   UNL     1       6.364   4.416  14.589  0.00  0.00    +0.000 A 
ATOM     19  C   UNL     1       7.438   5.176  14.124  0.00  0.00    +0.000 A 
ATOM     20  C   UNL     1       7.801   5.122  12.780  0.00  0.00    +0.000 A 
ATOM     21  C   UNL     1       7.092   4.303  11.900  0.00  0.00    +0.000 A 
ATOM     22  C   UNL     1       6.034   3.523  12.368  0.00  0.00    +0.000 A 
ATOM     23  C   UNL     1       5.672   3.576  13.715  0.00  0.00    +0.000 A 
ENDBRANCH  17  18
ENDBRANCH  13  16
ENDBRANCH   1  12
BRANCH   1  24
ATOM     24  C   UNL     1       2.253   4.761  20.421  0.00  0.00    +0.000 C 
BRANCH  24  25
ATOM     25  C   UNL     1       2.555   3.277  20.230  0.00  0.00    +0.000 C 
BRANCH  25  27
ATOM     26  C   UNL     1       3.212   1.646  18.566  0.00  0.00    +0.000 C 
ATOM     27  N   UNL     1       2.308   2.759  18.876  0.00  0.00    +0.000 NA
ATOM     28  C   UNL     1       0.919   2.287  18.794  0.00  0.00    +0.000 C 
ENDBRANCH  25  27
ENDBRANCH  24  25
ENDBRANCH   1  24
TORSDOF 7
ENDMDL
MODEL 5
REMARK VINA RESULT:      -8.6      0.739      1.815
REMARK  Name = 
REMARK  9 active torsions:
REMARK  status: ('A' for Active; 'I' for Inactive)
REMARK    1  A    between atoms: C_1  and  N_2
REMARK    2  A    between atoms: N_2  and  C_3
REMARK    3  A    between atoms: N_2  and  C_4
REMARK    4  A    between atoms: C_4  and  C_5
REMARK    5  A    between atoms: C_5  and  C_6
REMARK    6  A    between atoms: C_6  and  N_7
REMARK    7  A    between atoms: C_6  and  C_18
REMARK    8  A    between atoms: C_8  and  C_10
REMARK    9  A    between atoms: C_11  and  C_12
REMARK                            x       y       z     vdW  Elec       q    Type
REMARK                         _______ _______ _______ _____ _____    ______ ____
ROOT
ATOM      1  C   UNL     1       6.332   5.486  16.482  0.00  0.00    +0.000 C 
ENDROOT
BRANCH   1   2
ATOM      2  C   UNL     1       5.204   5.133  17.460  0.00  0.00    +0.000 A 
ATOM      3  C   UNL     1       4.929   3.802  17.792  0.00  0.00    +0.000 A 
ATOM      4  C   UNL     1       3.878   3.491  18.666  0.00  0.00    +0.000 A 
ATOM      5  C   UNL     1       3.085   4.502  19.244  0.00  0.00    +0.000 A 
ATOM      6  C   UNL     1       2.032   4.223  20.131  0.00  0.00    +0.000 A 
ATOM      7  C   UNL     1       1.275   5.256  20.693  0.00  0.00    +0.000 A 
ATOM      8  C   UNL     1       1.553   6.582  20.376  0.00  0.00    +0.000 A 
ATOM      9  C   UNL     1       2.593   6.874  19.498  0.00  0.00    +0.000 A 
ATOM     10  C   UNL     1       3.361   5.844  18.931  0.00  0.00    +0.000 A 
ATOM     11  C   UNL     1       4.408   6.134  18.053  0.00  0.00    +0.000 A 
ENDBRANCH   1   2
BRANCH   1  12
ATOM     12  N   UNL     1       6.902   6.803  16.749  0.00  0.00    +0.000 N 
ATOM     13  C   UNL     1       7.694   7.061  17.832  0.00  0.00    +0.000 C 
ATOM     14  O   UNL     1       8.046   6.230  18.658  0.00  0.00    +0.000 OA
ATOM     15  H   UNL     1       6.496   7.596  16.260  0.00  0.00    +0.000 HD
BRANCH  13  16
ATOM     16  C   UNL     1       8.099   8.423  18.056  0.00  0.00    +0.000 C 
ATOM     17  C   UNL     1       8.625   9.465  18.344  0.00  0.00    +0.000 C 
BRANCH  17  18
ATOM     18  C   UNL     1       9.374  10.588  18.806  0.00  0.00    +0.000 A 
ATOM     19  C   UNL     1       9.505  10.804  20.178  0.00  0.00    +0.000 A 
ATOM     20  C   UNL     1      10.277  11.865  20.647  0.00  0.00    +0.000 A 
ATOM     21  C   UNL     1      10.923  12.709  19.742  0.00  0.00    +0.000 A 
ATOM     22  C   UNL     1      10.813  12.480  18.370  0.00  0.00    +0.000 A 
ATOM     23  C   UNL     1      10.042  11.416  17.901  0.00  0.00    +0.000 A 
ENDBRANCH  17  18
ENDBRANCH  13  16
ENDBRANCH   1  12
BRANCH   1  24
ATOM     24  C   UNL     1       5.873   5.302  15.019  0.00  0.00    +0.000 C 
BRANCH  24  25
ATOM     25  C   UNL     1       6.919   4.808  14.025  0.00  0.00    +0.000 C 
BRANCH  25  27
ATOM     26  C   UNL     1       5.005   3.773  12.964  0.00  0.00    +0.000 C 
ATOM     27  N   UNL     1       6.465   3.747  13.115  0.00  0.00    +0.000 NA
ATOM     28  C   UNL     1       7.087   3.949  11.800  0.00  0.00    +0.000 C 
ENDBRANCH  25  27
ENDBRANCH  24  25
ENDBRANCH   1  24
TORSDOF 7
ENDMDL
MODEL 6
REMARK VINA RESULT:      -8.5      1.203      1.303
REMARK  Name = 
REMARK  9 active torsions:
REMARK  status: ('A' for Active; 'I' for Inactive)
REMARK    1  A    between atoms: C_1  and  N_2
REMARK    2  A    between atoms: N_2  and  C_3
REMARK    3  A    between atoms: N_2  and  C_4
REMARK    4  A    between atoms: C_4  and  C_5
REMARK    5  A    between atoms: C_5  and  C_6
REMARK    6  A    between atoms: C_6  and  N_7
REMARK    7  A    between atoms: C_6  and  C_18
REMARK    8  A    between atoms: C_8  and  C_10
REMARK    9  A    between atoms: C_11  and  C_12
REMARK                            x       y       z     vdW  Elec       q    Type
REMARK                         _______ _______ _______ _____ _____    ______ ____
ROOT
ATOM      1  C   UNL     1       6.049   4.596  16.938  0.00  0.00    +0.000 C 
ENDROOT
BRANCH   1   2
ATOM      2  C   UNL     1       4.738   4.421  17.715  0.00  0.00    +0.000 A 
ATOM      3  C   UNL     1       3.561   5.045  17.289  0.00  0.00    +0.000 A 
ATOM      4  C   UNL     1       2.375   4.900  18.023  0.00  0.00    +0.000 A 
ATOM      5  C   UNL     1       2.331   4.114  19.192  0.00  0.00    +0.000 A 
ATOM      6  C   UNL     1       1.156   3.940  19.943  0.00  0.00    +0.000 A 
ATOM      7  C   UNL     1       1.151   3.143  21.092  0.00  0.00    +0.000 A 
ATOM      8  C   UNL     1       2.316   2.510  21.512  0.00  0.00    +0.000 A 
ATOM      9  C   UNL     1       3.489   2.673  20.779  0.00  0.00    +0.000 A 
ATOM     10  C   UNL     1       3.503   3.470  19.622  0.00  0.00    +0.000 A 
ATOM     11  C   UNL     1       4.677   3.632  18.882  0.00  0.00    +0.000 A 
ENDBRANCH   1   2
BRANCH   1  12
ATOM     12  N   UNL     1       6.878   5.665  17.487  0.00  0.00    +0.000 N 
ATOM     13  C   UNL     1       6.702   6.979  17.158  0.00  0.00    +0.000 C 
ATOM     14  O   UNL     1       5.825   7.407  16.420  0.00  0.00    +0.000 OA
ATOM     15  H   UNL     1       7.757   5.400  17.921  0.00  0.00    +0.000 HD
BRANCH  13  16
ATOM     16  C   UNL     1       7.653   7.931  17.666  0.00  0.00    +0.000 C 
ATOM     17  C   UNL     1       8.273   8.877  18.075  0.00  0.00    +0.000 C 
BRANCH  17  18
ATOM     18  C   UNL     1       8.849  10.114  18.488  0.00  0.00    +0.000 A 
ATOM     19  C   UNL     1       8.679  11.247  17.693  0.00  0.00    +0.000 A 
ATOM     20  C   UNL     1       9.190  12.476  18.108  0.00  0.00    +0.000 A 
ATOM     21  C   UNL     1       9.868  12.571  19.323  0.00  0.00    +0.000 A 
ATOM     22  C   UNL     1      10.019  11.445  20.132  0.00  0.00    +0.000 A 
ATOM     23  C   UNL     1       9.505  10.215  19.717  0.00  0.00    +0.000 A 
ENDBRANCH  17  18
ENDBRANCH  13  16
ENDBRANCH   1  12
BRANCH   1  24
ATOM     24  C   UNL     1       5.779   4.746  15.425  0.00  0.00    +0.000 C 
BRANCH  24  25
ATOM     25  C   UNL     1       6.954   4.485  14.486  0.00  0.00    +0.000 C 
BRANCH  25  27
ATOM     26  C   UNL     1       5.162   3.743  13.036  0.00  0.00    +0.000 C 
ATOM     27  N   UNL     1       6.614   3.777  13.243  0.00  0.00    +0.000 NA
ATOM     28  C   UNL     1       7.245   4.472  12.112  0.00  0.00    +0.000 C 
ENDBRANCH  25  27
ENDBRANCH  24  25
ENDBRANCH   1  24
TORSDOF 7
ENDMDL
MODEL 7
REMARK VINA RESULT:      -8.5      4.770      7.383
REMARK  Name = 
REMARK  9 active torsions:
REMARK  status: ('A' for Active; 'I' for Inactive)
REMARK    1  A    between atoms: C_1  and  N_2
REMARK    2  A    between atoms: N_2  and  C_3
REMARK    3  A    between atoms: N_2  and  C_4
REMARK    4  A    between atoms: C_4  and  C_5
REMARK    5  A    between atoms: C_5  and  C_6
REMARK    6  A    between atoms: C_6  and  N_7
REMARK    7  A    between atoms: C_6  and  C_18
REMARK    8  A    between atoms: C_8  and  C_10
REMARK    9  A    between atoms: C_11  and  C_12
REMARK                            x       y       z     vdW  Elec       q    Type
REMARK                         _______ _______ _______ _____ _____    ______ ____
ROOT
ATOM      1  C   UNL     1       2.726   6.161  19.653  0.00  0.00    +0.000 C 
ENDROOT
BRANCH   1   2
ATOM      2  C   UNL     1       2.143   7.559  19.410  0.00  0.00    +0.000 A 
ATOM      3  C   UNL     1       2.265   8.183  18.164  0.00  0.00    +0.000 A 
ATOM      4  C   UNL     1       1.751   9.472  17.962  0.00  0.00    +0.000 A 
ATOM      5  C   UNL     1       1.089  10.164  18.995  0.00  0.00    +0.000 A 
ATOM      6  C   UNL     1       0.554  11.452  18.822  0.00  0.00    +0.000 A 
ATOM      7  C   UNL     1      -0.105  12.102  19.870  0.00  0.00    +0.000 A 
ATOM      8  C   UNL     1      -0.240  11.480  21.106  0.00  0.00    +0.000 A 
ATOM      9  C   UNL     1       0.285  10.205  21.295  0.00  0.00    +0.000 A 
ATOM     10  C   UNL     1       0.947   9.543  20.248  0.00  0.00    +0.000 A 
ATOM     11  C   UNL     1       1.471   8.261  20.432  0.00  0.00    +0.000 A 
ENDBRANCH   1   2
BRANCH   1  12
ATOM     12  N   UNL     1       3.190   5.534  18.419  0.00  0.00    +0.000 N 
ATOM     13  C   UNL     1       4.514   5.342  18.140  0.00  0.00    +0.000 C 
ATOM     14  O   UNL     1       5.438   5.624  18.892  0.00  0.00    +0.000 OA
ATOM     15  H   UNL     1       2.531   5.471  17.649  0.00  0.00    +0.000 HD
BRANCH  13  16
ATOM     16  C   UNL     1       4.858   4.824  16.844  0.00  0.00    +0.000 C 
ATOM     17  C   UNL     1       5.317   4.547  15.767  0.00  0.00    +0.000 C 
BRANCH  17  18
ATOM     18  C   UNL     1       5.969   4.397  14.507  0.00  0.00    +0.000 A 
ATOM     19  C   UNL     1       5.397   3.573  13.537  0.00  0.00    +0.000 A 
ATOM     20  C   UNL     1       5.992   3.456  12.282  0.00  0.00    +0.000 A 
ATOM     21  C   UNL     1       7.158   4.167  11.996  0.00  0.00    +0.000 A 
ATOM     22  C   UNL     1       7.718   5.010  12.957  0.00  0.00    +0.000 A 
ATOM     23  C   UNL     1       7.121   5.129  14.213  0.00  0.00    +0.000 A 
ENDBRANCH  17  18
ENDBRANCH  13  16
ENDBRANCH   1  12
BRANCH   1  24
ATOM     24  C   UNL     1       1.738   5.282  20.451  0.00  0.00    +0.000 C 
BRANCH  24  25
ATOM     25  C   UNL     1       1.425   3.902  19.879  0.00  0.00    +0.000 C 
BRANCH  25  27
ATOM     26  C   UNL     1       2.973   2.500  21.103  0.00  0.00    +0.000 C 
ATOM     27  N   UNL     1       2.575   2.992  19.779  0.00  0.00    +0.000 NA
ATOM     28  C   UNL     1       2.205   1.849  18.933  0.00  0.00    +0.000 C 
ENDBRANCH  25  27
ENDBRANCH  24  25
ENDBRANCH   1  24
TORSDOF 7
ENDMDL
MODEL 8
REMARK VINA RESULT:      -8.5      1.154      1.341
REMARK  Name = 
REMARK  9 active torsions:
REMARK  status: ('A' for Active; 'I' for Inactive)
REMARK    1  A    between atoms: C_1  and  N_2
REMARK    2  A    between atoms: N_2  and  C_3
REMARK    3  A    between atoms: N_2  and  C_4
REMARK    4  A    between atoms: C_4  and  C_5
REMARK    5  A    between atoms: C_5  and  C_6
REMARK    6  A    between atoms: C_6  and  N_7
REMARK    7  A    between atoms: C_6  and  C_18
REMARK    8  A    between atoms: C_8  and  C_10
REMARK    9  A    between atoms: C_11  and  C_12
REMARK                            x       y       z     vdW  Elec       q    Type
REMARK                         _______ _______ _______ _____ _____    ______ ____
ROOT
ATOM      1  C   UNL     1       6.030   5.018  16.917  0.00  0.00    +0.000 C 
ENDROOT
BRANCH   1   2
ATOM      2  C   UNL     1       4.794   4.831  17.807  0.00  0.00    +0.000 A 
ATOM      3  C   UNL     1       4.541   5.695  18.878  0.00  0.00    +0.000 A 
ATOM      4  C   UNL     1       3.422   5.497  19.701  0.00  0.00    +0.000 A 
ATOM      5  C   UNL     1       2.521   4.440  19.465  0.00  0.00    +0.000 A 
ATOM      6  C   UNL     1       1.386   4.221  20.264  0.00  0.00    +0.000 A 
ATOM      7  C   UNL     1       0.508   3.167  19.991  0.00  0.00    +0.000 A 
ATOM      8  C   UNL     1       0.750   2.314  18.919  0.00  0.00    +0.000 A 
ATOM      9  C   UNL     1       1.870   2.516  18.119  0.00  0.00    +0.000 A 
ATOM     10  C   UNL     1       2.756   3.574  18.383  0.00  0.00    +0.000 A 
ATOM     11  C   UNL     1       3.879   3.783  17.579  0.00  0.00    +0.000 A 
ENDBRANCH   1   2
BRANCH   1  12
ATOM     12  N   UNL     1       6.612   6.350  17.054  0.00  0.00    +0.000 N 
ATOM     13  C   UNL     1       7.557   6.652  17.993  0.00  0.00    +0.000 C 
ATOM     14  O   UNL     1       8.045   5.851  18.780  0.00  0.00    +0.000 OA
ATOM     15  H   UNL     1       6.123   7.123  16.610  0.00  0.00    +0.000 HD
BRANCH  13  16
ATOM     16  C   UNL     1       7.970   8.024  18.113  0.00  0.00    +0.000 C 
ATOM     17  C   UNL     1       8.493   9.084  18.333  0.00  0.00    +0.000 C 
BRANCH  17  18
ATOM     18  C   UNL     1       9.229  10.238  18.734  0.00  0.00    +0.000 A 
ATOM     19  C   UNL     1       9.705  11.117  17.760  0.00  0.00    +0.000 A 
ATOM     20  C   UNL     1      10.380  12.277  18.136  0.00  0.00    +0.000 A 
ATOM     21  C   UNL     1      10.574  12.561  19.488  0.00  0.00    +0.000 A 
ATOM     22  C   UNL     1      10.078  11.696  20.464  0.00  0.00    +0.000 A 
ATOM     23  C   UNL     1       9.400  10.535  20.087  0.00  0.00    +0.000 A 
ENDBRANCH  17  18
ENDBRANCH  13  16
ENDBRANCH   1  12
BRANCH   1  24
ATOM     24  C   UNL     1       5.720   4.633  15.454  0.00  0.00    +0.000 C 
BRANCH  24  25
ATOM     25  C   UNL     1       6.791   4.954  14.415  0.00  0.00    +0.000 C 
BRANCH  25  27
ATOM     26  C   UNL     1       7.602   4.554  12.170  0.00  0.00    +0.000 C 
ATOM     27  N   UNL     1       6.414   4.672  13.022  0.00  0.00    +0.000 NA
ATOM     28  C   UNL     1       5.663   3.410  12.979  0.00  0.00    +0.000 C 
ENDBRANCH  25  27
ENDBRANCH  24  25
ENDBRANCH   1  24
TORSDOF 7
ENDMDL
MODEL 9
REMARK VINA RESULT:      -8.4      1.052      1.274
REMARK  Name = 
REMARK  9 active torsions:
REMARK  status: ('A' for Active; 'I' for Inactive)
REMARK    1  A    between atoms: C_1  and  N_2
REMARK    2  A    between atoms: N_2  and  C_3
REMARK    3  A    between atoms: N_2  and  C_4
REMARK    4  A    between atoms: C_4  and  C_5
REMARK    5  A    between atoms: C_5  and  C_6
REMARK    6  A    between atoms: C_6  and  N_7
REMARK    7  A    between atoms: C_6  and  C_18
REMARK    8  A    between atoms: C_8  and  C_10
REMARK    9  A    between atoms: C_11  and  C_12
REMARK                            x       y       z     vdW  Elec       q    Type
REMARK                         _______ _______ _______ _____ _____    ______ ____
ROOT
ATOM      1  C   UNL     1       6.506   4.990  17.483  0.00  0.00    +0.000 C 
ENDROOT
BRANCH   1   2
ATOM      2  C   UNL     1       5.090   4.828  18.052  0.00  0.00    +0.000 A 
ATOM      3  C   UNL     1       4.035   5.622  17.592  0.00  0.00    +0.000 A 
ATOM      4  C   UNL     1       2.751   5.484  18.139  0.00  0.00    +0.000 A 
ATOM      5  C   UNL     1       2.486   4.537  19.147  0.00  0.00    +0.000 A 
ATOM      6  C   UNL     1       1.209   4.366  19.708  0.00  0.00    +0.000 A 
ATOM      7  C   UNL     1       0.983   3.408  20.701  0.00  0.00    +0.000 A 
ATOM      8  C   UNL     1       2.027   2.607  21.153  0.00  0.00    +0.000 A 
ATOM      9  C   UNL     1       3.298   2.764  20.608  0.00  0.00    +0.000 A 
ATOM     10  C   UNL     1       3.534   3.723  19.609  0.00  0.00    +0.000 A 
ATOM     11  C   UNL     1       4.808   3.880  19.057  0.00  0.00    +0.000 A 
ENDBRANCH   1   2
BRANCH   1  12
ATOM     12  N   UNL     1       6.908   6.390  17.393  0.00  0.00    +0.000 N 
ATOM     13  C   UNL     1       7.791   6.963  18.265  0.00  0.00    +0.000 C 
ATOM     14  O   UNL     1       8.365   6.375  19.171  0.00  0.00    +0.000 OA
ATOM     15  H   UNL     1       6.332   7.008  16.830  0.00  0.00    +0.000 HD
BRANCH  13  16
ATOM     16  C   UNL     1       8.020   8.378  18.152  0.00  0.00    +0.000 C 
ATOM     17  C   UNL     1       8.434   9.506  18.102  0.00  0.00    +0.000 C 
BRANCH  17  18
ATOM     18  C   UNL     1       9.097  10.769  18.130  0.00  0.00    +0.000 A 
ATOM     19  C   UNL     1       8.399  11.916  17.753  0.00  0.00    +0.000 A 
ATOM     20  C   UNL     1       9.015  13.164  17.825  0.00  0.00    +0.000 A 
ATOM     21  C   UNL     1      10.330  13.265  18.280  0.00  0.00    +0.000 A 
ATOM     22  C   UNL     1      11.023  12.122  18.682  0.00  0.00    +0.000 A 
ATOM     23  C   UNL     1      10.404  10.873  18.611  0.00  0.00    +0.000 A 
ENDBRANCH  17  18
ENDBRANCH  13  16
ENDBRANCH   1  12
BRANCH   1  24
ATOM     24  C   UNL     1       6.657   4.223  16.151  0.00  0.00    +0.000 C 
BRANCH  24  25
ATOM     25  C   UNL     1       7.346   4.959  15.006  0.00  0.00    +0.000 C 
BRANCH  25  27
ATOM     26  C   UNL     1       7.456   4.571  12.619  0.00  0.00    +0.000 C 
ATOM     27  N   UNL     1       6.601   4.980  13.739  0.00  0.00    +0.000 NA
ATOM     28  C   UNL     1       5.465   4.054  13.840  0.00  0.00    +0.000 C 
ENDBRANCH  25  27
ENDBRANCH  24  25
ENDBRANCH   1  24
TORSDOF 7
ENDMDL
