MODEL 1
REMARK VINA RESULT:      -7.0      0.000      0.000
REMARK  Name = 
REMARK  4 active torsions:
REMARK  status: ('A' for Active; 'I' for Inactive)
REMARK    1  A    between atoms: C_2  and  C_13
REMARK    2  A    between atoms: N_3  and  C_4
REMARK    3  A    between atoms: C_9  and  C_10
REMARK    4  A    between atoms: C_10  and  O_12
REMARK                            x       y       z     vdW  Elec       q    Type
REMARK                         _______ _______ _______ _____ _____    ______ ____
ROOT
ATOM      1  C   UNL     1       3.074   3.541  19.096  0.00  0.00    +0.000 A 
ATOM      2  C   UNL     1       1.974   4.404  19.217  0.00  0.00    +0.000 A 
ATOM      3  C   UNL     1       1.128   4.334  20.325  0.00  0.00    +0.000 A 
ATOM      4  C   UNL     1       1.374   3.406  21.332  0.00  0.00    +0.000 A 
ATOM      5  C   UNL     1       2.460   2.537  21.224  0.00  0.00    +0.000 A 
ATOM      6  C   UNL     1       3.307   2.595  20.106  0.00  0.00    +0.000 A 
ENDROOT
BRANCH   1   9
ATOM      7  O   UNL     1       5.486   5.005  18.874  0.00  0.00    +0.000 OA
ATOM      8  C   UNL     1       5.029   4.428  17.890  0.00  0.00    +0.000 C 
ATOM      9  N   UNL     1       3.896   3.627  17.946  0.00  0.00    +0.000 N 
ATOM     10  H   UNL     1       3.787   2.941  17.200  0.00  0.00    +0.000 HD
BRANCH   8  11
ATOM     11  C   UNL     1       5.695   4.452  16.607  0.00  0.00    +0.000 A 
ATOM     12  C   UNL     1       7.004   4.759  16.292  0.00  0.00    +0.000 A 
ATOM     13  C   UNL     1       7.106   4.708  14.884  0.00  0.00    +0.000 A 
ATOM     14  C   UNL     1       5.856   4.358  14.425  0.00  0.00    +0.000 A 
ATOM     15  O   UNL     1       4.998   4.176  15.463  0.00  0.00    +0.000 OA
ENDBRANCH   8  11
ENDBRANCH   1   9
BRANCH   6  16
ATOM     16  C   UNL     1       4.480   1.684  20.110  0.00  0.00    +0.000 C 
ATOM     17  O   UNL     1       5.314   1.682  20.998  0.00  0.00    +0.000 OA
BRANCH  16  18
ATOM     18  O   UNL     1       4.552   0.896  19.019  0.00  0.00    +0.000 OA
ATOM     19  H   UNL     1       5.461   0.600  18.807  0.00  0.00    +0.000 HD
ENDBRANCH  16  18
ENDBRANCH   6  16
TORSDOF 4
ENDMDL
MODEL 2
REMARK VINA RESULT:      -6.9      1.967      2.250
REMARK  Name = 
REMARK  4 active torsions:
REMARK  status: ('A' for Active; 'I' for Inactive)
REMARK    1  A    between atoms: C_2  and  C_13
REMARK    2  A    between atoms: N_3  and  C_4
REMARK    3  A    between atoms: C_9  and  C_10
REMARK    4  A    between atoms: C_10  and  O_12
REMARK                            x       y       z     vdW  Elec       q    Type
REMARK                         _______ _______ _______ _____ _____    ______ ____
ROOT
ATOM      1  C   UNL     1       3.131   4.371  19.848  0.00  0.00    +0.000 A 
ATOM      2  C   UNL     1       1.969   5.102  20.141  0.00  0.00    +0.000 A 
ATOM      3  C   UNL     1       0.758   4.453  20.387  0.00  0.00    +0.000 A 
ATOM      4  C   UNL     1       0.693   3.064  20.355  0.00  0.00    +0.000 A 
ATOM      5  C   UNL     1       1.837   2.322  20.060  0.00  0.00    +0.000 A 
ATOM      6  C   UNL     1       3.055   2.970  19.799  0.00  0.00    +0.000 A 
ENDROOT
BRANCH   1   9
ATOM      7  O   UNL     1       4.039   5.220  17.306  0.00  0.00    +0.000 OA
ATOM      8  C   UNL     1       4.750   5.383  18.295  0.00  0.00    +0.000 C 
ATOM      9  N   UNL     1       4.335   5.066  19.581  0.00  0.00    +0.000 N 
ATOM     10  H   UNL     1       4.825   5.529  20.345  0.00  0.00    +0.000 HD
BRANCH   8  11
ATOM     11  C   UNL     1       6.046   6.020  18.213  0.00  0.00    +0.000 A 
ATOM     12  C   UNL     1       7.185   5.814  18.967  0.00  0.00    +0.000 A 
ATOM     13  C   UNL     1       8.140   6.757  18.526  0.00  0.00    +0.000 A 
ATOM     14  C   UNL     1       7.531   7.472  17.519  0.00  0.00    +0.000 A 
ATOM     15  O   UNL     1       6.269   7.018  17.304  0.00  0.00    +0.000 OA
ENDBRANCH   8  11
ENDBRANCH   1   9
BRANCH   6  16
ATOM     16  C   UNL     1       4.237   2.102  19.569  0.00  0.00    +0.000 C 
ATOM     17  O   UNL     1       5.198   2.079  20.317  0.00  0.00    +0.000 OA
BRANCH  16  18
ATOM     18  O   UNL     1       4.160   1.377  18.434  0.00  0.00    +0.000 OA
ATOM     19  H   UNL     1       4.856   0.693  18.356  0.00  0.00    +0.000 HD
ENDBRANCH  16  18
ENDBRANCH   6  16
TORSDOF 4
ENDMDL
MODEL 3
REMARK VINA RESULT:      -6.8      1.036      1.036
REMARK  Name = 
REMARK  4 active torsions:
REMARK  status: ('A' for Active; 'I' for Inactive)
REMARK    1  A    between atoms: C_2  and  C_13
REMARK    2  A    between atoms: N_3  and  C_4
REMARK    3  A    between atoms: C_9  and  C_10
REMARK    4  A    between atoms: C_10  and  O_12
REMARK                            x       y       z     vdW  Elec       q    Type
REMARK                         _______ _______ _______ _____ _____    ______ ____
ROOT
ATOM      1  C   UNL     1       3.362   4.049  19.486  0.00  0.00    +0.000 A 
ATOM      2  C   UNL     1       2.321   4.966  19.701  0.00  0.00    +0.000 A 
ATOM      3  C   UNL     1       1.333   4.715  20.654  0.00  0.00    +0.000 A 
ATOM      4  C   UNL     1       1.376   3.551  21.413  0.00  0.00    +0.000 A 
ATOM      5  C   UNL     1       2.401   2.627  21.209  0.00  0.00    +0.000 A 
ATOM      6  C   UNL     1       3.391   2.867  20.243  0.00  0.00    +0.000 A 
ENDROOT
BRANCH   1   9
ATOM      7  O   UNL     1       3.190   3.369  16.744  0.00  0.00    +0.000 OA
ATOM      8  C   UNL     1       4.212   3.895  17.181  0.00  0.00    +0.000 C 
ATOM      9  N   UNL     1       4.334   4.327  18.494  0.00  0.00    +0.000 N 
ATOM     10  H   UNL     1       5.049   5.030  18.677  0.00  0.00    +0.000 HD
BRANCH   8  11
ATOM     11  C   UNL     1       5.341   4.202  16.331  0.00  0.00    +0.000 A 
ATOM     12  C   UNL     1       6.625   4.586  16.666  0.00  0.00    +0.000 A 
ATOM     13  C   UNL     1       7.302   4.839  15.453  0.00  0.00    +0.000 A 
ATOM     14  C   UNL     1       6.396   4.581  14.450  0.00  0.00    +0.000 A 
ATOM     15  O   UNL     1       5.210   4.170  14.970  0.00  0.00    +0.000 OA
ENDBRANCH   8  11
ENDBRANCH   1   9
BRANCH   6  16
ATOM     16  C   UNL     1       4.484   1.867  20.144  0.00  0.00    +0.000 C 
ATOM     17  O   UNL     1       5.300   1.689  21.031  0.00  0.00    +0.000 OA
BRANCH  16  18
ATOM     18  O   UNL     1       4.509   1.212  18.966  0.00  0.00    +0.000 OA
ATOM     19  H   UNL     1       5.364   0.771  18.780  0.00  0.00    +0.000 HD
ENDBRANCH  16  18
ENDBRANCH   6  16
TORSDOF 4
ENDMDL
MODEL 4
REMARK VINA RESULT:      -6.8      1.084      1.482
REMARK  Name = 
REMARK  4 active torsions:
REMARK  status: ('A' for Active; 'I' for Inactive)
REMARK    1  A    between atoms: C_2  and  C_13
REMARK    2  A    between atoms: N_3  and  C_4
REMARK    3  A    between atoms: C_9  and  C_10
REMARK    4  A    between atoms: C_10  and  O_12
REMARK                            x       y       z     vdW  Elec       q    Type
REMARK                         _______ _______ _______ _____ _____    ______ ____
ROOT
ATOM      1  C   UNL     1       3.417   4.321  18.813  0.00  0.00    +0.000 A 
ATOM      2  C   UNL     1       2.745   5.477  19.239  0.00  0.00    +0.000 A 
ATOM      3  C   UNL     1       2.038   5.491  20.443  0.00  0.00    +0.000 A 
ATOM      4  C   UNL     1       2.001   4.353  21.243  0.00  0.00    +0.000 A 
ATOM      5  C   UNL     1       2.659   3.194  20.831  0.00  0.00    +0.000 A 
ATOM      6  C   UNL     1       3.361   3.170  19.616  0.00  0.00    +0.000 A 
ENDROOT
BRANCH   1   9
ATOM      7  O   UNL     1       6.226   4.287  18.462  0.00  0.00    +0.000 OA
ATOM      8  C   UNL     1       5.489   4.396  17.485  0.00  0.00    +0.000 C 
ATOM      9  N   UNL     1       4.105   4.338  17.575  0.00  0.00    +0.000 N 
ATOM     10  H   UNL     1       3.602   4.101  16.721  0.00  0.00    +0.000 HD
BRANCH   8  11
ATOM     11  C   UNL     1       6.007   4.490  16.138  0.00  0.00    +0.000 A 
ATOM     12  C   UNL     1       5.479   4.025  14.950  0.00  0.00    +0.000 A 
ATOM     13  C   UNL     1       6.429   4.310  13.944  0.00  0.00    +0.000 A 
ATOM     14  C   UNL     1       7.474   4.945  14.577  0.00  0.00    +0.000 A 
ATOM     15  O   UNL     1       7.218   5.081  15.905  0.00  0.00    +0.000 OA
ENDBRANCH   8  11
ENDBRANCH   1   9
BRANCH   6  16
ATOM     16  C   UNL     1       4.094   1.920  19.292  0.00  0.00    +0.000 C 
ATOM     17  O   UNL     1       3.699   1.115  18.467  0.00  0.00    +0.000 OA
BRANCH  16  18
ATOM     18  O   UNL     1       5.209   1.743  20.029  0.00  0.00    +0.000 OA
ATOM     19  H   UNL     1       5.066   1.213  20.839  0.00  0.00    +0.000 HD
ENDBRANCH  16  18
ENDBRANCH   6  16
TORSDOF 4
ENDMDL
MODEL 5
REMARK VINA RESULT:      -6.7      1.432      2.802
REMARK  Name = 
REMARK  4 active torsions:
REMARK  status: ('A' for Active; 'I' for Inactive)
REMARK    1  A    between atoms: C_2  and  C_13
REMARK    2  A    between atoms: N_3  and  C_4
REMARK    3  A    between atoms: C_9  and  C_10
REMARK    4  A    between atoms: C_10  and  O_12
REMARK                            x       y       z     vdW  Elec       q    Type
REMARK                         _______ _______ _______ _____ _____    ______ ____
ROOT
ATOM      1  C   UNL     1       2.874   3.764  18.943  0.00  0.00    +0.000 A 
ATOM      2  C   UNL     1       2.612   2.473  19.426  0.00  0.00    +0.000 A 
ATOM      3  C   UNL     1       1.815   2.280  20.556  0.00  0.00    +0.000 A 
ATOM      4  C   UNL     1       1.262   3.373  21.213  0.00  0.00    +0.000 A 
ATOM      5  C   UNL     1       1.517   4.664  20.750  0.00  0.00    +0.000 A 
ATOM      6  C   UNL     1       2.327   4.865  19.622  0.00  0.00    +0.000 A 
ENDROOT
BRANCH   1   9
ATOM      7  O   UNL     1       5.697   3.966  18.957  0.00  0.00    +0.000 OA
ATOM      8  C   UNL     1       5.081   4.089  17.901  0.00  0.00    +0.000 C 
ATOM      9  N   UNL     1       3.706   3.922  17.808  0.00  0.00    +0.000 N 
ATOM     10  H   UNL     1       3.335   3.710  16.883  0.00  0.00    +0.000 HD
BRANCH   8  11
ATOM     11  C   UNL     1       5.753   4.318  16.641  0.00  0.00    +0.000 A 
ATOM     12  C   UNL     1       7.065   4.666  16.385  0.00  0.00    +0.000 A 
ATOM     13  C   UNL     1       7.173   4.844  14.989  0.00  0.00    +0.000 A 
ATOM     14  C   UNL     1       5.923   4.580  14.474  0.00  0.00    +0.000 A 
ATOM     15  O   UNL     1       5.060   4.237  15.465  0.00  0.00    +0.000 OA
ENDBRANCH   8  11
ENDBRANCH   1   9
BRANCH   6  16
ATOM     16  C   UNL     1       2.485   6.266  19.154  0.00  0.00    +0.000 C 
ATOM     17  O   UNL     1       2.612   6.561  17.979  0.00  0.00    +0.000 OA
BRANCH  16  18
ATOM     18  O   UNL     1       2.516   7.167  20.156  0.00  0.00    +0.000 OA
ATOM     19  H   UNL     1       3.277   7.056  20.762  0.00  0.00    +0.000 HD
ENDBRANCH  16  18
ENDBRANCH   6  16
TORSDOF 4
ENDMDL
MODEL 6
REMARK VINA RESULT:      -6.6      2.292      2.748
REMARK  Name = 
REMARK  4 active torsions:
REMARK  status: ('A' for Active; 'I' for Inactive)
REMARK    1  A    between atoms: C_2  and  C_13
REMARK    2  A    between atoms: N_3  and  C_4
REMARK    3  A    between atoms: C_9  and  C_10
REMARK    4  A    between atoms: C_10  and  O_12
REMARK                            x       y       z     vdW  Elec       q    Type
REMARK                         _______ _______ _______ _____ _____    ______ ____
ROOT
ATOM      1  C   UNL     1       3.066   4.272  19.647  0.00  0.00    +0.000 A 
ATOM      2  C   UNL     1       2.637   4.517  20.960  0.00  0.00    +0.000 A 
ATOM      3  C   UNL     1       1.642   3.731  21.546  0.00  0.00    +0.000 A 
ATOM      4  C   UNL     1       1.069   2.685  20.831  0.00  0.00    +0.000 A 
ATOM      5  C   UNL     1       1.480   2.433  19.522  0.00  0.00    +0.000 A 
ATOM      6  C   UNL     1       2.471   3.226  18.923  0.00  0.00    +0.000 A 
ENDROOT
BRANCH   1   9
ATOM      7  O   UNL     1       5.821   3.665  19.422  0.00  0.00    +0.000 OA
ATOM      8  C   UNL     1       5.408   4.768  19.072  0.00  0.00    +0.000 C 
ATOM      9  N   UNL     1       4.061   5.104  19.079  0.00  0.00    +0.000 N 
ATOM     10  H   UNL     1       3.782   5.878  18.477  0.00  0.00    +0.000 HD
BRANCH   8  11
ATOM     11  C   UNL     1       6.285   5.779  18.524  0.00  0.00    +0.000 A 
ATOM     12  C   UNL     1       7.595   6.083  18.838  0.00  0.00    +0.000 A 
ATOM     13  C   UNL     1       7.948   7.209  18.063  0.00  0.00    +0.000 A 
ATOM     14  C   UNL     1       6.837   7.516  17.311  0.00  0.00    +0.000 A 
ATOM     15  O   UNL     1       5.829   6.640  17.564  0.00  0.00    +0.000 OA
ENDBRANCH   8  11
ENDBRANCH   1   9
BRANCH   6  16
ATOM     16  C   UNL     1       2.900   2.840  17.555  0.00  0.00    +0.000 C 
ATOM     17  O   UNL     1       2.266   3.131  16.556  0.00  0.00    +0.000 OA
BRANCH  16  18
ATOM     18  O   UNL     1       4.028   2.103  17.533  0.00  0.00    +0.000 OA
ATOM     19  H   UNL     1       4.207   1.683  16.667  0.00  0.00    +0.000 HD
ENDBRANCH  16  18
ENDBRANCH   6  16
TORSDOF 4
ENDMDL
MODEL 7
REMARK VINA RESULT:      -6.6      1.497      5.777
REMARK  Name = 
REMARK  4 active torsions:
REMARK  status: ('A' for Active; 'I' for Inactive)
REMARK    1  A    between atoms: C_2  and  C_13
REMARK    2  A    between atoms: N_3  and  C_4
REMARK    3  A    between atoms: C_9  and  C_10
REMARK    4  A    between atoms: C_10  and  O_12
REMARK                            x       y       z     vdW  Elec       q    Type
REMARK                         _______ _______ _______ _____ _____    ______ ____
ROOT
ATOM      1  C   UNL     1       5.442   4.077  17.002  0.00  0.00    +0.000 A 
ATOM      2  C   UNL     1       5.166   3.656  15.691  0.00  0.00    +0.000 A 
ATOM      3  C   UNL     1       5.948   4.094  14.620  0.00  0.00    +0.000 A 
ATOM      4  C   UNL     1       7.022   4.949  14.845  0.00  0.00    +0.000 A 
ATOM      5  C   UNL     1       7.306   5.381  16.141  0.00  0.00    +0.000 A 
ATOM      6  C   UNL     1       6.516   4.954  17.220  0.00  0.00    +0.000 A 
ENDROOT
BRANCH   1   9
ATOM      7  O   UNL     1       2.879   5.086  17.654  0.00  0.00    +0.000 OA
ATOM      8  C   UNL     1       3.397   4.227  18.364  0.00  0.00    +0.000 C 
ATOM      9  N   UNL     1       4.613   3.630  18.059  0.00  0.00    +0.000 N 
ATOM     10  H   UNL     1       4.798   2.727  18.493  0.00  0.00    +0.000 HD
BRANCH   8  11
ATOM     11  C   UNL     1       2.730   3.688  19.529  0.00  0.00    +0.000 A 
ATOM     12  C   UNL     1       1.417   3.816  19.938  0.00  0.00    +0.000 A 
ATOM     13  C   UNL     1       1.315   3.162  21.185  0.00  0.00    +0.000 A 
ATOM     14  C   UNL     1       2.568   2.662  21.456  0.00  0.00    +0.000 A 
ATOM     15  O   UNL     1       3.429   2.955  20.447  0.00  0.00    +0.000 OA
ENDBRANCH   8  11
ENDBRANCH   1   9
BRANCH   6  16
ATOM     16  C   UNL     1       6.935   5.403  18.572  0.00  0.00    +0.000 C 
ATOM     17  O   UNL     1       6.628   4.810  19.591  0.00  0.00    +0.000 OA
BRANCH  16  18
ATOM     18  O   UNL     1       7.648   6.547  18.562  0.00  0.00    +0.000 OA
ATOM     19  H   UNL     1       7.294   7.226  17.953  0.00  0.00    +0.000 HD
ENDBRANCH  16  18
ENDBRANCH   6  16
TORSDOF 4
ENDMDL
MODEL 8
REMARK VINA RESULT:      -6.6      2.452      3.539
REMARK  Name = 
REMARK  4 active torsions:
REMARK  status: ('A' for Active; 'I' for Inactive)
REMARK    1  A    between atoms: C_2  and  C_13
REMARK    2  A    between atoms: N_3  and  C_4
REMARK    3  A    between atoms: C_9  and  C_10
REMARK    4  A    between atoms: C_10  and  O_12
REMARK                            x       y       z     vdW  Elec       q    Type
REMARK                         _______ _______ _______ _____ _____    ______ ____
ROOT
ATOM      1  C   UNL     1       3.159   4.172  18.319  0.00  0.00    +0.000 A 
ATOM      2  C   UNL     1       3.041   3.005  17.548  0.00  0.00    +0.000 A 
ATOM      3  C   UNL     1       2.009   2.094  17.782  0.00  0.00    +0.000 A 
ATOM      4  C   UNL     1       1.075   2.342  18.782  0.00  0.00    +0.000 A 
ATOM      5  C   UNL     1       1.181   3.495  19.561  0.00  0.00    +0.000 A 
ATOM      6  C   UNL     1       2.224   4.407  19.339  0.00  0.00    +0.000 A 
ENDROOT
BRANCH   1   9
ATOM      7  O   UNL     1       5.787   3.947  19.343  0.00  0.00    +0.000 OA
ATOM      8  C   UNL     1       5.477   4.925  18.667  0.00  0.00    +0.000 C 
ATOM      9  N   UNL     1       4.232   5.061  18.067  0.00  0.00    +0.000 N 
ATOM     10  H   UNL     1       4.175   5.703  17.278  0.00  0.00    +0.000 HD
BRANCH   8  11
ATOM     11  C   UNL     1       6.421   5.974  18.353  0.00  0.00    +0.000 A 
ATOM     12  C   UNL     1       6.427   6.880  17.311  0.00  0.00    +0.000 A 
ATOM     13  C   UNL     1       7.620   7.627  17.429  0.00  0.00    +0.000 A 
ATOM     14  C   UNL     1       8.264   7.141  18.545  0.00  0.00    +0.000 A 
ATOM     15  O   UNL     1       7.534   6.154  19.127  0.00  0.00    +0.000 OA
ENDBRANCH   8  11
ENDBRANCH   1   9
BRANCH   6  16
ATOM     16  C   UNL     1       2.216   5.642  20.163  0.00  0.00    +0.000 C 
ATOM     17  O   UNL     1       2.133   6.759  19.683  0.00  0.00    +0.000 OA
BRANCH  16  18
ATOM     18  O   UNL     1       2.354   5.409  21.484  0.00  0.00    +0.000 OA
ATOM     19  H   UNL     1       1.865   6.042  22.048  0.00  0.00    +0.000 HD
ENDBRANCH  16  18
ENDBRANCH   6  16
TORSDOF 4
ENDMDL
MODEL 9
REMARK VINA RESULT:      -6.6      1.325      1.716
REMARK  Name = 
REMARK  4 active torsions:
REMARK  status: ('A' for Active; 'I' for Inactive)
REMARK    1  A    between atoms: C_2  and  C_13
REMARK    2  A    between atoms: N_3  and  C_4
REMARK    3  A    between atoms: C_9  and  C_10
REMARK    4  A    between atoms: C_10  and  O_12
REMARK                            x       y       z     vdW  Elec       q    Type
REMARK                         _______ _______ _______ _____ _____    ______ ____
ROOT
ATOM      1  C   UNL     1       3.085   3.412  17.946  0.00  0.00    +0.000 A 
ATOM      2  C   UNL     1       1.726   3.595  17.648  0.00  0.00    +0.000 A 
ATOM      3  C   UNL     1       0.751   3.450  18.637  0.00  0.00    +0.000 A 
ATOM      4  C   UNL     1       1.122   3.131  19.939  0.00  0.00    +0.000 A 
ATOM      5  C   UNL     1       2.468   2.941  20.251  0.00  0.00    +0.000 A 
ATOM      6  C   UNL     1       3.451   3.073  19.258  0.00  0.00    +0.000 A 
ENDROOT
BRANCH   1   9
ATOM      7  O   UNL     1       4.358   5.810  17.146  0.00  0.00    +0.000 OA
ATOM      8  C   UNL     1       4.568   4.770  16.526  0.00  0.00    +0.000 C 
ATOM      9  N   UNL     1       4.043   3.545  16.911  0.00  0.00    +0.000 N 
ATOM     10  H   UNL     1       4.520   2.715  16.563  0.00  0.00    +0.000 HD
BRANCH   8  11
ATOM     11  C   UNL     1       5.470   4.718  15.396  0.00  0.00    +0.000 A 
ATOM     12  C   UNL     1       5.422   3.938  14.258  0.00  0.00    +0.000 A 
ATOM     13  C   UNL     1       6.591   4.224  13.519  0.00  0.00    +0.000 A 
ATOM     14  C   UNL     1       7.276   5.173  14.244  0.00  0.00    +0.000 A 
ATOM     15  O   UNL     1       6.593   5.498  15.373  0.00  0.00    +0.000 OA
ENDBRANCH   8  11
ENDBRANCH   1   9
BRANCH   6  16
ATOM     16  C   UNL     1       4.863   2.927  19.693  0.00  0.00    +0.000 C 
ATOM     17  O   UNL     1       5.699   3.800  19.536  0.00  0.00    +0.000 OA
BRANCH  16  18
ATOM     18  O   UNL     1       5.138   1.724  20.237  0.00  0.00    +0.000 OA
ATOM     19  H   UNL     1       4.774   1.608  21.138  0.00  0.00    +0.000 HD
ENDBRANCH  16  18
ENDBRANCH   6  16
TORSDOF 4
ENDMDL
