MODEL 1
REMARK VINA RESULT:      -7.4      0.000      0.000
REMARK  Name = 
REMARK  6 active torsions:
REMARK  status: ('A' for Active; 'I' for Inactive)
REMARK    1  A    between atoms: C_1  and  C_2
REMARK    2  A    between atoms: C_5  and  O_6
REMARK    3  A    between atoms: O_6  and  C_7
REMARK    4  A    between atoms: C_7  and  C_8
REMARK    5  A    between atoms: N_10  and  C_11
REMARK    6  A    between atoms: C_15  and  C_16
REMARK                            x       y       z     vdW  Elec       q    Type
REMARK                         _______ _______ _______ _____ _____    ______ ____
ROOT
ATOM      1  C   UNL     1       5.752   5.934  17.451  0.00  0.00    +0.000 C 
ATOM      2  O   UNL     1       6.207   5.510  18.510  0.00  0.00    +0.000 OA
ATOM      3  N   UNL     1       4.412   5.839  17.068  0.00  0.00    +0.000 N 
ATOM      4  H   UNL     1       4.254   5.722  16.074  0.00  0.00    +0.000 HD
ENDROOT
BRANCH   3   5
ATOM      5  C   UNL     1       3.540   5.172  17.911  0.00  0.00    +0.000 A 
ATOM      6  S   UNL     1       3.539   3.461  17.737  0.00  0.00    +0.000 S 
ATOM      7  C   UNL     1       2.474   3.316  19.021  0.00  0.00    +0.000 A 
ATOM      8  C   UNL     1       2.027   4.517  19.507  0.00  0.00    +0.000 A 
ATOM      9  C   UNL     1       2.641   5.619  18.866  0.00  0.00    +0.000 A 
ATOM     10  C   UNL     1       1.006   4.315  20.566  0.00  0.00    +0.000 C 
ATOM     11  C   UNL     1       1.211   2.813  20.937  0.00  0.00    +0.000 C 
ATOM     12  C   UNL     1       1.884   2.137  19.699  0.00  0.00    +0.000 C 
BRANCH   9  13
ATOM     13  C   UNL     1       2.308   6.994  19.107  0.00  0.00    +0.000 C 
ATOM     14  N   UNL     1       2.124   8.113  19.326  0.00  0.00    +0.000 NA
ENDBRANCH   9  13
ENDBRANCH   3   5
BRANCH   1  15
ATOM     15  C   UNL     1       6.640   6.594  16.390  0.00  0.00    +0.000 C 
BRANCH  15  16
ATOM     16  O   UNL     1       7.532   5.616  15.867  0.00  0.00    +0.000 OA
BRANCH  16  21
ATOM     17  C   UNL     1       5.413   2.749  11.437  0.00  0.00    +0.000 C 
ATOM     18  C   UNL     1       5.999   3.501  12.595  0.00  0.00    +0.000 A 
ATOM     19  C   UNL     1       5.497   3.339  13.890  0.00  0.00    +0.000 A 
ATOM     20  C   UNL     1       6.047   4.057  14.956  0.00  0.00    +0.000 A 
ATOM     21  C   UNL     1       7.117   4.935  14.752  0.00  0.00    +0.000 A 
ATOM     22  C   UNL     1       7.621   5.102  13.462  0.00  0.00    +0.000 A 
ATOM     23  C   UNL     1       7.062   4.390  12.391  0.00  0.00    +0.000 A 
ENDBRANCH  16  21
ENDBRANCH  15  16
ENDBRANCH   1  15
TORSDOF 5
ENDMDL
MODEL 2
REMARK VINA RESULT:      -7.3      3.948      6.344
REMARK  Name = 
REMARK  6 active torsions:
REMARK  status: ('A' for Active; 'I' for Inactive)
REMARK    1  A    between atoms: C_1  and  C_2
REMARK    2  A    between atoms: C_5  and  O_6
REMARK    3  A    between atoms: O_6  and  C_7
REMARK    4  A    between atoms: C_7  and  C_8
REMARK    5  A    between atoms: N_10  and  C_11
REMARK    6  A    between atoms: C_15  and  C_16
REMARK                            x       y       z     vdW  Elec       q    Type
REMARK                         _______ _______ _______ _____ _____    ______ ____
ROOT
ATOM      1  C   UNL     1       6.851   6.914  17.942  0.00  0.00    +0.000 C 
ATOM      2  O   UNL     1       7.216   6.051  18.735  0.00  0.00    +0.000 OA
ATOM      3  N   UNL     1       5.591   6.960  17.343  0.00  0.00    +0.000 N 
ATOM      4  H   UNL     1       5.573   7.332  16.400  0.00  0.00    +0.000 HD
ENDROOT
BRANCH   3   5
ATOM      5  C   UNL     1       4.704   5.931  17.612  0.00  0.00    +0.000 A 
ATOM      6  S   UNL     1       3.633   6.231  18.924  0.00  0.00    +0.000 S 
ATOM      7  C   UNL     1       2.840   4.787  18.626  0.00  0.00    +0.000 A 
ATOM      8  C   UNL     1       3.423   4.027  17.645  0.00  0.00    +0.000 A 
ATOM      9  C   UNL     1       4.522   4.683  17.039  0.00  0.00    +0.000 A 
ATOM     10  C   UNL     1       2.739   2.717  17.508  0.00  0.00    +0.000 C 
ATOM     11  C   UNL     1       1.397   2.968  18.265  0.00  0.00    +0.000 C 
ATOM     12  C   UNL     1       1.658   4.149  19.255  0.00  0.00    +0.000 C 
BRANCH   9  13
ATOM     13  C   UNL     1       5.375   4.099  16.044  0.00  0.00    +0.000 C 
ATOM     14  N   UNL     1       6.071   3.710  15.210  0.00  0.00    +0.000 NA
ENDBRANCH   9  13
ENDBRANCH   3   5
BRANCH   1  15
ATOM     15  C   UNL     1       7.782   8.043  17.482  0.00  0.00    +0.000 C 
BRANCH  15  16
ATOM     16  O   UNL     1       8.550   8.484  18.596  0.00  0.00    +0.000 OA
BRANCH  16  21
ATOM     17  C   UNL     1      10.006  13.952  19.160  0.00  0.00    +0.000 C 
ATOM     18  C   UNL     1       9.596  12.518  19.000  0.00  0.00    +0.000 A 
ATOM     19  C   UNL     1       9.895  11.567  19.982  0.00  0.00    +0.000 A 
ATOM     20  C   UNL     1       9.516  10.233  19.810  0.00  0.00    +0.000 A 
ATOM     21  C   UNL     1       8.819   9.827  18.668  0.00  0.00    +0.000 A 
ATOM     22  C   UNL     1       8.519  10.769  17.685  0.00  0.00    +0.000 A 
ATOM     23  C   UNL     1       8.908  12.106  17.851  0.00  0.00    +0.000 A 
ENDBRANCH  16  21
ENDBRANCH  15  16
ENDBRANCH   1  15
TORSDOF 5
ENDMDL
MODEL 3
REMARK VINA RESULT:      -7.3      0.192      1.042
REMARK  Name = 
REMARK  6 active torsions:
REMARK  status: ('A' for Active; 'I' for Inactive)
REMARK    1  A    between atoms: C_1  and  C_2
REMARK    2  A    between atoms: C_5  and  O_6
REMARK    3  A    between atoms: O_6  and  C_7
REMARK    4  A    between atoms: C_7  and  C_8
REMARK    5  A    between atoms: N_10  and  C_11
REMARK    6  A    between atoms: C_15  and  C_16
REMARK                            x       y       z     vdW  Elec       q    Type
REMARK                         _______ _______ _______ _____ _____    ______ ____
ROOT
ATOM      1  C   UNL     1       5.717   6.078  17.581  0.00  0.00    +0.000 C 
ATOM      2  O   UNL     1       6.155   5.679  18.656  0.00  0.00    +0.000 OA
ATOM      3  N   UNL     1       4.393   5.932  17.160  0.00  0.00    +0.000 N 
ATOM      4  H   UNL     1       4.268   5.802  16.163  0.00  0.00    +0.000 HD
ENDROOT
BRANCH   3   5
ATOM      5  C   UNL     1       3.521   5.240  17.982  0.00  0.00    +0.000 A 
ATOM      6  S   UNL     1       3.521   3.535  17.758  0.00  0.00    +0.000 S 
ATOM      7  C   UNL     1       2.456   3.352  19.037  0.00  0.00    +0.000 A 
ATOM      8  C   UNL     1       2.008   4.538  19.559  0.00  0.00    +0.000 A 
ATOM      9  C   UNL     1       2.621   5.658  18.949  0.00  0.00    +0.000 A 
ATOM     10  C   UNL     1       0.987   4.304  20.611  0.00  0.00    +0.000 C 
ATOM     11  C   UNL     1       1.193   2.792  20.938  0.00  0.00    +0.000 C 
ATOM     12  C   UNL     1       1.866   2.152  19.681  0.00  0.00    +0.000 C 
BRANCH   9  13
ATOM     13  C   UNL     1       2.287   7.026  19.231  0.00  0.00    +0.000 C 
ATOM     14  N   UNL     1       2.098   8.133  19.496  0.00  0.00    +0.000 NA
ENDBRANCH   9  13
ENDBRANCH   3   5
BRANCH   1  15
ATOM     15  C   UNL     1       6.612   6.762  16.540  0.00  0.00    +0.000 C 
BRANCH  15  16
ATOM     16  O   UNL     1       7.489   5.791  15.982  0.00  0.00    +0.000 OA
BRANCH  16  21
ATOM     17  C   UNL     1       5.831   2.715  11.496  0.00  0.00    +0.000 C 
ATOM     18  C   UNL     1       6.240   3.527  12.689  0.00  0.00    +0.000 A 
ATOM     19  C   UNL     1       7.205   4.535  12.580  0.00  0.00    +0.000 A 
ATOM     20  C   UNL     1       7.583   5.274  13.705  0.00  0.00    +0.000 A 
ATOM     21  C   UNL     1       6.996   5.034  14.950  0.00  0.00    +0.000 A 
ATOM     22  C   UNL     1       6.035   4.030  15.066  0.00  0.00    +0.000 A 
ATOM     23  C   UNL     1       5.663   3.281  13.940  0.00  0.00    +0.000 A 
ENDBRANCH  16  21
ENDBRANCH  15  16
ENDBRANCH   1  15
TORSDOF 5
ENDMDL
MODEL 4
REMARK VINA RESULT:      -7.3      3.896      6.312
REMARK  Name = 
REMARK  6 active torsions:
REMARK  status: ('A' for Active; 'I' for Inactive)
REMARK    1  A    between atoms: C_1  and  C_2
REMARK    2  A    between atoms: C_5  and  O_6
REMARK    3  A    between atoms: O_6  and  C_7
REMARK    4  A    between atoms: C_7  and  C_8
REMARK    5  A    between atoms: N_10  and  C_11
REMARK    6  A    between atoms: C_15  and  C_16
REMARK                            x       y       z     vdW  Elec       q    Type
REMARK                         _______ _______ _______ _____ _____    ______ ____
ROOT
ATOM      1  C   UNL     1       6.882   6.875  17.978  0.00  0.00    +0.000 C 
ATOM      2  O   UNL     1       7.281   5.990  18.730  0.00  0.00    +0.000 OA
ATOM      3  N   UNL     1       5.608   6.917  17.406  0.00  0.00    +0.000 N 
ATOM      4  H   UNL     1       5.564   7.324  16.479  0.00  0.00    +0.000 HD
ENDROOT
BRANCH   3   5
ATOM      5  C   UNL     1       4.749   5.860  17.653  0.00  0.00    +0.000 A 
ATOM      6  S   UNL     1       3.714   6.077  19.009  0.00  0.00    +0.000 S 
ATOM      7  C   UNL     1       2.938   4.633  18.667  0.00  0.00    +0.000 A 
ATOM      8  C   UNL     1       3.504   3.933  17.633  0.00  0.00    +0.000 A 
ATOM      9  C   UNL     1       4.571   4.637  17.027  0.00  0.00    +0.000 A 
ATOM     10  C   UNL     1       2.839   2.617  17.455  0.00  0.00    +0.000 C 
ATOM     11  C   UNL     1       1.517   2.806  18.263  0.00  0.00    +0.000 C 
ATOM     12  C   UNL     1       1.788   3.944  19.300  0.00  0.00    +0.000 C 
BRANCH   9  13
ATOM     13  C   UNL     1       5.403   4.116  15.979  0.00  0.00    +0.000 C 
ATOM     14  N   UNL     1       6.000   3.697  15.085  0.00  0.00    +0.000 NA
ENDBRANCH   9  13
ENDBRANCH   3   5
BRANCH   1  15
ATOM     15  C   UNL     1       7.779   8.041  17.544  0.00  0.00    +0.000 C 
BRANCH  15  16
ATOM     16  O   UNL     1       8.590   8.428  18.648  0.00  0.00    +0.000 OA
BRANCH  16  21
ATOM     17  C   UNL     1       9.513  14.036  18.824  0.00  0.00    +0.000 C 
ATOM     18  C   UNL     1       9.297  12.552  18.787  0.00  0.00    +0.000 A 
ATOM     19  C   UNL     1       8.607  11.948  17.730  0.00  0.00    +0.000 A 
ATOM     20  C   UNL     1       8.404  10.565  17.720  0.00  0.00    +0.000 A 
ATOM     21  C   UNL     1       8.899   9.760  18.750  0.00  0.00    +0.000 A 
ATOM     22  C   UNL     1       9.587  10.356  19.807  0.00  0.00    +0.000 A 
ATOM     23  C   UNL     1       9.781  11.745  19.824  0.00  0.00    +0.000 A 
ENDBRANCH  16  21
ENDBRANCH  15  16
ENDBRANCH   1  15
TORSDOF 5
ENDMDL
MODEL 5
REMARK VINA RESULT:      -7.3      3.923      6.082
REMARK  Name = 
REMARK  6 active torsions:
REMARK  status: ('A' for Active; 'I' for Inactive)
REMARK    1  A    between atoms: C_1  and  C_2
REMARK    2  A    between atoms: C_5  and  O_6
REMARK    3  A    between atoms: O_6  and  C_7
REMARK    4  A    between atoms: C_7  and  C_8
REMARK    5  A    between atoms: N_10  and  C_11
REMARK    6  A    between atoms: C_15  and  C_16
REMARK                            x       y       z     vdW  Elec       q    Type
REMARK                         _______ _______ _______ _____ _____    ______ ____
ROOT
ATOM      1  C   UNL     1       6.862   6.916  17.422  0.00  0.00    +0.000 C 
ATOM      2  O   UNL     1       6.537   6.732  16.253  0.00  0.00    +0.000 OA
ATOM      3  N   UNL     1       6.206   6.364  18.525  0.00  0.00    +0.000 N 
ATOM      4  H   UNL     1       6.195   6.944  19.356  0.00  0.00    +0.000 HD
ENDROOT
BRANCH   3   5
ATOM      5  C   UNL     1       5.075   5.601  18.294  0.00  0.00    +0.000 A 
ATOM      6  S   UNL     1       5.358   3.907  18.203  0.00  0.00    +0.000 S 
ATOM      7  C   UNL     1       3.712   3.625  18.064  0.00  0.00    +0.000 A 
ATOM      8  C   UNL     1       2.961   4.768  17.969  0.00  0.00    +0.000 A 
ATOM      9  C   UNL     1       3.746   5.939  18.100  0.00  0.00    +0.000 A 
ATOM     10  C   UNL     1       1.531   4.447  17.737  0.00  0.00    +0.000 C 
ATOM     11  C   UNL     1       1.467   2.936  18.126  0.00  0.00    +0.000 C 
ATOM     12  C   UNL     1       2.918   2.376  17.974  0.00  0.00    +0.000 C 
BRANCH   9  13
ATOM     13  C   UNL     1       3.246   7.277  17.957  0.00  0.00    +0.000 C 
ATOM     14  N   UNL     1       2.784   8.334  17.904  0.00  0.00    +0.000 NA
ENDBRANCH   9  13
ENDBRANCH   3   5
BRANCH   1  15
ATOM     15  C   UNL     1       8.032   7.830  17.808  0.00  0.00    +0.000 C 
BRANCH  15  16
ATOM     16  O   UNL     1       7.610   9.185  17.693  0.00  0.00    +0.000 OA
BRANCH  16  21
ATOM     17  C   UNL     1      10.790  13.443  19.716  0.00  0.00    +0.000 C 
ATOM     18  C   UNL     1       9.974  12.301  19.186  0.00  0.00    +0.000 A 
ATOM     19  C   UNL     1       9.123  12.470  18.088  0.00  0.00    +0.000 A 
ATOM     20  C   UNL     1       8.360  11.397  17.616  0.00  0.00    +0.000 A 
ATOM     21  C   UNL     1       8.445  10.138  18.217  0.00  0.00    +0.000 A 
ATOM     22  C   UNL     1       9.290   9.964  19.313  0.00  0.00    +0.000 A 
ATOM     23  C   UNL     1      10.047  11.042  19.794  0.00  0.00    +0.000 A 
ENDBRANCH  16  21
ENDBRANCH  15  16
ENDBRANCH   1  15
TORSDOF 5
ENDMDL
MODEL 6
REMARK VINA RESULT:      -7.2      3.952      6.078
REMARK  Name = 
REMARK  6 active torsions:
REMARK  status: ('A' for Active; 'I' for Inactive)
REMARK    1  A    between atoms: C_1  and  C_2
REMARK    2  A    between atoms: C_5  and  O_6
REMARK    3  A    between atoms: O_6  and  C_7
REMARK    4  A    between atoms: C_7  and  C_8
REMARK    5  A    between atoms: N_10  and  C_11
REMARK    6  A    between atoms: C_15  and  C_16
REMARK                            x       y       z     vdW  Elec       q    Type
REMARK                         _______ _______ _______ _____ _____    ______ ____
ROOT
ATOM      1  C   UNL     1       6.963   6.984  17.403  0.00  0.00    +0.000 C 
ATOM      2  O   UNL     1       6.707   6.710  16.234  0.00  0.00    +0.000 OA
ATOM      3  N   UNL     1       6.254   6.500  18.505  0.00  0.00    +0.000 N 
ATOM      4  H   UNL     1       6.187   7.137  19.290  0.00  0.00    +0.000 HD
ENDROOT
BRANCH   3   5
ATOM      5  C   UNL     1       5.150   5.700  18.269  0.00  0.00    +0.000 A 
ATOM      6  S   UNL     1       5.492   4.019  18.145  0.00  0.00    +0.000 S 
ATOM      7  C   UNL     1       3.858   3.680  18.012  0.00  0.00    +0.000 A 
ATOM      8  C   UNL     1       3.065   4.797  17.942  0.00  0.00    +0.000 A 
ATOM      9  C   UNL     1       3.807   5.993  18.089  0.00  0.00    +0.000 A 
ATOM     10  C   UNL     1       1.645   4.428  17.715  0.00  0.00    +0.000 C 
ATOM     11  C   UNL     1       1.639   2.910  18.076  0.00  0.00    +0.000 C 
ATOM     12  C   UNL     1       3.108   2.405  17.905  0.00  0.00    +0.000 C 
BRANCH   9  13
ATOM     13  C   UNL     1       3.259   7.314  17.974  0.00  0.00    +0.000 C 
ATOM     14  N   UNL     1       2.737   8.340  17.885  0.00  0.00    +0.000 NA
ENDBRANCH   9  13
ENDBRANCH   3   5
BRANCH   1  15
ATOM     15  C   UNL     1       8.094   7.946  17.785  0.00  0.00    +0.000 C 
BRANCH  15  16
ATOM     16  O   UNL     1       7.605   9.280  17.710  0.00  0.00    +0.000 OA
BRANCH  16  21
ATOM     17  C   UNL     1      11.231  13.045  19.949  0.00  0.00    +0.000 C 
ATOM     18  C   UNL     1      10.255  12.074  19.354  0.00  0.00    +0.000 A 
ATOM     19  C   UNL     1      10.074  10.801  19.906  0.00  0.00    +0.000 A 
ATOM     20  C   UNL     1       9.170   9.904  19.331  0.00  0.00    +0.000 A 
ATOM     21  C   UNL     1       8.418  10.265  18.208  0.00  0.00    +0.000 A 
ATOM     22  C   UNL     1       8.595  11.532  17.652  0.00  0.00    +0.000 A 
ATOM     23  C   UNL     1       9.510  12.428  18.222  0.00  0.00    +0.000 A 
ENDBRANCH  16  21
ENDBRANCH  15  16
ENDBRANCH   1  15
TORSDOF 5
ENDMDL
MODEL 7
REMARK VINA RESULT:      -7.2      3.806      5.934
REMARK  Name = 
REMARK  6 active torsions:
REMARK  status: ('A' for Active; 'I' for Inactive)
REMARK    1  A    between atoms: C_1  and  C_2
REMARK    2  A    between atoms: C_5  and  O_6
REMARK    3  A    between atoms: O_6  and  C_7
REMARK    4  A    between atoms: C_7  and  C_8
REMARK    5  A    between atoms: N_10  and  C_11
REMARK    6  A    between atoms: C_15  and  C_16
REMARK                            x       y       z     vdW  Elec       q    Type
REMARK                         _______ _______ _______ _____ _____    ______ ____
ROOT
ATOM      1  C   UNL     1       6.797   6.899  17.836  0.00  0.00    +0.000 C 
ATOM      2  O   UNL     1       7.009   6.091  18.737  0.00  0.00    +0.000 OA
ATOM      3  N   UNL     1       5.632   6.944  17.068  0.00  0.00    +0.000 N 
ATOM      4  H   UNL     1       5.759   7.235  16.105  0.00  0.00    +0.000 HD
ENDROOT
BRANCH   3   5
ATOM      5  C   UNL     1       4.666   5.978  17.294  0.00  0.00    +0.000 A 
ATOM      6  S   UNL     1       5.094   4.397  16.771  0.00  0.00    +0.000 S 
ATOM      7  C   UNL     1       3.675   3.784  17.415  0.00  0.00    +0.000 A 
ATOM      8  C   UNL     1       2.832   4.744  17.912  0.00  0.00    +0.000 A 
ATOM      9  C   UNL     1       3.397   6.040  17.846  0.00  0.00    +0.000 A 
ATOM     10  C   UNL     1       1.551   4.146  18.365  0.00  0.00    +0.000 C 
ATOM     11  C   UNL     1       1.911   2.630  18.454  0.00  0.00    +0.000 C 
ATOM     12  C   UNL     1       3.134   2.406  17.506  0.00  0.00    +0.000 C 
BRANCH   9  13
ATOM     13  C   UNL     1       2.714   7.248  18.213  0.00  0.00    +0.000 C 
ATOM     14  N   UNL     1       2.230   8.236  18.566  0.00  0.00    +0.000 NA
ENDBRANCH   9  13
ENDBRANCH   3   5
BRANCH   1  15
ATOM     15  C   UNL     1       7.837   7.946  17.421  0.00  0.00    +0.000 C 
BRANCH  15  16
ATOM     16  O   UNL     1       8.488   8.432  18.589  0.00  0.00    +0.000 OA
BRANCH  16  21
ATOM     17  C   UNL     1       9.896  13.922  19.052  0.00  0.00    +0.000 C 
ATOM     18  C   UNL     1       9.498  12.481  18.920  0.00  0.00    +0.000 A 
ATOM     19  C   UNL     1       9.848  11.543  19.897  0.00  0.00    +0.000 A 
ATOM     20  C   UNL     1       9.479  10.202  19.750  0.00  0.00    +0.000 A 
ATOM     21  C   UNL     1       8.743   9.778  18.640  0.00  0.00    +0.000 A 
ATOM     22  C   UNL     1       8.392  10.709  17.663  0.00  0.00    +0.000 A 
ATOM     23  C   UNL     1       8.771  12.052  17.803  0.00  0.00    +0.000 A 
ENDBRANCH  16  21
ENDBRANCH  15  16
ENDBRANCH   1  15
TORSDOF 5
ENDMDL
MODEL 8
REMARK VINA RESULT:      -7.0      4.157      6.325
REMARK  Name = 
REMARK  6 active torsions:
REMARK  status: ('A' for Active; 'I' for Inactive)
REMARK    1  A    between atoms: C_1  and  C_2
REMARK    2  A    between atoms: C_5  and  O_6
REMARK    3  A    between atoms: O_6  and  C_7
REMARK    4  A    between atoms: C_7  and  C_8
REMARK    5  A    between atoms: N_10  and  C_11
REMARK    6  A    between atoms: C_15  and  C_16
REMARK                            x       y       z     vdW  Elec       q    Type
REMARK                         _______ _______ _______ _____ _____    ______ ____
ROOT
ATOM      1  C   UNL     1       7.190   7.210  17.841  0.00  0.00    +0.000 C 
ATOM      2  O   UNL     1       7.342   6.393  18.745  0.00  0.00    +0.000 OA
ATOM      3  N   UNL     1       6.068   7.276  17.011  0.00  0.00    +0.000 N 
ATOM      4  H   UNL     1       6.251   7.573  16.060  0.00  0.00    +0.000 HD
ENDROOT
BRANCH   3   5
ATOM      5  C   UNL     1       5.079   6.322  17.177  0.00  0.00    +0.000 A 
ATOM      6  S   UNL     1       5.554   4.717  16.780  0.00  0.00    +0.000 S 
ATOM      7  C   UNL     1       4.071   4.135  17.295  0.00  0.00    +0.000 A 
ATOM      8  C   UNL     1       3.184   5.117  17.650  0.00  0.00    +0.000 A 
ATOM      9  C   UNL     1       3.758   6.409  17.585  0.00  0.00    +0.000 A 
ATOM     10  C   UNL     1       1.858   4.540  17.989  0.00  0.00    +0.000 C 
ATOM     11  C   UNL     1       2.200   3.030  18.190  0.00  0.00    +0.000 C 
ATOM     12  C   UNL     1       3.517   2.762  17.392  0.00  0.00    +0.000 C 
BRANCH   9  13
ATOM     13  C   UNL     1       3.044   7.633  17.817  0.00  0.00    +0.000 C 
ATOM     14  N   UNL     1       2.405   8.568  18.038  0.00  0.00    +0.000 NA
ENDBRANCH   9  13
ENDBRANCH   3   5
BRANCH   1  15
ATOM     15  C   UNL     1       8.264   8.247  17.491  0.00  0.00    +0.000 C 
BRANCH  15  16
ATOM     16  O   UNL     1       7.833   9.523  17.949  0.00  0.00    +0.000 OA
BRANCH  16  21
ATOM     17  C   UNL     1      11.658  13.277  19.850  0.00  0.00    +0.000 C 
ATOM     18  C   UNL     1      10.665  12.265  19.360  0.00  0.00    +0.000 A 
ATOM     19  C   UNL     1      10.073  12.386  18.098  0.00  0.00    +0.000 A 
ATOM     20  C   UNL     1       9.140  11.440  17.663  0.00  0.00    +0.000 A 
ATOM     21  C   UNL     1       8.795  10.350  18.468  0.00  0.00    +0.000 A 
ATOM     22  C   UNL     1       9.382  10.224  19.727  0.00  0.00    +0.000 A 
ATOM     23  C   UNL     1      10.309  11.179  20.169  0.00  0.00    +0.000 A 
ENDBRANCH  16  21
ENDBRANCH  15  16
ENDBRANCH   1  15
TORSDOF 5
ENDMDL
MODEL 9
REMARK VINA RESULT:      -7.0      4.802      7.281
REMARK  Name = 
REMARK  6 active torsions:
REMARK  status: ('A' for Active; 'I' for Inactive)
REMARK    1  A    between atoms: C_1  and  C_2
REMARK    2  A    between atoms: C_5  and  O_6
REMARK    3  A    between atoms: O_6  and  C_7
REMARK    4  A    between atoms: C_7  and  C_8
REMARK    5  A    between atoms: N_10  and  C_11
REMARK    6  A    between atoms: C_15  and  C_16
REMARK                            x       y       z     vdW  Elec       q    Type
REMARK                         _______ _______ _______ _____ _____    ______ ____
ROOT
ATOM      1  C   UNL     1       7.585   7.793  17.835  0.00  0.00    +0.000 C 
ATOM      2  O   UNL     1       6.705   8.205  17.085  0.00  0.00    +0.000 OA
ATOM      3  N   UNL     1       7.644   6.498  18.354  0.00  0.00    +0.000 N 
ATOM      4  H   UNL     1       8.037   6.422  19.285  0.00  0.00    +0.000 HD
ENDROOT
BRANCH   3   5
ATOM      5  C   UNL     1       6.609   5.628  18.053  0.00  0.00    +0.000 A 
ATOM      6  S   UNL     1       5.632   5.181  19.395  0.00  0.00    +0.000 S 
ATOM      7  C   UNL     1       4.610   4.323  18.384  0.00  0.00    +0.000 A 
ATOM      8  C   UNL     1       5.039   4.264  17.083  0.00  0.00    +0.000 A 
ATOM      9  C   UNL     1       6.214   5.024  16.871  0.00  0.00    +0.000 A 
ATOM     10  C   UNL     1       4.149   3.400  16.268  0.00  0.00    +0.000 C 
ATOM     11  C   UNL     1       2.884   3.285  17.174  0.00  0.00    +0.000 C 
ATOM     12  C   UNL     1       3.355   3.573  18.636  0.00  0.00    +0.000 C 
BRANCH   9  13
ATOM     13  C   UNL     1       6.938   5.079  15.632  0.00  0.00    +0.000 C 
ATOM     14  N   UNL     1       7.481   5.202  14.621  0.00  0.00    +0.000 NA
ENDBRANCH   9  13
ENDBRANCH   3   5
BRANCH   1  15
ATOM     15  C   UNL     1       8.724   8.695  18.326  0.00  0.00    +0.000 C 
BRANCH  15  16
ATOM     16  O   UNL     1       8.375  10.051  18.072  0.00  0.00    +0.000 OA
BRANCH  16  21
ATOM     17  C   UNL     1      11.721  14.322  19.773  0.00  0.00    +0.000 C 
ATOM     18  C   UNL     1      10.860  13.176  19.332  0.00  0.00    +0.000 A 
ATOM     19  C   UNL     1      10.084  13.261  18.171  0.00  0.00    +0.000 A 
ATOM     20  C   UNL     1       9.277  12.188  17.782  0.00  0.00    +0.000 A 
ATOM     21  C   UNL     1       9.243  11.008  18.531  0.00  0.00    +0.000 A 
ATOM     22  C   UNL     1      10.014  10.918  19.690  0.00  0.00    +0.000 A 
ATOM     23  C   UNL     1      10.815  11.998  20.087  0.00  0.00    +0.000 A 
ENDBRANCH  16  21
ENDBRANCH  15  16
ENDBRANCH   1  15
TORSDOF 5
ENDMDL
