MODEL 1
REMARK VINA RESULT:      -8.9      0.000      0.000
REMARK  Name = 
REMARK  11 active torsions:
REMARK  status: ('A' for Active; 'I' for Inactive)
REMARK    1  A    between atoms: C_1  and  O_2
REMARK    2  A    between atoms: O_2  and  C_3
REMARK    3  A    between atoms: C_6  and  C_7
REMARK    4  A    between atoms: C_8  and  C_9
REMARK    5  A    between atoms: C_9  and  C_11
REMARK    6  A    between atoms: C_13  and  C_14
REMARK    7  A    between atoms: C_17  and  O_18
REMARK    8  A    between atoms: O_18  and  C_19
REMARK    9  A    between atoms: C_20  and  O_21
REMARK   10  A    between atoms: O_21  and  C_22
REMARK   11  A    between atoms: C_26  and  C_27
REMARK                            x       y       z     vdW  Elec       q    Type
REMARK                         _______ _______ _______ _____ _____    ______ ____
ROOT
ATOM      1  C   UNL     1       0.525  10.693  20.937  0.00  0.00    +0.000 A 
ATOM      2  C   UNL     1      -0.817  10.606  20.281  0.00  0.00    +0.000 A 
ATOM      3  C   UNL     1      -1.208  11.687  19.578  0.00  0.00    +0.000 A 
ATOM      4  N   UNL     1      -0.348  12.793  19.478  0.00  0.00    +0.000 N 
ATOM      5  N   UNL     1      -0.554  13.969  18.836  0.00  0.00    +0.000 NA
ATOM      6  C   UNL     1       0.559  14.694  19.028  0.00  0.00    +0.000 A 
ATOM      7  C   UNL     1       1.501  13.967  19.795  0.00  0.00    +0.000 A 
ATOM      8  C   UNL     1       0.909  12.764  20.089  0.00  0.00    +0.000 A 
ATOM      9  N   UNL     1       1.347  11.702  20.827  0.00  0.00    +0.000 NA
ENDROOT
BRANCH   3  10
ATOM     10  C   UNL     1      -2.533  11.678  18.940  0.00  0.00    +0.000 A 
ATOM     11  C   UNL     1      -3.658  12.093  19.654  0.00  0.00    +0.000 A 
ATOM     12  C   UNL     1      -4.914  12.050  19.051  0.00  0.00    +0.000 A 
ATOM     13  C   UNL     1      -5.076  11.588  17.734  0.00  0.00    +0.000 A 
ATOM     14  C   UNL     1      -3.948  11.163  17.009  0.00  0.00    +0.000 A 
ATOM     15  C   UNL     1      -2.685  11.222  17.623  0.00  0.00    +0.000 A 
BRANCH  13  16
ATOM     16  O   UNL     1      -6.390  11.628  17.339  0.00  0.00    +0.000 OA
ATOM     17  C   UNL     1      -7.242  12.623  17.885  0.00  0.00    +0.000 C 
ENDBRANCH  13  16
BRANCH  14  18
ATOM     18  O   UNL     1      -4.133  10.695  15.738  0.00  0.00    +0.000 OA
ATOM     19  C   UNL     1      -2.991  10.314  14.980  0.00  0.00    +0.000 C 
ENDBRANCH  14  18
ENDBRANCH   3  10
BRANCH   6  20
ATOM     20  C   UNL     1       0.695  16.049  18.474  0.00  0.00    +0.000 A 
ATOM     21  C   UNL     1      -0.426  16.886  18.350  0.00  0.00    +0.000 A 
ATOM     22  C   UNL     1      -0.310  18.167  17.802  0.00  0.00    +0.000 A 
ATOM     23  C   UNL     1       0.931  18.631  17.372  0.00  0.00    +0.000 A 
ATOM     24  C   UNL     1       2.056  17.820  17.500  0.00  0.00    +0.000 A 
ATOM     25  C   UNL     1       1.941  16.539  18.048  0.00  0.00    +0.000 A 
ENDBRANCH   6  20
BRANCH   1  26
ATOM     26  C   UNL     1       0.933   9.505  21.812  0.00  0.00    +0.000 C 
ATOM     27  O   UNL     1       1.317   9.702  22.957  0.00  0.00    +0.000 OA
BRANCH  26  29
ATOM     28  C   UNL     1       1.890   7.639  20.521  0.00  0.00    +0.000 C 
ATOM     29  C   UNL     1       0.852   8.148  21.205  0.00  0.00    +0.000 C 
BRANCH  28  33
ATOM     30  C   UNL     1       1.977   3.763  18.675  0.00  0.00    +0.000 A 
ATOM     31  C   UNL     1       2.346   4.905  17.964  0.00  0.00    +0.000 A 
ATOM     32  C   UNL     1       2.319   6.165  18.575  0.00  0.00    +0.000 A 
ATOM     33  C   UNL     1       1.889   6.305  19.901  0.00  0.00    +0.000 A 
ATOM     34  C   UNL     1       1.522   5.151  20.606  0.00  0.00    +0.000 A 
ATOM     35  C   UNL     1       1.557   3.891  19.996  0.00  0.00    +0.000 A 
BRANCH  30  37
ATOM     36  C   UNL     1       3.260   1.872  18.061  0.00  0.00    +0.000 C 
ATOM     37  O   UNL     1       2.033   2.591  17.972  0.00  0.00    +0.000 OA
ENDBRANCH  30  37
ENDBRANCH  28  33
ENDBRANCH  26  29
ENDBRANCH   1  26
TORSDOF 8
ENDMDL
MODEL 2
REMARK VINA RESULT:      -8.2      0.598      1.207
REMARK  Name = 
REMARK  11 active torsions:
REMARK  status: ('A' for Active; 'I' for Inactive)
REMARK    1  A    between atoms: C_1  and  O_2
REMARK    2  A    between atoms: O_2  and  C_3
REMARK    3  A    between atoms: C_6  and  C_7
REMARK    4  A    between atoms: C_8  and  C_9
REMARK    5  A    between atoms: C_9  and  C_11
REMARK    6  A    between atoms: C_13  and  C_14
REMARK    7  A    between atoms: C_17  and  O_18
REMARK    8  A    between atoms: O_18  and  C_19
REMARK    9  A    between atoms: C_20  and  O_21
REMARK   10  A    between atoms: O_21  and  C_22
REMARK   11  A    between atoms: C_26  and  C_27
REMARK                            x       y       z     vdW  Elec       q    Type
REMARK                         _______ _______ _______ _____ _____    ______ ____
ROOT
ATOM      1  C   UNL     1       0.750  10.537  20.565  0.00  0.00    +0.000 A 
ATOM      2  C   UNL     1      -0.637  10.498  20.004  0.00  0.00    +0.000 A 
ATOM      3  C   UNL     1      -1.055  11.612  19.372  0.00  0.00    +0.000 A 
ATOM      4  N   UNL     1      -0.183  12.707  19.253  0.00  0.00    +0.000 N 
ATOM      5  N   UNL     1      -0.411  13.910  18.672  0.00  0.00    +0.000 NA
ATOM      6  C   UNL     1       0.726  14.609  18.812  0.00  0.00    +0.000 A 
ATOM      7  C   UNL     1       1.706  13.836  19.482  0.00  0.00    +0.000 A 
ATOM      8  C   UNL     1       1.113  12.633  19.771  0.00  0.00    +0.000 A 
ATOM      9  N   UNL     1       1.581  11.535  20.435  0.00  0.00    +0.000 NA
ENDROOT
BRANCH   3  10
ATOM     10  C   UNL     1      -2.422  11.651  18.829  0.00  0.00    +0.000 A 
ATOM     11  C   UNL     1      -3.471  12.146  19.606  0.00  0.00    +0.000 A 
ATOM     12  C   UNL     1      -4.768  12.147  19.095  0.00  0.00    +0.000 A 
ATOM     13  C   UNL     1      -5.047  11.652  17.810  0.00  0.00    +0.000 A 
ATOM     14  C   UNL     1      -3.997  11.146  17.023  0.00  0.00    +0.000 A 
ATOM     15  C   UNL     1      -2.691  11.160  17.543  0.00  0.00    +0.000 A 
BRANCH  13  16
ATOM     16  O   UNL     1      -6.382  11.746  17.508  0.00  0.00    +0.000 OA
ATOM     17  C   UNL     1      -7.331  11.702  18.562  0.00  0.00    +0.000 C 
ENDBRANCH  13  16
BRANCH  14  18
ATOM     18  O   UNL     1      -4.295  10.646  15.786  0.00  0.00    +0.000 OA
ATOM     19  C   UNL     1      -3.236  10.445  14.859  0.00  0.00    +0.000 C 
ENDBRANCH  14  18
ENDBRANCH   3  10
BRANCH   6  20
ATOM     20  C   UNL     1       0.849  15.982  18.302  0.00  0.00    +0.000 A 
ATOM     21  C   UNL     1       2.089  16.472  17.861  0.00  0.00    +0.000 A 
ATOM     22  C   UNL     1       2.221  17.784  17.397  0.00  0.00    +0.000 A 
ATOM     23  C   UNL     1       1.112  18.625  17.365  0.00  0.00    +0.000 A 
ATOM     24  C   UNL     1      -0.129  18.153  17.785  0.00  0.00    +0.000 A 
ATOM     25  C   UNL     1      -0.261  16.840  18.248  0.00  0.00    +0.000 A 
ENDBRANCH   6  20
BRANCH   1  26
ATOM     26  C   UNL     1       1.195   9.308  21.363  0.00  0.00    +0.000 C 
ATOM     27  O   UNL     1       1.284   9.380  22.581  0.00  0.00    +0.000 OA
BRANCH  26  29
ATOM     28  C   UNL     1       1.500   6.871  21.195  0.00  0.00    +0.000 C 
ATOM     29  C   UNL     1       1.516   8.073  20.597  0.00  0.00    +0.000 C 
BRANCH  28  33
ATOM     30  C   UNL     1       2.274   3.182  19.138  0.00  0.00    +0.000 A 
ATOM     31  C   UNL     1       1.089   3.372  19.849  0.00  0.00    +0.000 A 
ATOM     32  C   UNL     1       0.843   4.580  20.514  0.00  0.00    +0.000 A 
ATOM     33  C   UNL     1       1.796   5.607  20.504  0.00  0.00    +0.000 A 
ATOM     34  C   UNL     1       2.983   5.405  19.786  0.00  0.00    +0.000 A 
ATOM     35  C   UNL     1       3.224   4.200  19.115  0.00  0.00    +0.000 A 
BRANCH  30  37
ATOM     36  C   UNL     1       3.698   1.670  18.004  0.00  0.00    +0.000 C 
ATOM     37  O   UNL     1       2.409   1.959  18.539  0.00  0.00    +0.000 OA
ENDBRANCH  30  37
ENDBRANCH  28  33
ENDBRANCH  26  29
ENDBRANCH   1  26
TORSDOF 8
ENDMDL
MODEL 3
REMARK VINA RESULT:      -8.2      2.648      3.596
REMARK  Name = 
REMARK  11 active torsions:
REMARK  status: ('A' for Active; 'I' for Inactive)
REMARK    1  A    between atoms: C_1  and  O_2
REMARK    2  A    between atoms: O_2  and  C_3
REMARK    3  A    between atoms: C_6  and  C_7
REMARK    4  A    between atoms: C_8  and  C_9
REMARK    5  A    between atoms: C_9  and  C_11
REMARK    6  A    between atoms: C_13  and  C_14
REMARK    7  A    between atoms: C_17  and  O_18
REMARK    8  A    between atoms: O_18  and  C_19
REMARK    9  A    between atoms: C_20  and  O_21
REMARK   10  A    between atoms: O_21  and  C_22
REMARK   11  A    between atoms: C_26  and  C_27
REMARK                            x       y       z     vdW  Elec       q    Type
REMARK                         _______ _______ _______ _____ _____    ______ ____
ROOT
ATOM      1  C   UNL     1       0.264  10.359  21.346  0.00  0.00    +0.000 A 
ATOM      2  C   UNL     1      -0.435  10.153  20.038  0.00  0.00    +0.000 A 
ATOM      3  C   UNL     1      -1.392  11.049  19.727  0.00  0.00    +0.000 A 
ATOM      4  N   UNL     1      -1.655  12.112  20.606  0.00  0.00    +0.000 N 
ATOM      5  N   UNL     1      -2.573  13.101  20.486  0.00  0.00    +0.000 NA
ATOM      6  C   UNL     1      -2.432  13.871  21.576  0.00  0.00    +0.000 A 
ATOM      7  C   UNL     1      -1.396  13.376  22.404  0.00  0.00    +0.000 A 
ATOM      8  C   UNL     1      -0.917  12.248  21.785  0.00  0.00    +0.000 A 
ATOM      9  N   UNL     1       0.052  11.359  22.157  0.00  0.00    +0.000 NA
ENDROOT
BRANCH   3  10
ATOM     10  C   UNL     1      -2.141  10.881  18.472  0.00  0.00    +0.000 A 
ATOM     11  C   UNL     1      -1.639  10.060  17.460  0.00  0.00    +0.000 A 
ATOM     12  C   UNL     1      -2.340   9.934  16.262  0.00  0.00    +0.000 A 
ATOM     13  C   UNL     1      -3.544  10.624  16.044  0.00  0.00    +0.000 A 
ATOM     14  C   UNL     1      -4.053  11.457  17.055  0.00  0.00    +0.000 A 
ATOM     15  C   UNL     1      -3.345  11.568  18.265  0.00  0.00    +0.000 A 
BRANCH  13  16
ATOM     16  O   UNL     1      -4.064  10.358  14.802  0.00  0.00    +0.000 OA
ATOM     17  C   UNL     1      -3.189   9.945  13.764  0.00  0.00    +0.000 C 
ENDBRANCH  13  16
BRANCH  14  18
ATOM     18  O   UNL     1      -5.213  12.138  16.812  0.00  0.00    +0.000 OA
ATOM     19  C   UNL     1      -6.143  12.302  17.875  0.00  0.00    +0.000 C 
ENDBRANCH  14  18
ENDBRANCH   3  10
BRANCH   6  20
ATOM     20  C   UNL     1      -3.279  15.053  21.795  0.00  0.00    +0.000 A 
ATOM     21  C   UNL     1      -2.703  16.322  21.968  0.00  0.00    +0.000 A 
ATOM     22  C   UNL     1      -3.499  17.447  22.201  0.00  0.00    +0.000 A 
ATOM     23  C   UNL     1      -4.885  17.320  22.260  0.00  0.00    +0.000 A 
ATOM     24  C   UNL     1      -5.474  16.071  22.076  0.00  0.00    +0.000 A 
ATOM     25  C   UNL     1      -4.678  14.946  21.843  0.00  0.00    +0.000 A 
ENDBRANCH   6  20
BRANCH   1  26
ATOM     26  C   UNL     1       1.287   9.292  21.745  0.00  0.00    +0.000 C 
ATOM     27  O   UNL     1       1.844   9.368  22.832  0.00  0.00    +0.000 OA
BRANCH  26  29
ATOM     28  C   UNL     1       1.381   6.919  21.096  0.00  0.00    +0.000 C 
ATOM     29  C   UNL     1       1.565   8.208  20.764  0.00  0.00    +0.000 C 
BRANCH  28  33
ATOM     30  C   UNL     1       1.998   3.607  18.434  0.00  0.00    +0.000 A 
ATOM     31  C   UNL     1       1.337   3.437  19.650  0.00  0.00    +0.000 A 
ATOM     32  C   UNL     1       1.136   4.523  20.510  0.00  0.00    +0.000 A 
ATOM     33  C   UNL     1       1.624   5.794  20.180  0.00  0.00    +0.000 A 
ATOM     34  C   UNL     1       2.287   5.954  18.956  0.00  0.00    +0.000 A 
ATOM     35  C   UNL     1       2.480   4.868  18.093  0.00  0.00    +0.000 A 
BRANCH  30  37
ATOM     36  C   UNL     1       3.362   1.757  17.871  0.00  0.00    +0.000 C 
ATOM     37  O   UNL     1       2.145   2.474  17.682  0.00  0.00    +0.000 OA
ENDBRANCH  30  37
ENDBRANCH  28  33
ENDBRANCH  26  29
ENDBRANCH   1  26
TORSDOF 8
ENDMDL
MODEL 4
REMARK VINA RESULT:      -8.1      1.316      1.765
REMARK  Name = 
REMARK  11 active torsions:
REMARK  status: ('A' for Active; 'I' for Inactive)
REMARK    1  A    between atoms: C_1  and  O_2
REMARK    2  A    between atoms: O_2  and  C_3
REMARK    3  A    between atoms: C_6  and  C_7
REMARK    4  A    between atoms: C_8  and  C_9
REMARK    5  A    between atoms: C_9  and  C_11
REMARK    6  A    between atoms: C_13  and  C_14
REMARK    7  A    between atoms: C_17  and  O_18
REMARK    8  A    between atoms: O_18  and  C_19
REMARK    9  A    between atoms: C_20  and  O_21
REMARK   10  A    between atoms: O_21  and  C_22
REMARK   11  A    between atoms: C_26  and  C_27
REMARK                            x       y       z     vdW  Elec       q    Type
REMARK                         _______ _______ _______ _____ _____    ______ ____
ROOT
ATOM      1  C   UNL     1       0.604  10.192  20.464  0.00  0.00    +0.000 A 
ATOM      2  C   UNL     1      -0.763  10.216  19.855  0.00  0.00    +0.000 A 
ATOM      3  C   UNL     1      -1.124  11.363  19.248  0.00  0.00    +0.000 A 
ATOM      4  N   UNL     1      -0.215  12.432  19.195  0.00  0.00    +0.000 N 
ATOM      5  N   UNL     1      -0.385  13.660  18.647  0.00  0.00    +0.000 NA
ATOM      6  C   UNL     1       0.769  14.316  18.848  0.00  0.00    +0.000 A 
ATOM      7  C   UNL     1       1.700  13.491  19.524  0.00  0.00    +0.000 A 
ATOM      8  C   UNL     1       1.059  12.299  19.753  0.00  0.00    +0.000 A 
ATOM      9  N   UNL     1       1.470  11.166  20.395  0.00  0.00    +0.000 NA
ENDROOT
BRANCH   3  10
ATOM     10  C   UNL     1      -2.469  11.463  18.662  0.00  0.00    +0.000 A 
ATOM     11  C   UNL     1      -3.521  11.997  19.408  0.00  0.00    +0.000 A 
ATOM     12  C   UNL     1      -4.800  12.057  18.855  0.00  0.00    +0.000 A 
ATOM     13  C   UNL     1      -5.058  11.583  17.558  0.00  0.00    +0.000 A 
ATOM     14  C   UNL     1      -4.005  11.038  16.802  0.00  0.00    +0.000 A 
ATOM     15  C   UNL     1      -2.717  10.993  17.364  0.00  0.00    +0.000 A 
BRANCH  13  16
ATOM     16  O   UNL     1      -6.377  11.736  17.214  0.00  0.00    +0.000 OA
ATOM     17  C   UNL     1      -6.937  13.040  17.201  0.00  0.00    +0.000 C 
ENDBRANCH  13  16
BRANCH  14  18
ATOM     18  O   UNL     1      -4.284  10.560  15.552  0.00  0.00    +0.000 OA
ATOM     19  C   UNL     1      -3.209  10.370  14.640  0.00  0.00    +0.000 C 
ENDBRANCH  14  18
ENDBRANCH   3  10
BRANCH   6  20
ATOM     20  C   UNL     1       0.952  15.701  18.389  0.00  0.00    +0.000 A 
ATOM     21  C   UNL     1       2.219  16.161  17.996  0.00  0.00    +0.000 A 
ATOM     22  C   UNL     1       2.408  17.483  17.581  0.00  0.00    +0.000 A 
ATOM     23  C   UNL     1       1.329  18.363  17.549  0.00  0.00    +0.000 A 
ATOM     24  C   UNL     1       0.062  17.920  17.921  0.00  0.00    +0.000 A 
ATOM     25  C   UNL     1      -0.126  16.599  18.336  0.00  0.00    +0.000 A 
ENDBRANCH   6  20
BRANCH   1  26
ATOM     26  C   UNL     1       0.983   8.924  21.235  0.00  0.00    +0.000 C 
ATOM     27  O   UNL     1       0.609   8.786  22.391  0.00  0.00    +0.000 OA
BRANCH  26  29
ATOM     28  C   UNL     1       1.875   7.895  19.184  0.00  0.00    +0.000 C 
ATOM     29  C   UNL     1       1.815   7.913  20.525  0.00  0.00    +0.000 C 
BRANCH  28  33
ATOM     30  C   UNL     1       4.306   5.134  16.968  0.00  0.00    +0.000 A 
ATOM     31  C   UNL     1       4.592   6.499  16.972  0.00  0.00    +0.000 A 
ATOM     32  C   UNL     1       3.796   7.392  17.700  0.00  0.00    +0.000 A 
ATOM     33  C   UNL     1       2.680   6.935  18.412  0.00  0.00    +0.000 A 
ATOM     34  C   UNL     1       2.403   5.561  18.402  0.00  0.00    +0.000 A 
ATOM     35  C   UNL     1       3.204   4.668  17.680  0.00  0.00    +0.000 A 
BRANCH  30  37
ATOM     36  C   UNL     1       5.516   4.900  14.948  0.00  0.00    +0.000 C 
ATOM     37  O   UNL     1       5.145   4.360  16.213  0.00  0.00    +0.000 OA
ENDBRANCH  30  37
ENDBRANCH  28  33
ENDBRANCH  26  29
ENDBRANCH   1  26
TORSDOF 8
ENDMDL
MODEL 5
REMARK VINA RESULT:      -8.0      2.054      2.486
REMARK  Name = 
REMARK  11 active torsions:
REMARK  status: ('A' for Active; 'I' for Inactive)
REMARK    1  A    between atoms: C_1  and  O_2
REMARK    2  A    between atoms: O_2  and  C_3
REMARK    3  A    between atoms: C_6  and  C_7
REMARK    4  A    between atoms: C_8  and  C_9
REMARK    5  A    between atoms: C_9  and  C_11
REMARK    6  A    between atoms: C_13  and  C_14
REMARK    7  A    between atoms: C_17  and  O_18
REMARK    8  A    between atoms: O_18  and  C_19
REMARK    9  A    between atoms: C_20  and  O_21
REMARK   10  A    between atoms: O_21  and  C_22
REMARK   11  A    between atoms: C_26  and  C_27
REMARK                            x       y       z     vdW  Elec       q    Type
REMARK                         _______ _______ _______ _____ _____    ______ ____
ROOT
ATOM      1  C   UNL     1       1.099   9.924  19.212  0.00  0.00    +0.000 A 
ATOM      2  C   UNL     1      -0.318   9.998  18.734  0.00  0.00    +0.000 A 
ATOM      3  C   UNL     1      -0.820  11.234  18.548  0.00  0.00    +0.000 A 
ATOM      4  N   UNL     1      -0.003  12.353  18.778  0.00  0.00    +0.000 N 
ATOM      5  N   UNL     1      -0.315  13.667  18.662  0.00  0.00    +0.000 NA
ATOM      6  C   UNL     1       0.800  14.342  18.985  0.00  0.00    +0.000 A 
ATOM      7  C   UNL     1       1.850  13.446  19.300  0.00  0.00    +0.000 A 
ATOM      8  C   UNL     1       1.325  12.183  19.180  0.00  0.00    +0.000 A 
ATOM      9  N   UNL     1       1.879  10.954  19.400  0.00  0.00    +0.000 NA
ENDROOT
BRANCH   3  10
ATOM     10  C   UNL     1      -2.218  11.376  18.114  0.00  0.00    +0.000 A 
ATOM     11  C   UNL     1      -3.174  11.898  18.987  0.00  0.00    +0.000 A 
ATOM     12  C   UNL     1      -4.503  11.997  18.578  0.00  0.00    +0.000 A 
ATOM     13  C   UNL     1      -4.907  11.573  17.302  0.00  0.00    +0.000 A 
ATOM     14  C   UNL     1      -3.952  11.041  16.418  0.00  0.00    +0.000 A 
ATOM     15  C   UNL     1      -2.612  10.956  16.836  0.00  0.00    +0.000 A 
BRANCH  13  16
ATOM     16  O   UNL     1      -6.253  11.758  17.107  0.00  0.00    +0.000 OA
ATOM     17  C   UNL     1      -7.135  11.596  18.206  0.00  0.00    +0.000 C 
ENDBRANCH  13  16
BRANCH  14  18
ATOM     18  O   UNL     1      -4.372  10.611  15.189  0.00  0.00    +0.000 OA
ATOM     19  C   UNL     1      -3.403  10.122  14.271  0.00  0.00    +0.000 C 
ENDBRANCH  14  18
ENDBRANCH   3  10
BRANCH   6  20
ATOM     20  C   UNL     1       0.834  15.811  18.979  0.00  0.00    +0.000 A 
ATOM     21  C   UNL     1      -0.357  16.554  18.979  0.00  0.00    +0.000 A 
ATOM     22  C   UNL     1      -0.334  17.951  18.948  0.00  0.00    +0.000 A 
ATOM     23  C   UNL     1       0.883  18.627  18.920  0.00  0.00    +0.000 A 
ATOM     24  C   UNL     1       2.076  17.908  18.933  0.00  0.00    +0.000 A 
ATOM     25  C   UNL     1       2.053  16.510  18.964  0.00  0.00    +0.000 A 
ENDBRANCH   6  20
BRANCH   1  26
ATOM     26  C   UNL     1       1.643   8.525  19.513  0.00  0.00    +0.000 C 
ATOM     27  O   UNL     1       1.438   8.021  20.608  0.00  0.00    +0.000 OA
BRANCH  26  29
ATOM     28  C   UNL     1       3.131   6.739  18.702  0.00  0.00    +0.000 C 
ATOM     29  C   UNL     1       2.419   7.846  18.438  0.00  0.00    +0.000 C 
BRANCH  28  33
ATOM     30  C   UNL     1       5.341   4.549  15.742  0.00  0.00    +0.000 A 
ATOM     31  C   UNL     1       4.586   3.887  16.710  0.00  0.00    +0.000 A 
ATOM     32  C   UNL     1       3.866   4.609  17.669  0.00  0.00    +0.000 A 
ATOM     33  C   UNL     1       3.915   6.008  17.694  0.00  0.00    +0.000 A 
ATOM     34  C   UNL     1       4.676   6.664  16.716  0.00  0.00    +0.000 A 
ATOM     35  C   UNL     1       5.389   5.941  15.752  0.00  0.00    +0.000 A 
BRANCH  30  37
ATOM     36  C   UNL     1       6.713   4.408  13.820  0.00  0.00    +0.000 C 
ATOM     37  O   UNL     1       6.011   3.741  14.864  0.00  0.00    +0.000 OA
ENDBRANCH  30  37
ENDBRANCH  28  33
ENDBRANCH  26  29
ENDBRANCH   1  26
TORSDOF 8
ENDMDL
MODEL 6
REMARK VINA RESULT:      -8.0      1.990      2.924
REMARK  Name = 
REMARK  11 active torsions:
REMARK  status: ('A' for Active; 'I' for Inactive)
REMARK    1  A    between atoms: C_1  and  O_2
REMARK    2  A    between atoms: O_2  and  C_3
REMARK    3  A    between atoms: C_6  and  C_7
REMARK    4  A    between atoms: C_8  and  C_9
REMARK    5  A    between atoms: C_9  and  C_11
REMARK    6  A    between atoms: C_13  and  C_14
REMARK    7  A    between atoms: C_17  and  O_18
REMARK    8  A    between atoms: O_18  and  C_19
REMARK    9  A    between atoms: C_20  and  O_21
REMARK   10  A    between atoms: O_21  and  C_22
REMARK   11  A    between atoms: C_26  and  C_27
REMARK                            x       y       z     vdW  Elec       q    Type
REMARK                         _______ _______ _______ _____ _____    ______ ____
ROOT
ATOM      1  C   UNL     1       0.820   9.981  19.292  0.00  0.00    +0.000 A 
ATOM      2  C   UNL     1      -0.646  10.068  19.004  0.00  0.00    +0.000 A 
ATOM      3  C   UNL     1      -1.134  11.302  18.771  0.00  0.00    +0.000 A 
ATOM      4  N   UNL     1      -0.263  12.403  18.782  0.00  0.00    +0.000 N 
ATOM      5  N   UNL     1      -0.552  13.712  18.585  0.00  0.00    +0.000 NA
ATOM      6  C   UNL     1       0.615  14.368  18.689  0.00  0.00    +0.000 A 
ATOM      7  C   UNL     1       1.673  13.463  18.944  0.00  0.00    +0.000 A 
ATOM      8  C   UNL     1       1.102  12.216  19.015  0.00  0.00    +0.000 A 
ATOM      9  N   UNL     1       1.647  10.991  19.275  0.00  0.00    +0.000 NA
ENDROOT
BRANCH   3  10
ATOM     10  C   UNL     1      -2.575  11.459  18.518  0.00  0.00    +0.000 A 
ATOM     11  C   UNL     1      -3.127  11.020  17.313  0.00  0.00    +0.000 A 
ATOM     12  C   UNL     1      -4.487  11.204  17.069  0.00  0.00    +0.000 A 
ATOM     13  C   UNL     1      -5.320  11.832  18.010  0.00  0.00    +0.000 A 
ATOM     14  C   UNL     1      -4.770  12.283  19.223  0.00  0.00    +0.000 A 
ATOM     15  C   UNL     1      -3.400  12.082  19.465  0.00  0.00    +0.000 A 
BRANCH  13  16
ATOM     16  O   UNL     1      -6.617  11.911  17.569  0.00  0.00    +0.000 OA
ATOM     17  C   UNL     1      -7.072  13.123  16.988  0.00  0.00    +0.000 C 
ENDBRANCH  13  16
BRANCH  14  18
ATOM     18  O   UNL     1      -5.594  12.914  20.114  0.00  0.00    +0.000 OA
ATOM     19  C   UNL     1      -5.819  12.308  21.380  0.00  0.00    +0.000 C 
ENDBRANCH  14  18
ENDBRANCH   3  10
BRANCH   6  20
ATOM     20  C   UNL     1       0.689  15.828  18.539  0.00  0.00    +0.000 A 
ATOM     21  C   UNL     1       1.900  16.507  18.747  0.00  0.00    +0.000 A 
ATOM     22  C   UNL     1       1.975  17.898  18.630  0.00  0.00    +0.000 A 
ATOM     23  C   UNL     1       0.838  18.631  18.300  0.00  0.00    +0.000 A 
ATOM     24  C   UNL     1      -0.370  17.973  18.076  0.00  0.00    +0.000 A 
ATOM     25  C   UNL     1      -0.444  16.582  18.193  0.00  0.00    +0.000 A 
ENDBRANCH   6  20
BRANCH   1  26
ATOM     26  C   UNL     1       1.361   8.593  19.648  0.00  0.00    +0.000 C 
ATOM     27  O   UNL     1       0.968   8.035  20.664  0.00  0.00    +0.000 OA
BRANCH  26  29
ATOM     28  C   UNL     1       2.603   6.671  18.739  0.00  0.00    +0.000 C 
ATOM     29  C   UNL     1       2.367   7.993  18.729  0.00  0.00    +0.000 C 
BRANCH  28  33
ATOM     30  C   UNL     1       5.362   4.682  16.117  0.00  0.00    +0.000 A 
ATOM     31  C   UNL     1       4.321   3.983  16.728  0.00  0.00    +0.000 A 
ATOM     32  C   UNL     1       3.424   4.640  17.579  0.00  0.00    +0.000 A 
ATOM     33  C   UNL     1       3.574   6.005  17.857  0.00  0.00    +0.000 A 
ATOM     34  C   UNL     1       4.622   6.698  17.236  0.00  0.00    +0.000 A 
ATOM     35  C   UNL     1       5.514   6.041  16.380  0.00  0.00    +0.000 A 
BRANCH  30  37
ATOM     36  C   UNL     1       5.910   3.998  13.919  0.00  0.00    +0.000 C 
ATOM     37  O   UNL     1       6.181   3.934  15.316  0.00  0.00    +0.000 OA
ENDBRANCH  30  37
ENDBRANCH  28  33
ENDBRANCH  26  29
ENDBRANCH   1  26
TORSDOF 8
ENDMDL
MODEL 7
REMARK VINA RESULT:      -8.0      1.919      2.666
REMARK  Name = 
REMARK  11 active torsions:
REMARK  status: ('A' for Active; 'I' for Inactive)
REMARK    1  A    between atoms: C_1  and  O_2
REMARK    2  A    between atoms: O_2  and  C_3
REMARK    3  A    between atoms: C_6  and  C_7
REMARK    4  A    between atoms: C_8  and  C_9
REMARK    5  A    between atoms: C_9  and  C_11
REMARK    6  A    between atoms: C_13  and  C_14
REMARK    7  A    between atoms: C_17  and  O_18
REMARK    8  A    between atoms: O_18  and  C_19
REMARK    9  A    between atoms: C_20  and  O_21
REMARK   10  A    between atoms: O_21  and  C_22
REMARK   11  A    between atoms: C_26  and  C_27
REMARK                            x       y       z     vdW  Elec       q    Type
REMARK                         _______ _______ _______ _____ _____    ______ ____
ROOT
ATOM      1  C   UNL     1       0.801  10.031  19.322  0.00  0.00    +0.000 A 
ATOM      2  C   UNL     1      -0.666  10.111  19.037  0.00  0.00    +0.000 A 
ATOM      3  C   UNL     1      -1.153  11.337  18.762  0.00  0.00    +0.000 A 
ATOM      4  N   UNL     1      -0.279  12.436  18.732  0.00  0.00    +0.000 N 
ATOM      5  N   UNL     1      -0.566  13.738  18.491  0.00  0.00    +0.000 NA
ATOM      6  C   UNL     1       0.602  14.395  18.569  0.00  0.00    +0.000 A 
ATOM      7  C   UNL     1       1.659  13.497  18.852  0.00  0.00    +0.000 A 
ATOM      8  C   UNL     1       1.086  12.255  18.968  0.00  0.00    +0.000 A 
ATOM      9  N   UNL     1       1.630  11.038  19.267  0.00  0.00    +0.000 NA
ENDROOT
BRANCH   3  10
ATOM     10  C   UNL     1      -2.594  11.489  18.508  0.00  0.00    +0.000 A 
ATOM     11  C   UNL     1      -3.125  11.155  17.262  0.00  0.00    +0.000 A 
ATOM     12  C   UNL     1      -4.486  11.334  17.020  0.00  0.00    +0.000 A 
ATOM     13  C   UNL     1      -5.341  11.853  18.007  0.00  0.00    +0.000 A 
ATOM     14  C   UNL     1      -4.813  12.197  19.264  0.00  0.00    +0.000 A 
ATOM     15  C   UNL     1      -3.441  12.002  19.501  0.00  0.00    +0.000 A 
BRANCH  13  16
ATOM     16  O   UNL     1      -6.635  11.947  17.560  0.00  0.00    +0.000 OA
ATOM     17  C   UNL     1      -7.076  13.166  16.982  0.00  0.00    +0.000 C 
ENDBRANCH  13  16
BRANCH  14  18
ATOM     18  O   UNL     1      -5.658  12.724  20.201  0.00  0.00    +0.000 OA
ATOM     19  C   UNL     1      -5.738  14.138  20.327  0.00  0.00    +0.000 C 
ENDBRANCH  14  18
ENDBRANCH   3  10
BRANCH   6  20
ATOM     20  C   UNL     1       0.679  15.849  18.368  0.00  0.00    +0.000 A 
ATOM     21  C   UNL     1      -0.486  16.633  18.373  0.00  0.00    +0.000 A 
ATOM     22  C   UNL     1      -0.426  18.013  18.158  0.00  0.00    +0.000 A 
ATOM     23  C   UNL     1       0.803  18.630  17.939  0.00  0.00    +0.000 A 
ATOM     24  C   UNL     1       1.971  17.871  17.944  0.00  0.00    +0.000 A 
ATOM     25  C   UNL     1       1.910  16.491  18.159  0.00  0.00    +0.000 A 
ENDBRANCH   6  20
BRANCH   1  26
ATOM     26  C   UNL     1       1.341   8.655  19.724  0.00  0.00    +0.000 C 
ATOM     27  O   UNL     1       1.180   8.255  20.870  0.00  0.00    +0.000 OA
BRANCH  26  29
ATOM     28  C   UNL     1       2.851   6.841  19.025  0.00  0.00    +0.000 C 
ATOM     29  C   UNL     1       2.058   7.870  18.683  0.00  0.00    +0.000 C 
BRANCH  28  33
ATOM     30  C   UNL     1       5.077   4.451  16.236  0.00  0.00    +0.000 A 
ATOM     31  C   UNL     1       5.471   5.754  16.540  0.00  0.00    +0.000 A 
ATOM     32  C   UNL     1       4.741   6.525  17.453  0.00  0.00    +0.000 A 
ATOM     33  C   UNL     1       3.585   6.013  18.054  0.00  0.00    +0.000 A 
ATOM     34  C   UNL     1       3.198   4.703  17.743  0.00  0.00    +0.000 A 
ATOM     35  C   UNL     1       3.933   3.930  16.836  0.00  0.00    +0.000 A 
BRANCH  30  37
ATOM     36  C   UNL     1       6.477   4.620  14.336  0.00  0.00    +0.000 C 
ATOM     37  O   UNL     1       5.859   3.799  15.323  0.00  0.00    +0.000 OA
ENDBRANCH  30  37
ENDBRANCH  28  33
ENDBRANCH  26  29
ENDBRANCH   1  26
TORSDOF 8
ENDMDL
MODEL 8
REMARK VINA RESULT:      -7.9      2.352      3.215
REMARK  Name = 
REMARK  11 active torsions:
REMARK  status: ('A' for Active; 'I' for Inactive)
REMARK    1  A    between atoms: C_1  and  O_2
REMARK    2  A    between atoms: O_2  and  C_3
REMARK    3  A    between atoms: C_6  and  C_7
REMARK    4  A    between atoms: C_8  and  C_9
REMARK    5  A    between atoms: C_9  and  C_11
REMARK    6  A    between atoms: C_13  and  C_14
REMARK    7  A    between atoms: C_17  and  O_18
REMARK    8  A    between atoms: O_18  and  C_19
REMARK    9  A    between atoms: C_20  and  O_21
REMARK   10  A    between atoms: O_21  and  C_22
REMARK   11  A    between atoms: C_26  and  C_27
REMARK                            x       y       z     vdW  Elec       q    Type
REMARK                         _______ _______ _______ _____ _____    ______ ____
ROOT
ATOM      1  C   UNL     1      -0.128  10.971  21.933  0.00  0.00    +0.000 A 
ATOM      2  C   UNL     1      -1.517  11.458  22.203  0.00  0.00    +0.000 A 
ATOM      3  C   UNL     1      -1.850  12.642  21.654  0.00  0.00    +0.000 A 
ATOM      4  N   UNL     1      -0.914  13.323  20.858  0.00  0.00    +0.000 N 
ATOM      5  N   UNL     1      -1.045  14.517  20.232  0.00  0.00    +0.000 NA
ATOM      6  C   UNL     1       0.119  14.732  19.598  0.00  0.00    +0.000 A 
ATOM      7  C   UNL     1       1.007  13.650  19.810  0.00  0.00    +0.000 A 
ATOM      8  C   UNL     1       0.346  12.765  20.625  0.00  0.00    +0.000 A 
ATOM      9  N   UNL     1       0.742  11.577  21.170  0.00  0.00    +0.000 NA
ENDROOT
BRANCH   3  10
ATOM     10  C   UNL     1      -3.189  13.194  21.912  0.00  0.00    +0.000 A 
ATOM     11  C   UNL     1      -3.399  14.050  22.994  0.00  0.00    +0.000 A 
ATOM     12  C   UNL     1      -4.678  14.541  23.250  0.00  0.00    +0.000 A 
ATOM     13  C   UNL     1      -5.771  14.185  22.443  0.00  0.00    +0.000 A 
ATOM     14  C   UNL     1      -5.570  13.318  21.354  0.00  0.00    +0.000 A 
ATOM     15  C   UNL     1      -4.274  12.838  21.098  0.00  0.00    +0.000 A 
BRANCH  13  16
ATOM     16  O   UNL     1      -6.933  14.777  22.870  0.00  0.00    +0.000 OA
ATOM     17  C   UNL     1      -6.872  16.067  23.458  0.00  0.00    +0.000 C 
ENDBRANCH  13  16
BRANCH  14  18
ATOM     18  O   UNL     1      -6.653  12.965  20.597  0.00  0.00    +0.000 OA
ATOM     19  C   UNL     1      -7.389  11.805  20.961  0.00  0.00    +0.000 C 
ENDBRANCH  14  18
ENDBRANCH   3  10
BRANCH   6  20
ATOM     20  C   UNL     1       0.348  15.951  18.810  0.00  0.00    +0.000 A 
ATOM     21  C   UNL     1       1.643  16.300  18.394  0.00  0.00    +0.000 A 
ATOM     22  C   UNL     1       1.874  17.470  17.665  0.00  0.00    +0.000 A 
ATOM     23  C   UNL     1       0.810  18.307  17.337  0.00  0.00    +0.000 A 
ATOM     24  C   UNL     1      -0.484  17.970  17.728  0.00  0.00    +0.000 A 
ATOM     25  C   UNL     1      -0.714  16.800  18.458  0.00  0.00    +0.000 A 
ENDBRANCH   6  20
BRANCH   1  26
ATOM     26  C   UNL     1       0.285   9.672  22.630  0.00  0.00    +0.000 C 
ATOM     27  O   UNL     1       0.435   9.660  23.844  0.00  0.00    +0.000 OA
BRANCH  26  29
ATOM     28  C   UNL     1       1.627   8.331  21.060  0.00  0.00    +0.000 C 
ATOM     29  C   UNL     1       0.498   8.473  21.774  0.00  0.00    +0.000 C 
BRANCH  28  33
ATOM     30  C   UNL     1       2.376   4.913  18.571  0.00  0.00    +0.000 A 
ATOM     31  C   UNL     1       1.861   4.765  19.858  0.00  0.00    +0.000 A 
ATOM     32  C   UNL     1       1.617   5.885  20.662  0.00  0.00    +0.000 A 
ATOM     33  C   UNL     1       1.914   7.173  20.200  0.00  0.00    +0.000 A 
ATOM     34  C   UNL     1       2.429   7.311  18.904  0.00  0.00    +0.000 A 
ATOM     35  C   UNL     1       2.666   6.191  18.098  0.00  0.00    +0.000 A 
BRANCH  30  37
ATOM     36  C   UNL     1       3.763   3.702  17.085  0.00  0.00    +0.000 C 
ATOM     37  O   UNL     1       2.584   3.749  17.883  0.00  0.00    +0.000 OA
ENDBRANCH  30  37
ENDBRANCH  28  33
ENDBRANCH  26  29
ENDBRANCH   1  26
TORSDOF 8
ENDMDL
MODEL 9
REMARK VINA RESULT:      -7.9      2.521      3.301
REMARK  Name = 
REMARK  11 active torsions:
REMARK  status: ('A' for Active; 'I' for Inactive)
REMARK    1  A    between atoms: C_1  and  O_2
REMARK    2  A    between atoms: O_2  and  C_3
REMARK    3  A    between atoms: C_6  and  C_7
REMARK    4  A    between atoms: C_8  and  C_9
REMARK    5  A    between atoms: C_9  and  C_11
REMARK    6  A    between atoms: C_13  and  C_14
REMARK    7  A    between atoms: C_17  and  O_18
REMARK    8  A    between atoms: O_18  and  C_19
REMARK    9  A    between atoms: C_20  and  O_21
REMARK   10  A    between atoms: O_21  and  C_22
REMARK   11  A    between atoms: C_26  and  C_27
REMARK                            x       y       z     vdW  Elec       q    Type
REMARK                         _______ _______ _______ _____ _____    ______ ____
ROOT
ATOM      1  C   UNL     1       0.039  11.094  22.087  0.00  0.00    +0.000 A 
ATOM      2  C   UNL     1      -1.351  11.526  22.436  0.00  0.00    +0.000 A 
ATOM      3  C   UNL     1      -1.764  12.691  21.901  0.00  0.00    +0.000 A 
ATOM      4  N   UNL     1      -0.905  13.403  21.048  0.00  0.00    +0.000 N 
ATOM      5  N   UNL     1      -1.122  14.586  20.425  0.00  0.00    +0.000 NA
ATOM      6  C   UNL     1      -0.007  14.843  19.723  0.00  0.00    +0.000 A 
ATOM      7  C   UNL     1       0.936  13.801  19.887  0.00  0.00    +0.000 A 
ATOM      8  C   UNL     1       0.361  12.895  20.744  0.00  0.00    +0.000 A 
ATOM      9  N   UNL     1       0.836  11.729  21.272  0.00  0.00    +0.000 NA
ENDROOT
BRANCH   3  10
ATOM     10  C   UNL     1      -3.108  13.189  22.235  0.00  0.00    +0.000 A 
ATOM     11  C   UNL     1      -3.294  14.015  23.345  0.00  0.00    +0.000 A 
ATOM     12  C   UNL     1      -4.576  14.454  23.671  0.00  0.00    +0.000 A 
ATOM     13  C   UNL     1      -5.694  14.077  22.909  0.00  0.00    +0.000 A 
ATOM     14  C   UNL     1      -5.516  13.241  21.792  0.00  0.00    +0.000 A 
ATOM     15  C   UNL     1      -4.218  12.813  21.465  0.00  0.00    +0.000 A 
BRANCH  13  16
ATOM     16  O   UNL     1      -6.854  14.618  23.404  0.00  0.00    +0.000 OA
ATOM     17  C   UNL     1      -7.683  13.822  24.236  0.00  0.00    +0.000 C 
ENDBRANCH  13  16
BRANCH  14  18
ATOM     18  O   UNL     1      -6.621  12.866  21.079  0.00  0.00    +0.000 OA
ATOM     19  C   UNL     1      -7.022  13.668  19.975  0.00  0.00    +0.000 C 
ENDBRANCH  14  18
ENDBRANCH   3  10
BRANCH   6  20
ATOM     20  C   UNL     1       0.125  16.065  18.915  0.00  0.00    +0.000 A 
ATOM     21  C   UNL     1       1.379  16.465  18.425  0.00  0.00    +0.000 A 
ATOM     22  C   UNL     1       1.518  17.638  17.678  0.00  0.00    +0.000 A 
ATOM     23  C   UNL     1       0.402  18.427  17.406  0.00  0.00    +0.000 A 
ATOM     24  C   UNL     1      -0.852  18.038  17.871  0.00  0.00    +0.000 A 
ATOM     25  C   UNL     1      -0.991  16.865  18.619  0.00  0.00    +0.000 A 
ENDBRANCH   6  20
BRANCH   1  26
ATOM     26  C   UNL     1       0.545   9.818  22.766  0.00  0.00    +0.000 C 
ATOM     27  O   UNL     1       0.231   9.586  23.926  0.00  0.00    +0.000 OA
BRANCH  26  29
ATOM     28  C   UNL     1       0.891   8.043  21.095  0.00  0.00    +0.000 C 
ATOM     29  C   UNL     1       1.420   8.917  21.966  0.00  0.00    +0.000 C 
BRANCH  28  33
ATOM     30  C   UNL     1       3.292   5.441  18.664  0.00  0.00    +0.000 A 
ATOM     31  C   UNL     1       3.085   6.773  18.304  0.00  0.00    +0.000 A 
ATOM     32  C   UNL     1       2.304   7.615  19.104  0.00  0.00    +0.000 A 
ATOM     33  C   UNL     1       1.690   7.128  20.265  0.00  0.00    +0.000 A 
ATOM     34  C   UNL     1       1.905   5.789  20.618  0.00  0.00    +0.000 A 
ATOM     35  C   UNL     1       2.693   4.950  19.821  0.00  0.00    +0.000 A 
BRANCH  30  37
ATOM     36  C   UNL     1       3.388   3.678  17.090  0.00  0.00    +0.000 C 
ATOM     37  O   UNL     1       4.063   4.712  17.801  0.00  0.00    +0.000 OA
ENDBRANCH  30  37
ENDBRANCH  28  33
ENDBRANCH  26  29
ENDBRANCH   1  26
TORSDOF 8
ENDMDL
