MODEL 1
REMARK VINA RESULT:      -7.6      0.000      0.000
REMARK  Name = 
REMARK  6 active torsions:
REMARK  status: ('A' for Active; 'I' for Inactive)
REMARK    1  A    between atoms: C_1  and  O_2
REMARK    2  A    between atoms: O_2  and  C_3
REMARK    3  A    between atoms: C_7  and  C_9
REMARK    4  A    between atoms: C_9  and  C_10
REMARK    5  A    between atoms: C_16  and  C_17
REMARK    6  A    between atoms: C_17  and  C_18
REMARK                            x       y       z     vdW  Elec       q    Type
REMARK                         _______ _______ _______ _____ _____    ______ ____
ROOT
ATOM      1  C   UNL     1       3.216   4.389  19.998  0.00  0.00    +0.000 C 
ATOM      2  C   UNL     1       3.913   3.152  19.430  0.00  0.00    +0.000 C 
ATOM      3  C   UNL     1       5.251   3.652  18.947  0.00  0.00    +0.000 C 
ATOM      4  N   UNL     1       4.992   5.003  18.494  0.00  0.00    +0.000 N 
ATOM      5  C   UNL     1       5.868   5.753  17.729  0.00  0.00    +0.000 C 
ATOM      6  O   UNL     1       5.695   6.957  17.526  0.00  0.00    +0.000 OA
ATOM      7  C   UNL     1       3.810   5.583  19.180  0.00  0.00    +0.000 C 
ENDROOT
BRANCH   1   9
ATOM      8  C   UNL     1       1.201   3.368  20.791  0.00  0.00    +0.000 C 
ATOM      9  O   UNL     1       1.806   4.256  19.863  0.00  0.00    +0.000 OA
ENDBRANCH   1   9
BRANCH   5  10
ATOM     10  C   UNL     1       7.071   5.054  17.120  0.00  0.00    +0.000 C 
BRANCH  10  11
ATOM     11  C   UNL     1       6.904   4.724  15.658  0.00  0.00    +0.000 A 
ATOM     12  C   UNL     1       5.900   3.861  15.226  0.00  0.00    +0.000 A 
ATOM     13  C   UNL     1       5.741   3.638  13.860  0.00  0.00    +0.000 A 
ATOM     14  C   UNL     1       6.580   4.281  12.959  0.00  0.00    +0.000 A 
ATOM     15  C   UNL     1       7.555   5.120  13.468  0.00  0.00    +0.000 A 
ATOM     16  N   UNL     1       7.736   5.357  14.788  0.00  0.00    +0.000 NA
ENDBRANCH  10  11
ENDBRANCH   5  10
BRANCH   7  17
ATOM     17  C   UNL     1       2.830   6.275  18.204  0.00  0.00    +0.000 C 
BRANCH  17  18
ATOM     18  C   UNL     1       2.234   7.597  18.637  0.00  0.00    +0.000 A 
ATOM     19  C   UNL     1       1.986   8.637  17.738  0.00  0.00    +0.000 A 
ATOM     20  C   UNL     1       1.394   9.800  18.212  0.00  0.00    +0.000 A 
ATOM     21  N   UNL     1       1.038  10.000  19.500  0.00  0.00    +0.000 NA
ATOM     22  C   UNL     1       1.282   8.983  20.352  0.00  0.00    +0.000 A 
ATOM     23  C   UNL     1       1.864   7.783  19.972  0.00  0.00    +0.000 A 
ENDBRANCH  17  18
ENDBRANCH   7  17
TORSDOF 5
ENDMDL
MODEL 2
REMARK VINA RESULT:      -6.8      0.618      1.011
REMARK  Name = 
REMARK  6 active torsions:
REMARK  status: ('A' for Active; 'I' for Inactive)
REMARK    1  A    between atoms: C_1  and  O_2
REMARK    2  A    between atoms: O_2  and  C_3
REMARK    3  A    between atoms: C_7  and  C_9
REMARK    4  A    between atoms: C_9  and  C_10
REMARK    5  A    between atoms: C_16  and  C_17
REMARK    6  A    between atoms: C_17  and  C_18
REMARK                            x       y       z     vdW  Elec       q    Type
REMARK                         _______ _______ _______ _____ _____    ______ ____
ROOT
ATOM      1  C   UNL     1       3.164   4.510  20.017  0.00  0.00    +0.000 C 
ATOM      2  C   UNL     1       3.829   3.261  19.439  0.00  0.00    +0.000 C 
ATOM      3  C   UNL     1       5.156   3.742  18.909  0.00  0.00    +0.000 C 
ATOM      4  N   UNL     1       4.897   5.092  18.451  0.00  0.00    +0.000 N 
ATOM      5  C   UNL     1       5.755   5.826  17.651  0.00  0.00    +0.000 C 
ATOM      6  O   UNL     1       5.588   7.030  17.443  0.00  0.00    +0.000 OA
ATOM      7  C   UNL     1       3.743   5.691  19.169  0.00  0.00    +0.000 C 
ENDROOT
BRANCH   1   9
ATOM      8  C   UNL     1       1.185   3.375  20.745  0.00  0.00    +0.000 C 
ATOM      9  O   UNL     1       1.748   4.391  19.929  0.00  0.00    +0.000 OA
ENDBRANCH   1   9
BRANCH   5  10
ATOM     10  C   UNL     1       6.930   5.109  17.011  0.00  0.00    +0.000 C 
BRANCH  10  11
ATOM     11  C   UNL     1       6.718   4.778  15.555  0.00  0.00    +0.000 A 
ATOM     12  C   UNL     1       7.575   5.271  14.573  0.00  0.00    +0.000 A 
ATOM     13  C   UNL     1       7.380   4.884  13.249  0.00  0.00    +0.000 A 
ATOM     14  C   UNL     1       6.343   4.016  12.934  0.00  0.00    +0.000 A 
ATOM     15  C   UNL     1       5.534   3.574  13.966  0.00  0.00    +0.000 A 
ATOM     16  N   UNL     1       5.696   3.931  15.261  0.00  0.00    +0.000 NA
ENDBRANCH  10  11
ENDBRANCH   5  10
BRANCH   7  17
ATOM     17  C   UNL     1       2.739   6.384  18.219  0.00  0.00    +0.000 C 
BRANCH  17  18
ATOM     18  C   UNL     1       2.183   7.724  18.652  0.00  0.00    +0.000 A 
ATOM     19  C   UNL     1       2.031   8.793  17.766  0.00  0.00    +0.000 A 
ATOM     20  C   UNL     1       1.470   9.973  18.235  0.00  0.00    +0.000 A 
ATOM     21  N   UNL     1       1.055  10.162  19.508  0.00  0.00    +0.000 NA
ATOM     22  C   UNL     1       1.207   9.117  20.346  0.00  0.00    +0.000 A 
ATOM     23  C   UNL     1       1.752   7.899  19.970  0.00  0.00    +0.000 A 
ENDBRANCH  17  18
ENDBRANCH   7  17
TORSDOF 5
ENDMDL
MODEL 3
REMARK VINA RESULT:      -6.7      0.768      1.471
REMARK  Name = 
REMARK  6 active torsions:
REMARK  status: ('A' for Active; 'I' for Inactive)
REMARK    1  A    between atoms: C_1  and  O_2
REMARK    2  A    between atoms: O_2  and  C_3
REMARK    3  A    between atoms: C_7  and  C_9
REMARK    4  A    between atoms: C_9  and  C_10
REMARK    5  A    between atoms: C_16  and  C_17
REMARK    6  A    between atoms: C_17  and  C_18
REMARK                            x       y       z     vdW  Elec       q    Type
REMARK                         _______ _______ _______ _____ _____    ______ ____
ROOT
ATOM      1  C   UNL     1       2.807   4.422  20.326  0.00  0.00    +0.000 C 
ATOM      2  C   UNL     1       3.421   3.122  19.803  0.00  0.00    +0.000 C 
ATOM      3  C   UNL     1       4.785   3.517  19.298  0.00  0.00    +0.000 C 
ATOM      4  N   UNL     1       4.611   4.865  18.795  0.00  0.00    +0.000 N 
ATOM      5  C   UNL     1       5.528   5.528  18.000  0.00  0.00    +0.000 C 
ATOM      6  O   UNL     1       5.431   6.732  17.753  0.00  0.00    +0.000 OA
ATOM      7  C   UNL     1       3.471   5.544  19.462  0.00  0.00    +0.000 C 
ENDROOT
BRANCH   1   9
ATOM      8  C   UNL     1       0.876   3.136  19.733  0.00  0.00    +0.000 C 
ATOM      9  O   UNL     1       1.391   4.374  20.200  0.00  0.00    +0.000 OA
ENDBRANCH   1   9
BRANCH   5  10
ATOM     10  C   UNL     1       6.681   4.732  17.414  0.00  0.00    +0.000 C 
BRANCH  10  11
ATOM     11  C   UNL     1       6.612   4.576  15.916  0.00  0.00    +0.000 A 
ATOM     12  C   UNL     1       7.513   5.235  15.082  0.00  0.00    +0.000 A 
ATOM     13  C   UNL     1       7.453   5.008  13.709  0.00  0.00    +0.000 A 
ATOM     14  C   UNL     1       6.503   4.132  13.199  0.00  0.00    +0.000 A 
ATOM     15  C   UNL     1       5.643   3.519  14.094  0.00  0.00    +0.000 A 
ATOM     16  N   UNL     1       5.675   3.718  15.432  0.00  0.00    +0.000 NA
ENDBRANCH  10  11
ENDBRANCH   5  10
BRANCH   7  17
ATOM     17  C   UNL     1       2.532   6.260  18.464  0.00  0.00    +0.000 C 
BRANCH  17  18
ATOM     18  C   UNL     1       2.007   7.624  18.858  0.00  0.00    +0.000 A 
ATOM     19  C   UNL     1       1.632   7.932  20.168  0.00  0.00    +0.000 A 
ATOM     20  C   UNL     1       1.205   9.222  20.453  0.00  0.00    +0.000 A 
ATOM     21  N   UNL     1       1.124  10.214  19.538  0.00  0.00    +0.000 NA
ATOM     22  C   UNL     1       1.493   9.897  18.281  0.00  0.00    +0.000 A 
ATOM     23  C   UNL     1       1.938   8.640  17.901  0.00  0.00    +0.000 A 
ENDBRANCH  17  18
ENDBRANCH   7  17
TORSDOF 5
ENDMDL
MODEL 4
REMARK VINA RESULT:      -6.6      2.108      6.859
REMARK  Name = 
REMARK  6 active torsions:
REMARK  status: ('A' for Active; 'I' for Inactive)
REMARK    1  A    between atoms: C_1  and  O_2
REMARK    2  A    between atoms: O_2  and  C_3
REMARK    3  A    between atoms: C_7  and  C_9
REMARK    4  A    between atoms: C_9  and  C_10
REMARK    5  A    between atoms: C_16  and  C_17
REMARK    6  A    between atoms: C_17  and  C_18
REMARK                            x       y       z     vdW  Elec       q    Type
REMARK                         _______ _______ _______ _____ _____    ______ ____
ROOT
ATOM      1  C   UNL     1       5.228   5.201  17.341  0.00  0.00    +0.000 C 
ATOM      2  C   UNL     1       5.193   6.235  16.215  0.00  0.00    +0.000 C 
ATOM      3  C   UNL     1       4.536   7.447  16.825  0.00  0.00    +0.000 C 
ATOM      4  N   UNL     1       3.584   6.905  17.774  0.00  0.00    +0.000 N 
ATOM      5  C   UNL     1       2.573   7.636  18.373  0.00  0.00    +0.000 C 
ATOM      6  O   UNL     1       1.910   7.190  19.311  0.00  0.00    +0.000 OA
ATOM      7  C   UNL     1       3.995   5.555  18.236  0.00  0.00    +0.000 C 
ENDROOT
BRANCH   1   9
ATOM      8  C   UNL     1       5.845   3.731  15.555  0.00  0.00    +0.000 C 
ATOM      9  O   UNL     1       5.173   3.888  16.796  0.00  0.00    +0.000 OA
ENDBRANCH   1   9
BRANCH   5  10
ATOM     10  C   UNL     1       2.280   9.028  17.840  0.00  0.00    +0.000 C 
BRANCH  10  11
ATOM     11  C   UNL     1       1.056   9.665  18.450  0.00  0.00    +0.000 A 
ATOM     12  C   UNL     1       1.121  10.318  19.678  0.00  0.00    +0.000 A 
ATOM     13  C   UNL     1      -0.019  10.949  20.170  0.00  0.00    +0.000 A 
ATOM     14  C   UNL     1      -1.193  10.919  19.428  0.00  0.00    +0.000 A 
ATOM     15  C   UNL     1      -1.176  10.248  18.218  0.00  0.00    +0.000 A 
ATOM     16  N   UNL     1      -0.086   9.624  17.714  0.00  0.00    +0.000 NA
ENDBRANCH  10  11
ENDBRANCH   5  10
BRANCH   7  17
ATOM     17  C   UNL     1       2.836   4.533  18.208  0.00  0.00    +0.000 C 
BRANCH  17  18
ATOM     18  C   UNL     1       2.576   3.740  19.471  0.00  0.00    +0.000 A 
ATOM     19  C   UNL     1       3.569   2.979  20.095  0.00  0.00    +0.000 A 
ATOM     20  C   UNL     1       3.258   2.319  21.276  0.00  0.00    +0.000 A 
ATOM     21  N   UNL     1       2.046   2.361  21.873  0.00  0.00    +0.000 NA
ATOM     22  C   UNL     1       1.103   3.104  21.258  0.00  0.00    +0.000 A 
ATOM     23  C   UNL     1       1.319   3.802  20.079  0.00  0.00    +0.000 A 
ENDBRANCH  17  18
ENDBRANCH   7  17
TORSDOF 5
ENDMDL
MODEL 5
REMARK VINA RESULT:      -6.6      2.000      6.676
REMARK  Name = 
REMARK  6 active torsions:
REMARK  status: ('A' for Active; 'I' for Inactive)
REMARK    1  A    between atoms: C_1  and  O_2
REMARK    2  A    between atoms: O_2  and  C_3
REMARK    3  A    between atoms: C_7  and  C_9
REMARK    4  A    between atoms: C_9  and  C_10
REMARK    5  A    between atoms: C_16  and  C_17
REMARK    6  A    between atoms: C_17  and  C_18
REMARK                            x       y       z     vdW  Elec       q    Type
REMARK                         _______ _______ _______ _____ _____    ______ ____
ROOT
ATOM      1  C   UNL     1       5.595   4.887  16.741  0.00  0.00    +0.000 C 
ATOM      2  C   UNL     1       5.510   6.050  15.752  0.00  0.00    +0.000 C 
ATOM      3  C   UNL     1       4.838   7.160  16.519  0.00  0.00    +0.000 C 
ATOM      4  N   UNL     1       3.920   6.480  17.411  0.00  0.00    +0.000 N 
ATOM      5  C   UNL     1       2.905   7.105  18.115  0.00  0.00    +0.000 C 
ATOM      6  O   UNL     1       2.273   6.529  19.003  0.00  0.00    +0.000 OA
ATOM      7  C   UNL     1       4.374   5.095  17.696  0.00  0.00    +0.000 C 
ENDROOT
BRANCH   1   9
ATOM      8  C   UNL     1       6.029   3.713  14.700  0.00  0.00    +0.000 C 
ATOM      9  O   UNL     1       5.560   3.650  16.039  0.00  0.00    +0.000 OA
ENDBRANCH   1   9
BRANCH   5  10
ATOM     10  C   UNL     1       2.567   8.544  17.764  0.00  0.00    +0.000 C 
BRANCH  10  11
ATOM     11  C   UNL     1       1.468   9.132  18.613  0.00  0.00    +0.000 A 
ATOM     12  C   UNL     1       0.372   9.766  18.032  0.00  0.00    +0.000 A 
ATOM     13  C   UNL     1      -0.651  10.234  18.852  0.00  0.00    +0.000 A 
ATOM     14  C   UNL     1      -0.562  10.058  20.227  0.00  0.00    +0.000 A 
ATOM     15  C   UNL     1       0.560   9.421  20.726  0.00  0.00    +0.000 A 
ATOM     16  N   UNL     1       1.571   8.955  19.957  0.00  0.00    +0.000 NA
ENDBRANCH  10  11
ENDBRANCH   5  10
BRANCH   7  17
ATOM     17  C   UNL     1       3.239   4.053  17.563  0.00  0.00    +0.000 C 
BRANCH  17  18
ATOM     18  C   UNL     1       2.641   3.509  18.843  0.00  0.00    +0.000 A 
ATOM     19  C   UNL     1       3.409   3.270  19.986  0.00  0.00    +0.000 A 
ATOM     20  C   UNL     1       2.772   2.814  21.132  0.00  0.00    +0.000 A 
ATOM     21  N   UNL     1       1.444   2.581  21.221  0.00  0.00    +0.000 NA
ATOM     22  C   UNL     1       0.720   2.822  20.109  0.00  0.00    +0.000 A 
ATOM     23  C   UNL     1       1.264   3.283  18.920  0.00  0.00    +0.000 A 
ENDBRANCH  17  18
ENDBRANCH   7  17
TORSDOF 5
ENDMDL
MODEL 6
REMARK VINA RESULT:      -6.6      2.121      6.899
REMARK  Name = 
REMARK  6 active torsions:
REMARK  status: ('A' for Active; 'I' for Inactive)
REMARK    1  A    between atoms: C_1  and  O_2
REMARK    2  A    between atoms: O_2  and  C_3
REMARK    3  A    between atoms: C_7  and  C_9
REMARK    4  A    between atoms: C_9  and  C_10
REMARK    5  A    between atoms: C_16  and  C_17
REMARK    6  A    between atoms: C_17  and  C_18
REMARK                            x       y       z     vdW  Elec       q    Type
REMARK                         _______ _______ _______ _____ _____    ______ ____
ROOT
ATOM      1  C   UNL     1       5.122   5.376  17.455  0.00  0.00    +0.000 C 
ATOM      2  C   UNL     1       5.084   6.359  16.284  0.00  0.00    +0.000 C 
ATOM      3  C   UNL     1       4.419   7.593  16.838  0.00  0.00    +0.000 C 
ATOM      4  N   UNL     1       3.467   7.089  17.808  0.00  0.00    +0.000 N 
ATOM      5  C   UNL     1       2.452   7.841  18.371  0.00  0.00    +0.000 C 
ATOM      6  O   UNL     1       1.788   7.433  19.327  0.00  0.00    +0.000 OA
ATOM      7  C   UNL     1       3.884   5.764  18.331  0.00  0.00    +0.000 C 
ENDROOT
BRANCH   1   9
ATOM      8  C   UNL     1       5.654   3.854  15.686  0.00  0.00    +0.000 C 
ATOM      9  O   UNL     1       5.075   4.040  16.968  0.00  0.00    +0.000 OA
ENDBRANCH   1   9
BRANCH   5  10
ATOM     10  C   UNL     1       2.153   9.207  17.777  0.00  0.00    +0.000 C 
BRANCH  10  11
ATOM     11  C   UNL     1       0.996   9.914  18.436  0.00  0.00    +0.000 A 
ATOM     12  C   UNL     1      -0.301   9.785  17.943  0.00  0.00    +0.000 A 
ATOM     13  C   UNL     1      -1.348  10.402  18.623  0.00  0.00    +0.000 A 
ATOM     14  C   UNL     1      -1.082  11.127  19.778  0.00  0.00    +0.000 A 
ATOM     15  C   UNL     1       0.233  11.210  20.201  0.00  0.00    +0.000 A 
ATOM     16  N   UNL     1       1.272  10.623  19.562  0.00  0.00    +0.000 NA
ENDBRANCH  10  11
ENDBRANCH   5  10
BRANCH   7  17
ATOM     17  C   UNL     1       2.730   4.735  18.345  0.00  0.00    +0.000 C 
BRANCH  17  18
ATOM     18  C   UNL     1       2.585   3.870  19.579  0.00  0.00    +0.000 A 
ATOM     19  C   UNL     1       3.588   2.994  20.002  0.00  0.00    +0.000 A 
ATOM     20  C   UNL     1       3.392   2.272  21.171  0.00  0.00    +0.000 A 
ATOM     21  N   UNL     1       2.282   2.356  21.938  0.00  0.00    +0.000 NA
ATOM     22  C   UNL     1       1.328   3.209  21.515  0.00  0.00    +0.000 A 
ATOM     23  C   UNL     1       1.434   3.976  20.365  0.00  0.00    +0.000 A 
ENDBRANCH  17  18
ENDBRANCH   7  17
TORSDOF 5
ENDMDL
MODEL 7
REMARK VINA RESULT:      -6.5      1.971      6.863
REMARK  Name = 
REMARK  6 active torsions:
REMARK  status: ('A' for Active; 'I' for Inactive)
REMARK    1  A    between atoms: C_1  and  O_2
REMARK    2  A    between atoms: O_2  and  C_3
REMARK    3  A    between atoms: C_7  and  C_9
REMARK    4  A    between atoms: C_9  and  C_10
REMARK    5  A    between atoms: C_16  and  C_17
REMARK    6  A    between atoms: C_17  and  C_18
REMARK                            x       y       z     vdW  Elec       q    Type
REMARK                         _______ _______ _______ _____ _____    ______ ____
ROOT
ATOM      1  C   UNL     1       2.503   3.434  19.314  0.00  0.00    +0.000 C 
ATOM      2  C   UNL     1       1.754   3.519  20.644  0.00  0.00    +0.000 C 
ATOM      3  C   UNL     1       1.157   4.903  20.662  0.00  0.00    +0.000 C 
ATOM      4  N   UNL     1       2.119   5.723  19.952  0.00  0.00    +0.000 N 
ATOM      5  C   UNL     1       2.119   7.107  19.952  0.00  0.00    +0.000 C 
ATOM      6  O   UNL     1       2.831   7.761  19.187  0.00  0.00    +0.000 OA
ATOM      7  C   UNL     1       2.924   4.909  19.006  0.00  0.00    +0.000 C 
ENDROOT
BRANCH   1   9
ATOM      8  C   UNL     1       3.661   1.526  18.447  0.00  0.00    +0.000 C 
ATOM      9  O   UNL     1       3.607   2.545  19.435  0.00  0.00    +0.000 OA
ENDBRANCH   1   9
BRANCH   5  10
ATOM     10  C   UNL     1       1.212   7.826  20.936  0.00  0.00    +0.000 C 
BRANCH  10  11
ATOM     11  C   UNL     1       0.894   9.246  20.540  0.00  0.00    +0.000 A 
ATOM     12  C   UNL     1       0.383   9.543  19.278  0.00  0.00    +0.000 A 
ATOM     13  C   UNL     1       0.041  10.859  18.980  0.00  0.00    +0.000 A 
ATOM     14  C   UNL     1       0.209  11.846  19.943  0.00  0.00    +0.000 A 
ATOM     15  C   UNL     1       0.724  11.470  21.171  0.00  0.00    +0.000 A 
ATOM     16  N   UNL     1       1.067  10.201  21.491  0.00  0.00    +0.000 NA
ENDBRANCH  10  11
ENDBRANCH   5  10
BRANCH   7  17
ATOM     17  C   UNL     1       4.439   5.204  19.100  0.00  0.00    +0.000 C 
BRANCH  17  18
ATOM     18  C   UNL     1       5.212   5.293  17.802  0.00  0.00    +0.000 A 
ATOM     19  C   UNL     1       6.424   4.625  17.605  0.00  0.00    +0.000 A 
ATOM     20  C   UNL     1       7.045   4.723  16.367  0.00  0.00    +0.000 A 
ATOM     21  N   UNL     1       6.552   5.430  15.325  0.00  0.00    +0.000 NA
ATOM     22  C   UNL     1       5.380   6.063  15.534  0.00  0.00    +0.000 A 
ATOM     23  C   UNL     1       4.684   6.021  16.732  0.00  0.00    +0.000 A 
ENDBRANCH  17  18
ENDBRANCH   7  17
TORSDOF 5
ENDMDL
MODEL 8
REMARK VINA RESULT:      -6.5      1.852      6.924
REMARK  Name = 
REMARK  6 active torsions:
REMARK  status: ('A' for Active; 'I' for Inactive)
REMARK    1  A    between atoms: C_1  and  O_2
REMARK    2  A    between atoms: O_2  and  C_3
REMARK    3  A    between atoms: C_7  and  C_9
REMARK    4  A    between atoms: C_9  and  C_10
REMARK    5  A    between atoms: C_16  and  C_17
REMARK    6  A    between atoms: C_17  and  C_18
REMARK                            x       y       z     vdW  Elec       q    Type
REMARK                         _______ _______ _______ _____ _____    ______ ____
ROOT
ATOM      1  C   UNL     1       7.076   4.869  17.841  0.00  0.00    +0.000 C 
ATOM      2  C   UNL     1       6.518   5.467  19.132  0.00  0.00    +0.000 C 
ATOM      3  C   UNL     1       5.210   4.750  19.355  0.00  0.00    +0.000 C 
ATOM      4  N   UNL     1       4.705   4.493  18.021  0.00  0.00    +0.000 N 
ATOM      5  C   UNL     1       3.412   4.093  17.738  0.00  0.00    +0.000 C 
ATOM      6  O   UNL     1       3.078   3.702  16.617  0.00  0.00    +0.000 OA
ATOM      7  C   UNL     1       5.810   4.436  17.030  0.00  0.00    +0.000 C 
ENDROOT
BRANCH   1   9
ATOM      8  C   UNL     1       7.818   7.141  17.713  0.00  0.00    +0.000 C 
ATOM      9  O   UNL     1       7.878   5.832  17.167  0.00  0.00    +0.000 OA
ENDBRANCH   1   9
BRANCH   5  10
ATOM     10  C   UNL     1       2.381   4.150  18.852  0.00  0.00    +0.000 C 
BRANCH  10  11
ATOM     11  C   UNL     1       2.071   5.550  19.319  0.00  0.00    +0.000 A 
ATOM     12  C   UNL     1       1.643   5.796  20.622  0.00  0.00    +0.000 A 
ATOM     13  C   UNL     1       1.433   7.111  21.028  0.00  0.00    +0.000 A 
ATOM     14  C   UNL     1       1.658   8.149  20.133  0.00  0.00    +0.000 A 
ATOM     15  C   UNL     1       2.081   7.822  18.856  0.00  0.00    +0.000 A 
ATOM     16  N   UNL     1       2.292   6.556  18.431  0.00  0.00    +0.000 NA
ENDBRANCH  10  11
ENDBRANCH   5  10
BRANCH   7  17
ATOM     17  C   UNL     1       5.518   5.265  15.758  0.00  0.00    +0.000 C 
BRANCH  17  18
ATOM     18  C   UNL     1       6.032   4.722  14.441  0.00  0.00    +0.000 A 
ATOM     19  C   UNL     1       5.327   3.774  13.696  0.00  0.00    +0.000 A 
ATOM     20  C   UNL     1       5.848   3.365  12.476  0.00  0.00    +0.000 A 
ATOM     21  N   UNL     1       7.006   3.825  11.952  0.00  0.00    +0.000 NA
ATOM     22  C   UNL     1       7.669   4.742  12.685  0.00  0.00    +0.000 A 
ATOM     23  C   UNL     1       7.227   5.216  13.911  0.00  0.00    +0.000 A 
ENDBRANCH  17  18
ENDBRANCH   7  17
TORSDOF 5
ENDMDL
MODEL 9
REMARK VINA RESULT:      -6.5      1.895      3.974
REMARK  Name = 
REMARK  6 active torsions:
REMARK  status: ('A' for Active; 'I' for Inactive)
REMARK    1  A    between atoms: C_1  and  O_2
REMARK    2  A    between atoms: O_2  and  C_3
REMARK    3  A    between atoms: C_7  and  C_9
REMARK    4  A    between atoms: C_9  and  C_10
REMARK    5  A    between atoms: C_16  and  C_17
REMARK    6  A    between atoms: C_17  and  C_18
REMARK                            x       y       z     vdW  Elec       q    Type
REMARK                         _______ _______ _______ _____ _____    ______ ____
ROOT
ATOM      1  C   UNL     1       2.776   7.214  17.879  0.00  0.00    +0.000 C 
ATOM      2  C   UNL     1       3.846   8.188  17.384  0.00  0.00    +0.000 C 
ATOM      3  C   UNL     1       4.821   7.331  16.618  0.00  0.00    +0.000 C 
ATOM      4  N   UNL     1       4.810   6.059  17.312  0.00  0.00    +0.000 N 
ATOM      5  C   UNL     1       5.746   5.056  17.124  0.00  0.00    +0.000 C 
ATOM      6  O   UNL     1       5.594   3.924  17.588  0.00  0.00    +0.000 OA
ATOM      7  C   UNL     1       3.528   5.851  18.031  0.00  0.00    +0.000 C 
ENDROOT
BRANCH   1   9
ATOM      8  C   UNL     1       1.481   8.900  18.980  0.00  0.00    +0.000 C 
ATOM      9  O   UNL     1       2.214   7.690  19.096  0.00  0.00    +0.000 OA
ENDBRANCH   1   9
BRANCH   5  10
ATOM     10  C   UNL     1       6.996   5.380  16.325  0.00  0.00    +0.000 C 
BRANCH  10  11
ATOM     11  C   UNL     1       6.950   4.887  14.901  0.00  0.00    +0.000 A 
ATOM     12  C   UNL     1       6.002   3.950  14.495  0.00  0.00    +0.000 A 
ATOM     13  C   UNL     1       5.954   3.575  13.155  0.00  0.00    +0.000 A 
ATOM     14  C   UNL     1       6.844   4.142  12.251  0.00  0.00    +0.000 A 
ATOM     15  C   UNL     1       7.756   5.063  12.734  0.00  0.00    +0.000 A 
ATOM     16  N   UNL     1       7.829   5.448  14.029  0.00  0.00    +0.000 NA
ENDBRANCH  10  11
ENDBRANCH   5  10
BRANCH   7  17
ATOM     17  C   UNL     1       3.728   5.359  19.484  0.00  0.00    +0.000 C 
BRANCH  17  18
ATOM     18  C   UNL     1       2.840   4.231  19.965  0.00  0.00    +0.000 A 
ATOM     19  C   UNL     1       2.432   4.116  21.296  0.00  0.00    +0.000 A 
ATOM     20  C   UNL     1       1.579   3.077  21.643  0.00  0.00    +0.000 A 
ATOM     21  N   UNL     1       1.111   2.156  20.772  0.00  0.00    +0.000 NA
ATOM     22  C   UNL     1       1.514   2.287  19.491  0.00  0.00    +0.000 A 
ATOM     23  C   UNL     1       2.359   3.293  19.048  0.00  0.00    +0.000 A 
ENDBRANCH  17  18
ENDBRANCH   7  17
TORSDOF 5
ENDMDL
