MODEL 1
REMARK VINA RESULT:      -6.9      0.000      0.000
REMARK  Name = 
REMARK  10 active torsions:
REMARK  status: ('A' for Active; 'I' for Inactive)
REMARK    1  A    between atoms: C_1  and  C_2
REMARK    2  A    between atoms: C_2  and  C_3
REMARK    3  A    between atoms: C_4  and  C_5
REMARK    4  A    between atoms: N_7  and  C_8
REMARK    5  A    between atoms: N_7  and  C_9
REMARK    6  A    between atoms: N_18  and  C_19
REMARK    7  A    between atoms: C_22  and  O_23
REMARK    8  A    between atoms: O_23  and  C_24
REMARK    9  A    between atoms: C_24  and  C_25
REMARK   10  A    between atoms: C_24  and  C_26
REMARK                            x       y       z     vdW  Elec       q    Type
REMARK                         _______ _______ _______ _____ _____    ______ ____
ROOT
ATOM      1  C   UNL     1      -0.689  10.859  20.021  0.00  0.00    +0.000 A 
ATOM      2  C   UNL     1      -0.803  11.943  20.903  0.00  0.00    +0.000 A 
ATOM      3  N   UNL     1       0.322  11.977  21.694  0.00  0.00    +0.000 NA
ATOM      4  N   UNL     1       1.145  11.018  21.319  0.00  0.00    +0.000 NA
ATOM      5  N   UNL     1       0.606  10.367  20.262  0.00  0.00    +0.000 N 
ENDROOT
BRANCH   5   6
ATOM      6  C   UNL     1       1.336   9.313  19.631  0.00  0.00    +0.000 A 
ATOM      7  C   UNL     1       1.671   8.156  20.347  0.00  0.00    +0.000 A 
ATOM      8  C   UNL     1       2.306   7.079  19.706  0.00  0.00    +0.000 A 
ATOM      9  C   UNL     1       2.615   7.134  18.344  0.00  0.00    +0.000 A 
ATOM     10  C   UNL     1       2.340   8.304  17.649  0.00  0.00    +0.000 A 
ATOM     11  C   UNL     1       1.733   9.391  18.291  0.00  0.00    +0.000 A 
BRANCH   9  12
ATOM     12  O   UNL     1       3.245   6.042  17.813  0.00  0.00    +0.000 OA
BRANCH  12  13
ATOM     13  C   UNL     1       2.831   4.745  18.278  0.00  0.00    +0.000 C 
ATOM     14  C   UNL     1       1.507   4.322  17.641  0.00  0.00    +0.000 C 
ATOM     15  C   UNL     1       3.913   3.754  17.844  0.00  0.00    +0.000 C 
ENDBRANCH  12  13
ENDBRANCH   9  12
ENDBRANCH   5   6
BRANCH   2  16
ATOM     16  C   UNL     1      -1.944  12.853  21.154  0.00  0.00    +0.000 C 
ATOM     17  O   UNL     1      -2.273  13.630  20.260  0.00  0.00    +0.000 OA
ATOM     18  N   UNL     1      -2.642  12.752  22.383  0.00  0.00    +0.000 N 
ATOM     19  C   UNL     1      -2.393  11.698  23.364  0.00  0.00    +0.000 C 
BRANCH  18  20
ATOM     20  C   UNL     1      -3.661  13.723  22.712  0.00  0.00    +0.000 A 
ATOM     21  N   UNL     1      -3.286  14.854  23.359  0.00  0.00    +0.000 NA
ATOM     22  C   UNL     1      -4.234  15.738  23.749  0.00  0.00    +0.000 A 
ATOM     23  C   UNL     1      -5.589  15.555  23.549  0.00  0.00    +0.000 A 
ATOM     24  C   UNL     1      -5.988  14.407  22.884  0.00  0.00    +0.000 A 
ATOM     25  C   UNL     1      -5.023  13.495  22.457  0.00  0.00    +0.000 A 
ATOM     26  F   UNL     1      -5.457  12.417  21.786  0.00  0.00    +0.000 F 
ENDBRANCH  18  20
ENDBRANCH   2  16
BRANCH   1  28
ATOM     27  C   UNL     1      -1.698  10.639  17.628  0.00  0.00    +0.000 C 
ATOM     28  C   UNL     1      -1.617  10.169  19.061  0.00  0.00    +0.000 C 
ENDBRANCH   1  28
TORSDOF 6
ENDMDL
MODEL 2
REMARK VINA RESULT:      -6.8      2.112      2.665
REMARK  Name = 
REMARK  10 active torsions:
REMARK  status: ('A' for Active; 'I' for Inactive)
REMARK    1  A    between atoms: C_1  and  C_2
REMARK    2  A    between atoms: C_2  and  C_3
REMARK    3  A    between atoms: C_4  and  C_5
REMARK    4  A    between atoms: N_7  and  C_8
REMARK    5  A    between atoms: N_7  and  C_9
REMARK    6  A    between atoms: N_18  and  C_19
REMARK    7  A    between atoms: C_22  and  O_23
REMARK    8  A    between atoms: O_23  and  C_24
REMARK    9  A    between atoms: C_24  and  C_25
REMARK   10  A    between atoms: C_24  and  C_26
REMARK                            x       y       z     vdW  Elec       q    Type
REMARK                         _______ _______ _______ _____ _____    ______ ____
ROOT
ATOM      1  C   UNL     1      -0.154  10.123  20.893  0.00  0.00    +0.000 A 
ATOM      2  C   UNL     1      -0.276  10.731  22.150  0.00  0.00    +0.000 A 
ATOM      3  N   UNL     1       0.596  10.115  23.017  0.00  0.00    +0.000 NA
ATOM      4  N   UNL     1       1.286   9.202  22.361  0.00  0.00    +0.000 NA
ATOM      5  N   UNL     1       0.918   9.228  21.059  0.00  0.00    +0.000 N 
ENDROOT
BRANCH   5   6
ATOM      6  C   UNL     1       1.566   8.366  20.121  0.00  0.00    +0.000 A 
ATOM      7  C   UNL     1       1.920   8.840  18.851  0.00  0.00    +0.000 A 
ATOM      8  C   UNL     1       2.641   8.025  17.960  0.00  0.00    +0.000 A 
ATOM      9  C   UNL     1       3.023   6.730  18.320  0.00  0.00    +0.000 A 
ATOM     10  C   UNL     1       2.618   6.238  19.553  0.00  0.00    +0.000 A 
ATOM     11  C   UNL     1       1.875   7.037  20.432  0.00  0.00    +0.000 A 
BRANCH   9  12
ATOM     12  O   UNL     1       3.709   6.009  17.381  0.00  0.00    +0.000 OA
BRANCH  12  13
ATOM     13  C   UNL     1       5.005   6.494  16.989  0.00  0.00    +0.000 C 
ATOM     14  C   UNL     1       6.093   6.007  17.947  0.00  0.00    +0.000 C 
ATOM     15  C   UNL     1       5.292   5.917  15.602  0.00  0.00    +0.000 C 
ENDBRANCH  12  13
ENDBRANCH   9  12
ENDBRANCH   5   6
BRANCH   2  16
ATOM     16  C   UNL     1      -1.245  11.743  22.631  0.00  0.00    +0.000 C 
ATOM     17  O   UNL     1      -2.191  11.361  23.316  0.00  0.00    +0.000 OA
ATOM     18  N   UNL     1      -1.011  13.109  22.333  0.00  0.00    +0.000 N 
ATOM     19  C   UNL     1       0.213  13.596  21.700  0.00  0.00    +0.000 C 
BRANCH  18  20
ATOM     20  C   UNL     1      -2.012  14.097  22.663  0.00  0.00    +0.000 A 
ATOM     21  N   UNL     1      -2.998  14.340  21.763  0.00  0.00    +0.000 NA
ATOM     22  C   UNL     1      -3.899  15.318  22.015  0.00  0.00    +0.000 A 
ATOM     23  C   UNL     1      -3.871  16.121  23.140  0.00  0.00    +0.000 A 
ATOM     24  C   UNL     1      -2.874  15.882  24.072  0.00  0.00    +0.000 A 
ATOM     25  C   UNL     1      -1.950  14.864  23.838  0.00  0.00    +0.000 A 
ATOM     26  F   UNL     1      -1.026  14.649  24.787  0.00  0.00    +0.000 F 
ENDBRANCH  18  20
ENDBRANCH   2  16
BRANCH   1  28
ATOM     27  C   UNL     1      -0.802  11.403  18.717  0.00  0.00    +0.000 C 
ATOM     28  C   UNL     1      -0.923  10.186  19.603  0.00  0.00    +0.000 C 
ENDBRANCH   1  28
TORSDOF 6
ENDMDL
MODEL 3
REMARK VINA RESULT:      -6.8      2.286      3.731
REMARK  Name = 
REMARK  10 active torsions:
REMARK  status: ('A' for Active; 'I' for Inactive)
REMARK    1  A    between atoms: C_1  and  C_2
REMARK    2  A    between atoms: C_2  and  C_3
REMARK    3  A    between atoms: C_4  and  C_5
REMARK    4  A    between atoms: N_7  and  C_8
REMARK    5  A    between atoms: N_7  and  C_9
REMARK    6  A    between atoms: N_18  and  C_19
REMARK    7  A    between atoms: C_22  and  O_23
REMARK    8  A    between atoms: O_23  and  C_24
REMARK    9  A    between atoms: C_24  and  C_25
REMARK   10  A    between atoms: C_24  and  C_26
REMARK                            x       y       z     vdW  Elec       q    Type
REMARK                         _______ _______ _______ _____ _____    ______ ____
ROOT
ATOM      1  C   UNL     1       1.622   9.029  19.277  0.00  0.00    +0.000 A 
ATOM      2  C   UNL     1       1.065   9.400  20.509  0.00  0.00    +0.000 A 
ATOM      3  N   UNL     1       0.987   8.280  21.304  0.00  0.00    +0.000 NA
ATOM      4  N   UNL     1       1.508   7.255  20.660  0.00  0.00    +0.000 NA
ATOM      5  N   UNL     1       1.973   7.680  19.463  0.00  0.00    +0.000 N 
ENDROOT
BRANCH   5   6
ATOM      6  C   UNL     1       2.641   6.763  18.594  0.00  0.00    +0.000 A 
ATOM      7  C   UNL     1       3.729   7.186  17.818  0.00  0.00    +0.000 A 
ATOM      8  C   UNL     1       4.447   6.267  17.034  0.00  0.00    +0.000 A 
ATOM      9  C   UNL     1       4.097   4.914  17.012  0.00  0.00    +0.000 A 
ATOM     10  C   UNL     1       2.982   4.506  17.731  0.00  0.00    +0.000 A 
ATOM     11  C   UNL     1       2.247   5.424  18.491  0.00  0.00    +0.000 A 
BRANCH   9  12
ATOM     12  O   UNL     1       4.847   4.099  16.208  0.00  0.00    +0.000 OA
BRANCH  12  13
ATOM     13  C   UNL     1       6.002   4.675  15.572  0.00  0.00    +0.000 C 
ATOM     14  C   UNL     1       7.268   4.432  16.394  0.00  0.00    +0.000 C 
ATOM     15  C   UNL     1       6.161   3.970  14.224  0.00  0.00    +0.000 C 
ENDBRANCH  12  13
ENDBRANCH   9  12
ENDBRANCH   5   6
BRANCH   2  16
ATOM     16  C   UNL     1       0.474  10.688  20.941  0.00  0.00    +0.000 C 
ATOM     17  O   UNL     1       1.128  11.400  21.699  0.00  0.00    +0.000 OA
ATOM     18  N   UNL     1      -0.787  11.070  20.419  0.00  0.00    +0.000 N 
ATOM     19  C   UNL     1      -1.477  10.332  19.363  0.00  0.00    +0.000 C 
BRANCH  18  20
ATOM     20  C   UNL     1      -1.450  12.246  20.934  0.00  0.00    +0.000 A 
ATOM     21  N   UNL     1      -1.450  13.369  20.173  0.00  0.00    +0.000 NA
ATOM     22  C   UNL     1      -1.994  14.505  20.670  0.00  0.00    +0.000 A 
ATOM     23  C   UNL     1      -2.542  14.609  21.935  0.00  0.00    +0.000 A 
ATOM     24  C   UNL     1      -2.554  13.470  22.722  0.00  0.00    +0.000 A 
ATOM     25  C   UNL     1      -2.016  12.285  22.218  0.00  0.00    +0.000 A 
ATOM     26  F   UNL     1      -2.084  11.201  23.006  0.00  0.00    +0.000 F 
ENDBRANCH  18  20
ENDBRANCH   2  16
BRANCH   1  28
ATOM     27  C   UNL     1       2.261  11.140  17.889  0.00  0.00    +0.000 C 
ATOM     28  C   UNL     1       1.799   9.703  17.946  0.00  0.00    +0.000 C 
ENDBRANCH   1  28
TORSDOF 6
ENDMDL
MODEL 4
REMARK VINA RESULT:      -6.7      1.830      2.118
REMARK  Name = 
REMARK  10 active torsions:
REMARK  status: ('A' for Active; 'I' for Inactive)
REMARK    1  A    between atoms: C_1  and  C_2
REMARK    2  A    between atoms: C_2  and  C_3
REMARK    3  A    between atoms: C_4  and  C_5
REMARK    4  A    between atoms: N_7  and  C_8
REMARK    5  A    between atoms: N_7  and  C_9
REMARK    6  A    between atoms: N_18  and  C_19
REMARK    7  A    between atoms: C_22  and  O_23
REMARK    8  A    between atoms: O_23  and  C_24
REMARK    9  A    between atoms: C_24  and  C_25
REMARK   10  A    between atoms: C_24  and  C_26
REMARK                            x       y       z     vdW  Elec       q    Type
REMARK                         _______ _______ _______ _____ _____    ______ ____
ROOT
ATOM      1  C   UNL     1      -0.892  11.027  21.243  0.00  0.00    +0.000 A 
ATOM      2  C   UNL     1      -1.212  11.438  22.545  0.00  0.00    +0.000 A 
ATOM      3  N   UNL     1      -0.497  10.665  23.430  0.00  0.00    +0.000 NA
ATOM      4  N   UNL     1       0.282   9.842  22.757  0.00  0.00    +0.000 NA
ATOM      5  N   UNL     1       0.130  10.081  21.433  0.00  0.00    +0.000 N 
ENDROOT
BRANCH   5   6
ATOM      6  C   UNL     1       0.914   9.352  20.487  0.00  0.00    +0.000 A 
ATOM      7  C   UNL     1       1.455   8.104  20.827  0.00  0.00    +0.000 A 
ATOM      8  C   UNL     1       2.147   7.342  19.869  0.00  0.00    +0.000 A 
ATOM      9  C   UNL     1       2.309   7.807  18.561  0.00  0.00    +0.000 A 
ATOM     10  C   UNL     1       1.829   9.069  18.242  0.00  0.00    +0.000 A 
ATOM     11  C   UNL     1       1.163   9.844  19.201  0.00  0.00    +0.000 A 
BRANCH   9  12
ATOM     12  O   UNL     1       3.010   7.000  17.706  0.00  0.00    +0.000 OA
BRANCH  12  13
ATOM     13  C   UNL     1       3.318   5.668  18.153  0.00  0.00    +0.000 C 
ATOM     14  C   UNL     1       2.240   4.673  17.720  0.00  0.00    +0.000 C 
ATOM     15  C   UNL     1       4.635   5.271  17.484  0.00  0.00    +0.000 C 
ENDBRANCH  12  13
ENDBRANCH   9  12
ENDBRANCH   5   6
BRANCH   2  16
ATOM     16  C   UNL     1      -2.236  12.397  23.019  0.00  0.00    +0.000 C 
ATOM     17  O   UNL     1      -3.308  11.948  23.419  0.00  0.00    +0.000 OA
ATOM     18  N   UNL     1      -1.919  13.777  23.049  0.00  0.00    +0.000 N 
ATOM     19  C   UNL     1      -0.583  14.301  22.774  0.00  0.00    +0.000 C 
BRANCH  18  20
ATOM     20  C   UNL     1      -2.946  14.743  23.367  0.00  0.00    +0.000 A 
ATOM     21  N   UNL     1      -3.714  15.222  22.357  0.00  0.00    +0.000 NA
ATOM     22  C   UNL     1      -4.626  16.187  22.619  0.00  0.00    +0.000 A 
ATOM     23  C   UNL     1      -4.820  16.747  23.868  0.00  0.00    +0.000 A 
ATOM     24  C   UNL     1      -4.047  16.265  24.912  0.00  0.00    +0.000 A 
ATOM     25  C   UNL     1      -3.116  15.256  24.663  0.00  0.00    +0.000 A 
ATOM     26  F   UNL     1      -2.417  14.798  25.713  0.00  0.00    +0.000 F 
ENDBRANCH  18  20
ENDBRANCH   2  16
BRANCH   1  28
ATOM     27  C   UNL     1      -1.279  12.692  19.275  0.00  0.00    +0.000 C 
ATOM     28  C   UNL     1      -1.442  11.314  19.874  0.00  0.00    +0.000 C 
ENDBRANCH   1  28
TORSDOF 6
ENDMDL
MODEL 5
REMARK VINA RESULT:      -6.7      1.718      2.227
REMARK  Name = 
REMARK  10 active torsions:
REMARK  status: ('A' for Active; 'I' for Inactive)
REMARK    1  A    between atoms: C_1  and  C_2
REMARK    2  A    between atoms: C_2  and  C_3
REMARK    3  A    between atoms: C_4  and  C_5
REMARK    4  A    between atoms: N_7  and  C_8
REMARK    5  A    between atoms: N_7  and  C_9
REMARK    6  A    between atoms: N_18  and  C_19
REMARK    7  A    between atoms: C_22  and  O_23
REMARK    8  A    between atoms: O_23  and  C_24
REMARK    9  A    between atoms: C_24  and  C_25
REMARK   10  A    between atoms: C_24  and  C_26
REMARK                            x       y       z     vdW  Elec       q    Type
REMARK                         _______ _______ _______ _____ _____    ______ ____
ROOT
ATOM      1  C   UNL     1      -0.191  10.096  20.972  0.00  0.00    +0.000 A 
ATOM      2  C   UNL     1      -0.294  10.675  22.245  0.00  0.00    +0.000 A 
ATOM      3  N   UNL     1       0.612  10.056  23.076  0.00  0.00    +0.000 NA
ATOM      4  N   UNL     1       1.302   9.172  22.382  0.00  0.00    +0.000 NA
ATOM      5  N   UNL     1       0.901   9.219  21.091  0.00  0.00    +0.000 N 
ENDROOT
BRANCH   5   6
ATOM      6  C   UNL     1       1.542   8.391  20.119  0.00  0.00    +0.000 A 
ATOM      7  C   UNL     1       1.832   8.892  18.842  0.00  0.00    +0.000 A 
ATOM      8  C   UNL     1       2.545   8.113  17.915  0.00  0.00    +0.000 A 
ATOM      9  C   UNL     1       2.982   6.827  18.243  0.00  0.00    +0.000 A 
ATOM     10  C   UNL     1       2.641   6.306  19.483  0.00  0.00    +0.000 A 
ATOM     11  C   UNL     1       1.906   7.069  20.400  0.00  0.00    +0.000 A 
BRANCH   9  12
ATOM     12  O   UNL     1       3.656   6.141  17.269  0.00  0.00    +0.000 OA
BRANCH  12  13
ATOM     13  C   UNL     1       4.888   5.499  17.641  0.00  0.00    +0.000 C 
ATOM     14  C   UNL     1       5.118   4.222  16.831  0.00  0.00    +0.000 C 
ATOM     15  C   UNL     1       6.015   6.483  17.317  0.00  0.00    +0.000 C 
ENDBRANCH  12  13
ENDBRANCH   9  12
ENDBRANCH   5   6
BRANCH   2  16
ATOM     16  C   UNL     1      -1.269  11.657  22.772  0.00  0.00    +0.000 C 
ATOM     17  O   UNL     1      -2.193  11.240  23.467  0.00  0.00    +0.000 OA
ATOM     18  N   UNL     1      -1.065  13.033  22.506  0.00  0.00    +0.000 N 
ATOM     19  C   UNL     1       0.137  13.558  21.860  0.00  0.00    +0.000 C 
BRANCH  18  20
ATOM     20  C   UNL     1      -2.075  13.995  22.882  0.00  0.00    +0.000 A 
ATOM     21  N   UNL     1      -1.988  14.576  24.105  0.00  0.00    +0.000 NA
ATOM     22  C   UNL     1      -2.967  15.418  24.510  0.00  0.00    +0.000 A 
ATOM     23  C   UNL     1      -4.087  15.717  23.758  0.00  0.00    +0.000 A 
ATOM     24  C   UNL     1      -4.190  15.136  22.504  0.00  0.00    +0.000 A 
ATOM     25  C   UNL     1      -3.179  14.281  22.063  0.00  0.00    +0.000 A 
ATOM     26  F   UNL     1      -3.307  13.772  20.828  0.00  0.00    +0.000 F 
ENDBRANCH  18  20
ENDBRANCH   2  16
BRANCH   1  28
ATOM     27  C   UNL     1      -0.991  11.445  18.890  0.00  0.00    +0.000 C 
ATOM     28  C   UNL     1      -0.994  10.173  19.703  0.00  0.00    +0.000 C 
ENDBRANCH   1  28
TORSDOF 6
ENDMDL
MODEL 6
REMARK VINA RESULT:      -6.7      1.981      2.364
REMARK  Name = 
REMARK  10 active torsions:
REMARK  status: ('A' for Active; 'I' for Inactive)
REMARK    1  A    between atoms: C_1  and  C_2
REMARK    2  A    between atoms: C_2  and  C_3
REMARK    3  A    between atoms: C_4  and  C_5
REMARK    4  A    between atoms: N_7  and  C_8
REMARK    5  A    between atoms: N_7  and  C_9
REMARK    6  A    between atoms: N_18  and  C_19
REMARK    7  A    between atoms: C_22  and  O_23
REMARK    8  A    between atoms: O_23  and  C_24
REMARK    9  A    between atoms: C_24  and  C_25
REMARK   10  A    between atoms: C_24  and  C_26
REMARK                            x       y       z     vdW  Elec       q    Type
REMARK                         _______ _______ _______ _____ _____    ______ ____
ROOT
ATOM      1  C   UNL     1      -0.228  10.191  21.024  0.00  0.00    +0.000 A 
ATOM      2  C   UNL     1      -0.374  10.776  22.290  0.00  0.00    +0.000 A 
ATOM      3  N   UNL     1       0.478  10.138  23.162  0.00  0.00    +0.000 NA
ATOM      4  N   UNL     1       1.177   9.235  22.503  0.00  0.00    +0.000 NA
ATOM      5  N   UNL     1       0.836   9.287  21.194  0.00  0.00    +0.000 N 
ENDROOT
BRANCH   5   6
ATOM      6  C   UNL     1       1.500   8.440  20.254  0.00  0.00    +0.000 A 
ATOM      7  C   UNL     1       1.849   7.130  20.606  0.00  0.00    +0.000 A 
ATOM      8  C   UNL     1       2.417   6.263  19.655  0.00  0.00    +0.000 A 
ATOM      9  C   UNL     1       2.643   6.686  18.343  0.00  0.00    +0.000 A 
ATOM     10  C   UNL     1       2.355   8.002  18.011  0.00  0.00    +0.000 A 
ATOM     11  C   UNL     1       1.815   8.877  18.963  0.00  0.00    +0.000 A 
BRANCH   9  12
ATOM     12  O   UNL     1       3.213   5.775  17.494  0.00  0.00    +0.000 OA
BRANCH  12  13
ATOM     13  C   UNL     1       4.591   5.431  17.720  0.00  0.00    +0.000 C 
ATOM     14  C   UNL     1       4.885   3.995  17.284  0.00  0.00    +0.000 C 
ATOM     15  C   UNL     1       5.429   6.376  16.856  0.00  0.00    +0.000 C 
ENDBRANCH  12  13
ENDBRANCH   9  12
ENDBRANCH   5   6
BRANCH   2  16
ATOM     16  C   UNL     1      -1.347  11.783  22.770  0.00  0.00    +0.000 C 
ATOM     17  O   UNL     1      -2.303  11.393  23.437  0.00  0.00    +0.000 OA
ATOM     18  N   UNL     1      -1.107  13.152  22.495  0.00  0.00    +0.000 N 
ATOM     19  C   UNL     1       0.127  13.645  21.885  0.00  0.00    +0.000 C 
BRANCH  18  20
ATOM     20  C   UNL     1      -2.111  14.137  22.823  0.00  0.00    +0.000 A 
ATOM     21  N   UNL     1      -3.107  14.363  21.930  0.00  0.00    +0.000 NA
ATOM     22  C   UNL     1      -4.012  15.338  22.180  0.00  0.00    +0.000 A 
ATOM     23  C   UNL     1      -3.979  16.154  23.296  0.00  0.00    +0.000 A 
ATOM     24  C   UNL     1      -2.971  15.932  24.220  0.00  0.00    +0.000 A 
ATOM     25  C   UNL     1      -2.042  14.918  23.988  0.00  0.00    +0.000 A 
ATOM     26  F   UNL     1      -1.107  14.720  24.930  0.00  0.00    +0.000 F 
ENDBRANCH  18  20
ENDBRANCH   2  16
BRANCH   1  28
ATOM     27  C   UNL     1      -0.850  11.528  18.875  0.00  0.00    +0.000 C 
ATOM     28  C   UNL     1      -0.970  10.282  19.720  0.00  0.00    +0.000 C 
ENDBRANCH   1  28
TORSDOF 6
ENDMDL
MODEL 7
REMARK VINA RESULT:      -6.6      2.353      3.856
REMARK  Name = 
REMARK  10 active torsions:
REMARK  status: ('A' for Active; 'I' for Inactive)
REMARK    1  A    between atoms: C_1  and  C_2
REMARK    2  A    between atoms: C_2  and  C_3
REMARK    3  A    between atoms: C_4  and  C_5
REMARK    4  A    between atoms: N_7  and  C_8
REMARK    5  A    between atoms: N_7  and  C_9
REMARK    6  A    between atoms: N_18  and  C_19
REMARK    7  A    between atoms: C_22  and  O_23
REMARK    8  A    between atoms: O_23  and  C_24
REMARK    9  A    between atoms: C_24  and  C_25
REMARK   10  A    between atoms: C_24  and  C_26
REMARK                            x       y       z     vdW  Elec       q    Type
REMARK                         _______ _______ _______ _____ _____    ______ ____
ROOT
ATOM      1  C   UNL     1       1.581   8.702  19.417  0.00  0.00    +0.000 A 
ATOM      2  C   UNL     1       1.343  10.014  18.983  0.00  0.00    +0.000 A 
ATOM      3  N   UNL     1       1.884  10.159  17.726  0.00  0.00    +0.000 NA
ATOM      4  N   UNL     1       2.392   9.006  17.338  0.00  0.00    +0.000 NA
ATOM      5  N   UNL     1       2.162   8.080  18.298  0.00  0.00    +0.000 N 
ENDROOT
BRANCH   5   6
ATOM      6  C   UNL     1       2.568   6.726  18.090  0.00  0.00    +0.000 A 
ATOM      7  C   UNL     1       3.925   6.379  18.133  0.00  0.00    +0.000 A 
ATOM      8  C   UNL     1       4.322   5.035  18.022  0.00  0.00    +0.000 A 
ATOM      9  C   UNL     1       3.377   4.017  17.870  0.00  0.00    +0.000 A 
ATOM     10  C   UNL     1       2.037   4.367  17.763  0.00  0.00    +0.000 A 
ATOM     11  C   UNL     1       1.640   5.708  17.845  0.00  0.00    +0.000 A 
BRANCH   9  12
ATOM     12  O   UNL     1       3.861   2.742  17.756  0.00  0.00    +0.000 OA
BRANCH  12  13
ATOM     13  C   UNL     1       3.635   1.846  18.858  0.00  0.00    +0.000 C 
ATOM     14  C   UNL     1       4.342   2.332  20.124  0.00  0.00    +0.000 C 
ATOM     15  C   UNL     1       2.128   1.840  19.121  0.00  0.00    +0.000 C 
ENDBRANCH  12  13
ENDBRANCH   9  12
ENDBRANCH   5   6
BRANCH   2  16
ATOM     16  C   UNL     1       0.778  11.173  19.711  0.00  0.00    +0.000 C 
ATOM     17  O   UNL     1       1.557  11.943  20.268  0.00  0.00    +0.000 OA
ATOM     18  N   UNL     1      -0.624  11.379  19.685  0.00  0.00    +0.000 N 
ATOM     19  C   UNL     1      -1.537  10.592  18.858  0.00  0.00    +0.000 C 
BRANCH  18  20
ATOM     20  C   UNL     1      -1.213  12.413  20.504  0.00  0.00    +0.000 A 
ATOM     21  N   UNL     1      -1.385  13.644  19.961  0.00  0.00    +0.000 NA
ATOM     22  C   UNL     1      -1.860  14.649  20.734  0.00  0.00    +0.000 A 
ATOM     23  C   UNL     1      -2.167  14.511  22.075  0.00  0.00    +0.000 A 
ATOM     24  C   UNL     1      -2.002  13.259  22.643  0.00  0.00    +0.000 A 
ATOM     25  C   UNL     1      -1.533  12.207  21.856  0.00  0.00    +0.000 A 
ATOM     26  F   UNL     1      -1.424  11.006  22.443  0.00  0.00    +0.000 F 
ENDBRANCH  18  20
ENDBRANCH   2  16
BRANCH   1  28
ATOM     27  C   UNL     1       0.227   8.240  21.595  0.00  0.00    +0.000 C 
ATOM     28  C   UNL     1       1.429   7.972  20.722  0.00  0.00    +0.000 C 
ENDBRANCH   1  28
TORSDOF 6
ENDMDL
MODEL 8
REMARK VINA RESULT:      -6.6      0.878      1.029
REMARK  Name = 
REMARK  10 active torsions:
REMARK  status: ('A' for Active; 'I' for Inactive)
REMARK    1  A    between atoms: C_1  and  C_2
REMARK    2  A    between atoms: C_2  and  C_3
REMARK    3  A    between atoms: C_4  and  C_5
REMARK    4  A    between atoms: N_7  and  C_8
REMARK    5  A    between atoms: N_7  and  C_9
REMARK    6  A    between atoms: N_18  and  C_19
REMARK    7  A    between atoms: C_22  and  O_23
REMARK    8  A    between atoms: O_23  and  C_24
REMARK    9  A    between atoms: C_24  and  C_25
REMARK   10  A    between atoms: C_24  and  C_26
REMARK                            x       y       z     vdW  Elec       q    Type
REMARK                         _______ _______ _______ _____ _____    ______ ____
ROOT
ATOM      1  C   UNL     1      -0.706  10.981  20.030  0.00  0.00    +0.000 A 
ATOM      2  C   UNL     1      -0.839  12.021  20.961  0.00  0.00    +0.000 A 
ATOM      3  N   UNL     1       0.232  11.969  21.824  0.00  0.00    +0.000 NA
ATOM      4  N   UNL     1       1.042  10.998  21.451  0.00  0.00    +0.000 NA
ATOM      5  N   UNL     1       0.551  10.426  20.327  0.00  0.00    +0.000 N 
ENDROOT
BRANCH   5   6
ATOM      6  C   UNL     1       1.283   9.378  19.687  0.00  0.00    +0.000 A 
ATOM      7  C   UNL     1       1.596   8.205  20.386  0.00  0.00    +0.000 A 
ATOM      8  C   UNL     1       2.232   7.134  19.733  0.00  0.00    +0.000 A 
ATOM      9  C   UNL     1       2.564   7.214  18.378  0.00  0.00    +0.000 A 
ATOM     10  C   UNL     1       2.311   8.399  17.702  0.00  0.00    +0.000 A 
ATOM     11  C   UNL     1       1.702   9.478  18.355  0.00  0.00    +0.000 A 
BRANCH   9  12
ATOM     12  O   UNL     1       3.194   6.127  17.836  0.00  0.00    +0.000 OA
BRANCH  12  13
ATOM     13  C   UNL     1       4.629   6.169  17.745  0.00  0.00    +0.000 C 
ATOM     14  C   UNL     1       5.281   5.305  18.825  0.00  0.00    +0.000 C 
ATOM     15  C   UNL     1       5.002   5.592  16.378  0.00  0.00    +0.000 C 
ENDBRANCH  12  13
ENDBRANCH   9  12
ENDBRANCH   5   6
BRANCH   2  16
ATOM     16  C   UNL     1      -1.959  12.962  21.188  0.00  0.00    +0.000 C 
ATOM     17  O   UNL     1      -2.223  13.772  20.302  0.00  0.00    +0.000 OA
ATOM     18  N   UNL     1      -2.714  12.851  22.382  0.00  0.00    +0.000 N 
ATOM     19  C   UNL     1      -2.543  11.764  23.344  0.00  0.00    +0.000 C 
BRANCH  18  20
ATOM     20  C   UNL     1      -3.715  13.847  22.693  0.00  0.00    +0.000 A 
ATOM     21  N   UNL     1      -3.318  14.985  23.315  0.00  0.00    +0.000 NA
ATOM     22  C   UNL     1      -4.249  15.894  23.689  0.00  0.00    +0.000 A 
ATOM     23  C   UNL     1      -5.608  15.730  23.498  0.00  0.00    +0.000 A 
ATOM     24  C   UNL     1      -6.029  14.575  22.859  0.00  0.00    +0.000 A 
ATOM     25  C   UNL     1      -5.082  13.637  22.449  0.00  0.00    +0.000 A 
ATOM     26  F   UNL     1      -5.537  12.552  21.803  0.00  0.00    +0.000 F 
ENDBRANCH  18  20
ENDBRANCH   2  16
BRANCH   1  28
ATOM     27  C   UNL     1      -1.883  11.154  17.710  0.00  0.00    +0.000 C 
ATOM     28  C   UNL     1      -1.592  10.380  18.975  0.00  0.00    +0.000 C 
ENDBRANCH   1  28
TORSDOF 6
ENDMDL
MODEL 9
REMARK VINA RESULT:      -6.6      1.554      2.247
REMARK  Name = 
REMARK  10 active torsions:
REMARK  status: ('A' for Active; 'I' for Inactive)
REMARK    1  A    between atoms: C_1  and  C_2
REMARK    2  A    between atoms: C_2  and  C_3
REMARK    3  A    between atoms: C_4  and  C_5
REMARK    4  A    between atoms: N_7  and  C_8
REMARK    5  A    between atoms: N_7  and  C_9
REMARK    6  A    between atoms: N_18  and  C_19
REMARK    7  A    between atoms: C_22  and  O_23
REMARK    8  A    between atoms: O_23  and  C_24
REMARK    9  A    between atoms: C_24  and  C_25
REMARK   10  A    between atoms: C_24  and  C_26
REMARK                            x       y       z     vdW  Elec       q    Type
REMARK                         _______ _______ _______ _____ _____    ______ ____
ROOT
ATOM      1  C   UNL     1      -0.288  10.398  20.959  0.00  0.00    +0.000 A 
ATOM      2  C   UNL     1      -0.702  11.736  20.897  0.00  0.00    +0.000 A 
ATOM      3  N   UNL     1       0.020  12.368  19.912  0.00  0.00    +0.000 NA
ATOM      4  N   UNL     1       0.814  11.492  19.327  0.00  0.00    +0.000 NA
ATOM      5  N   UNL     1       0.603  10.274  19.879  0.00  0.00    +0.000 N 
ENDROOT
BRANCH   5   6
ATOM      6  C   UNL     1       1.306   9.137  19.375  0.00  0.00    +0.000 A 
ATOM      7  C   UNL     1       1.700   9.086  18.031  0.00  0.00    +0.000 A 
ATOM      8  C   UNL     1       2.473   8.012  17.555  0.00  0.00    +0.000 A 
ATOM      9  C   UNL     1       2.866   6.976  18.406  0.00  0.00    +0.000 A 
ATOM     10  C   UNL     1       2.423   6.995  19.721  0.00  0.00    +0.000 A 
ATOM     11  C   UNL     1       1.630   8.049  20.193  0.00  0.00    +0.000 A 
BRANCH   9  12
ATOM     12  O   UNL     1       3.604   5.969  17.846  0.00  0.00    +0.000 OA
BRANCH  12  13
ATOM     13  C   UNL     1       3.327   4.625  18.278  0.00  0.00    +0.000 C 
ATOM     14  C   UNL     1       2.061   4.078  17.617  0.00  0.00    +0.000 C 
ATOM     15  C   UNL     1       4.512   3.765  17.834  0.00  0.00    +0.000 C 
ENDBRANCH  12  13
ENDBRANCH   9  12
ENDBRANCH   5   6
BRANCH   2  16
ATOM     16  C   UNL     1      -1.615  12.495  21.783  0.00  0.00    +0.000 C 
ATOM     17  O   UNL     1      -1.176  12.901  22.857  0.00  0.00    +0.000 OA
ATOM     18  N   UNL     1      -2.930  12.772  21.333  0.00  0.00    +0.000 N 
ATOM     19  C   UNL     1      -3.396  12.476  19.979  0.00  0.00    +0.000 C 
BRANCH  18  20
ATOM     20  C   UNL     1      -3.883  13.381  22.232  0.00  0.00    +0.000 A 
ATOM     21  N   UNL     1      -4.681  12.569  22.969  0.00  0.00    +0.000 NA
ATOM     22  C   UNL     1      -5.636  13.116  23.757  0.00  0.00    +0.000 A 
ATOM     23  C   UNL     1      -5.875  14.475  23.849  0.00  0.00    +0.000 A 
ATOM     24  C   UNL     1      -5.065  15.318  23.107  0.00  0.00    +0.000 A 
ATOM     25  C   UNL     1      -4.063  14.772  22.305  0.00  0.00    +0.000 A 
ATOM     26  F   UNL     1      -3.281  15.632  21.634  0.00  0.00    +0.000 F 
ENDBRANCH  18  20
ENDBRANCH   2  16
BRANCH   1  28
ATOM     27  C   UNL     1      -0.073   9.365  23.342  0.00  0.00    +0.000 C 
ATOM     28  C   UNL     1      -0.527   9.255  21.906  0.00  0.00    +0.000 C 
ENDBRANCH   1  28
TORSDOF 6
ENDMDL
