MODEL 1
REMARK VINA RESULT:      -6.7      0.000      0.000
REMARK  Name = 
REMARK  8 active torsions:
REMARK  status: ('A' for Active; 'I' for Inactive)
REMARK    1  A    between atoms: C_1  and  C_2
REMARK    2  A    between atoms: C_2  and  O_3
REMARK    3  A    between atoms: O_3  and  C_4
REMARK    4  A    between atoms: C_6  and  C_7
REMARK    5  A    between atoms: C_12  and  C_13
REMARK    6  A    between atoms: C_19  and  C_20
REMARK    7  A    between atoms: C_26  and  N_27
REMARK    8  A    between atoms: C_30  and  O_31
REMARK                            x       y       z     vdW  Elec       q    Type
REMARK                         _______ _______ _______ _____ _____    ______ ____
ROOT
ATOM      1  C   UNL     1       0.919  11.074  18.101  0.00  0.00    +0.000 C 
ATOM      2  N   UNL     1       1.947  12.057  18.366  0.00  0.00    +0.000 N 
ATOM      3  C   UNL     1       1.969  12.805  19.505  0.00  0.00    +0.000 C 
ATOM      4  O   UNL     1       2.981  13.389  19.869  0.00  0.00    +0.000 OA
ATOM      5  N   UNL     1       0.787  12.888  20.183  0.00  0.00    +0.000 N 
ATOM      6  C   UNL     1      -0.408  12.384  19.726  0.00  0.00    +0.000 C 
ATOM      7  C   UNL     1      -0.412  11.577  18.644  0.00  0.00    +0.000 C 
ATOM      8  H   UNL     1       2.840  11.979  17.900  0.00  0.00    +0.000 HD
ATOM      9  H   UNL     1       0.799  13.474  21.010  0.00  0.00    +0.000 HD
ENDROOT
BRANCH   1  12
ATOM     10  C   UNL     1       1.378   8.123  20.559  0.00  0.00    +0.000 A 
ATOM     11  C   UNL     1       0.967   9.348  19.993  0.00  0.00    +0.000 A 
ATOM     12  C   UNL     1       1.331   9.719  18.694  0.00  0.00    +0.000 A 
ATOM     13  C   UNL     1       2.085   8.796  17.952  0.00  0.00    +0.000 A 
ATOM     14  C   UNL     1       2.549   7.601  18.514  0.00  0.00    +0.000 A 
ATOM     15  C   UNL     1       2.206   7.251  19.831  0.00  0.00    +0.000 A 
BRANCH  14  16
ATOM     16  N   UNL     1       3.433   6.766  17.688  0.00  0.00    +0.000 N 
ATOM     17  O   UNL     1       3.209   5.549  17.630  0.00  0.00    +0.000 OA
ATOM     18  O   UNL     1       4.351   7.337  17.078  0.00  0.00    +0.000 OA
ENDBRANCH  14  16
BRANCH  15  19
ATOM     19  O   UNL     1       2.677   6.119  20.443  0.00  0.00    +0.000 OA
ATOM     20  H   UNL     1       2.522   6.160  21.409  0.00  0.00    +0.000 HD
ENDBRANCH  15  19
BRANCH  10  21
ATOM     21  O   UNL     1       0.938   7.964  21.846  0.00  0.00    +0.000 OA
BRANCH  21  23
ATOM     22  C   UNL     1       0.045   9.493  23.433  0.00  0.00    +0.000 C 
ATOM     23  C   UNL     1      -0.274   8.615  22.231  0.00  0.00    +0.000 C 
ENDBRANCH  21  23
ENDBRANCH  10  21
ENDBRANCH   1  12
BRANCH   6  24
ATOM     24  C   UNL     1      -1.605  12.684  20.525  0.00  0.00    +0.000 A 
ATOM     25  C   UNL     1      -1.761  12.103  21.794  0.00  0.00    +0.000 A 
ATOM     26  C   UNL     1      -2.901  12.361  22.556  0.00  0.00    +0.000 A 
ATOM     27  C   UNL     1      -3.887  13.210  22.060  0.00  0.00    +0.000 A 
ATOM     28  C   UNL     1      -3.734  13.799  20.805  0.00  0.00    +0.000 A 
ATOM     29  C   UNL     1      -2.596  13.538  20.037  0.00  0.00    +0.000 A 
ENDBRANCH   6  24
BRANCH   7  30
ATOM     30  C   UNL     1      -1.571  11.041  17.989  0.00  0.00    +0.000 A 
ATOM     31  C   UNL     1      -2.277   9.879  18.426  0.00  0.00    +0.000 A 
ATOM     32  C   UNL     1      -3.368   9.607  17.629  0.00  0.00    +0.000 A 
ATOM     33  S   UNL     1      -3.529  10.733  16.351  0.00  0.00    +0.000 S 
ATOM     34  C   UNL     1      -2.137  11.591  16.860  0.00  0.00    +0.000 A 
ENDBRANCH   7  30
TORSDOF 7
ENDMDL
MODEL 2
REMARK VINA RESULT:      -6.7      0.242      1.040
REMARK  Name = 
REMARK  8 active torsions:
REMARK  status: ('A' for Active; 'I' for Inactive)
REMARK    1  A    between atoms: C_1  and  C_2
REMARK    2  A    between atoms: C_2  and  O_3
REMARK    3  A    between atoms: O_3  and  C_4
REMARK    4  A    between atoms: C_6  and  C_7
REMARK    5  A    between atoms: C_12  and  C_13
REMARK    6  A    between atoms: C_19  and  C_20
REMARK    7  A    between atoms: C_26  and  N_27
REMARK    8  A    between atoms: C_30  and  O_31
REMARK                            x       y       z     vdW  Elec       q    Type
REMARK                         _______ _______ _______ _____ _____    ______ ____
ROOT
ATOM      1  C   UNL     1       0.919  11.092  17.999  0.00  0.00    +0.000 C 
ATOM      2  N   UNL     1       1.978  12.061  18.178  0.00  0.00    +0.000 N 
ATOM      3  C   UNL     1       2.067  12.853  19.283  0.00  0.00    +0.000 C 
ATOM      4  O   UNL     1       3.107  13.428  19.577  0.00  0.00    +0.000 OA
ATOM      5  N   UNL     1       0.920  12.989  20.010  0.00  0.00    +0.000 N 
ATOM      6  C   UNL     1      -0.305  12.495  19.628  0.00  0.00    +0.000 C 
ATOM      7  C   UNL     1      -0.375  11.645  18.582  0.00  0.00    +0.000 C 
ATOM      8  H   UNL     1       2.847  11.944  17.676  0.00  0.00    +0.000 HD
ATOM      9  H   UNL     1       0.981  13.607  20.811  0.00  0.00    +0.000 HD
ENDROOT
BRANCH   1  12
ATOM     10  C   UNL     1       1.391   8.214  20.540  0.00  0.00    +0.000 A 
ATOM     11  C   UNL     1       0.981   9.425  19.943  0.00  0.00    +0.000 A 
ATOM     12  C   UNL     1       1.329   9.752  18.628  0.00  0.00    +0.000 A 
ATOM     13  C   UNL     1       2.065   8.801  17.904  0.00  0.00    +0.000 A 
ATOM     14  C   UNL     1       2.528   7.620  18.495  0.00  0.00    +0.000 A 
ATOM     15  C   UNL     1       2.203   7.313  19.827  0.00  0.00    +0.000 A 
BRANCH  14  16
ATOM     16  N   UNL     1       3.394   6.753  17.683  0.00  0.00    +0.000 N 
ATOM     17  O   UNL     1       4.337   7.272  17.069  0.00  0.00    +0.000 OA
ATOM     18  O   UNL     1       3.139   5.538  17.676  0.00  0.00    +0.000 OA
ENDBRANCH  14  16
BRANCH  15  19
ATOM     19  O   UNL     1       2.674   6.197  20.467  0.00  0.00    +0.000 OA
ATOM     20  H   UNL     1       2.503   6.255  21.430  0.00  0.00    +0.000 HD
ENDBRANCH  15  19
BRANCH  10  21
ATOM     21  O   UNL     1       0.969   8.098  21.838  0.00  0.00    +0.000 OA
BRANCH  21  23
ATOM     22  C   UNL     1      -0.040   9.523  23.451  0.00  0.00    +0.000 C 
ATOM     23  C   UNL     1      -0.279   8.692  22.198  0.00  0.00    +0.000 C 
ENDBRANCH  21  23
ENDBRANCH  10  21
ENDBRANCH   1  12
BRANCH   6  24
ATOM     24  C   UNL     1      -1.458  12.853  20.467  0.00  0.00    +0.000 A 
ATOM     25  C   UNL     1      -2.200  14.009  20.178  0.00  0.00    +0.000 A 
ATOM     26  C   UNL     1      -3.285  14.373  20.976  0.00  0.00    +0.000 A 
ATOM     27  C   UNL     1      -3.642  13.578  22.062  0.00  0.00    +0.000 A 
ATOM     28  C   UNL     1      -2.916  12.422  22.350  0.00  0.00    +0.000 A 
ATOM     29  C   UNL     1      -1.826  12.058  21.555  0.00  0.00    +0.000 A 
ENDBRANCH   6  24
BRANCH   7  30
ATOM     30  C   UNL     1      -1.574  11.110  18.001  0.00  0.00    +0.000 A 
ATOM     31  C   UNL     1      -2.221   9.918  18.447  0.00  0.00    +0.000 A 
ATOM     32  C   UNL     1      -3.369   9.653  17.731  0.00  0.00    +0.000 A 
ATOM     33  S   UNL     1      -3.653  10.823  16.516  0.00  0.00    +0.000 S 
ATOM     34  C   UNL     1      -2.240  11.690  16.944  0.00  0.00    +0.000 A 
ENDBRANCH   7  30
TORSDOF 7
ENDMDL
MODEL 3
REMARK VINA RESULT:      -6.3      4.708      7.455
REMARK  Name = 
REMARK  8 active torsions:
REMARK  status: ('A' for Active; 'I' for Inactive)
REMARK    1  A    between atoms: C_1  and  C_2
REMARK    2  A    between atoms: C_2  and  O_3
REMARK    3  A    between atoms: O_3  and  C_4
REMARK    4  A    between atoms: C_6  and  C_7
REMARK    5  A    between atoms: C_12  and  C_13
REMARK    6  A    between atoms: C_19  and  C_20
REMARK    7  A    between atoms: C_26  and  N_27
REMARK    8  A    between atoms: C_30  and  O_31
REMARK                            x       y       z     vdW  Elec       q    Type
REMARK                         _______ _______ _______ _____ _____    ______ ____
ROOT
ATOM      1  C   UNL     1       0.014  13.892  21.556  0.00  0.00    +0.000 C 
ATOM      2  N   UNL     1       0.300  15.001  20.672  0.00  0.00    +0.000 N 
ATOM      3  C   UNL     1      -0.392  15.216  19.519  0.00  0.00    +0.000 C 
ATOM      4  O   UNL     1      -0.370  16.300  18.950  0.00  0.00    +0.000 OA
ATOM      5  N   UNL     1      -1.074  14.141  19.027  0.00  0.00    +0.000 N 
ATOM      6  C   UNL     1      -0.996  12.869  19.543  0.00  0.00    +0.000 C 
ATOM      7  C   UNL     1      -0.379  12.675  20.728  0.00  0.00    +0.000 C 
ATOM      8  H   UNL     1       0.767  15.819  21.038  0.00  0.00    +0.000 HD
ATOM      9  H   UNL     1      -1.559  14.295  18.150  0.00  0.00    +0.000 HD
ENDROOT
BRANCH   1  12
ATOM     10  C   UNL     1      -3.423  14.431  23.244  0.00  0.00    +0.000 A 
ATOM     11  C   UNL     1      -2.421  14.022  22.340  0.00  0.00    +0.000 A 
ATOM     12  C   UNL     1      -1.068  14.299  22.567  0.00  0.00    +0.000 A 
ATOM     13  C   UNL     1      -0.740  14.959  23.761  0.00  0.00    +0.000 A 
ATOM     14  C   UNL     1      -1.724  15.421  24.643  0.00  0.00    +0.000 A 
ATOM     15  C   UNL     1      -3.083  15.169  24.392  0.00  0.00    +0.000 A 
BRANCH  14  16
ATOM     16  N   UNL     1      -1.276  16.208  25.801  0.00  0.00    +0.000 N 
ATOM     17  O   UNL     1      -1.824  17.298  26.019  0.00  0.00    +0.000 OA
ATOM     18  O   UNL     1      -0.381  15.722  26.509  0.00  0.00    +0.000 OA
ENDBRANCH  14  16
BRANCH  15  19
ATOM     19  O   UNL     1      -4.085  15.644  25.196  0.00  0.00    +0.000 OA
ATOM     20  H   UNL     1      -4.961  15.479  24.788  0.00  0.00    +0.000 HD
ENDBRANCH  15  19
BRANCH  10  21
ATOM     21  O   UNL     1      -4.681  14.086  22.826  0.00  0.00    +0.000 OA
BRANCH  21  23
ATOM     22  C   UNL     1      -5.789  12.767  21.187  0.00  0.00    +0.000 C 
ATOM     23  C   UNL     1      -4.926  13.999  21.421  0.00  0.00    +0.000 C 
ENDBRANCH  21  23
ENDBRANCH  10  21
ENDBRANCH   1  12
BRANCH   6  24
ATOM     24  C   UNL     1      -1.693  11.806  18.803  0.00  0.00    +0.000 A 
ATOM     25  C   UNL     1      -0.953  10.855  18.084  0.00  0.00    +0.000 A 
ATOM     26  C   UNL     1      -1.599   9.852  17.361  0.00  0.00    +0.000 A 
ATOM     27  C   UNL     1      -2.991   9.787  17.361  0.00  0.00    +0.000 A 
ATOM     28  C   UNL     1      -3.733  10.723  18.082  0.00  0.00    +0.000 A 
ATOM     29  C   UNL     1      -3.087  11.731  18.803  0.00  0.00    +0.000 A 
ENDBRANCH   6  24
BRANCH   7  30
ATOM     30  C   UNL     1      -0.133  11.411  21.361  0.00  0.00    +0.000 A 
ATOM     31  C   UNL     1      -0.967  10.842  22.371  0.00  0.00    +0.000 A 
ATOM     32  C   UNL     1      -0.512   9.607  22.782  0.00  0.00    +0.000 A 
ATOM     33  S   UNL     1       0.921   9.146  21.969  0.00  0.00    +0.000 S 
ATOM     34  C   UNL     1       0.939  10.599  21.063  0.00  0.00    +0.000 A 
ENDBRANCH   7  30
TORSDOF 7
ENDMDL
MODEL 4
REMARK VINA RESULT:      -6.3      3.704      7.062
REMARK  Name = 
REMARK  8 active torsions:
REMARK  status: ('A' for Active; 'I' for Inactive)
REMARK    1  A    between atoms: C_1  and  C_2
REMARK    2  A    between atoms: C_2  and  O_3
REMARK    3  A    between atoms: O_3  and  C_4
REMARK    4  A    between atoms: C_6  and  C_7
REMARK    5  A    between atoms: C_12  and  C_13
REMARK    6  A    between atoms: C_19  and  C_20
REMARK    7  A    between atoms: C_26  and  N_27
REMARK    8  A    between atoms: C_30  and  O_31
REMARK                            x       y       z     vdW  Elec       q    Type
REMARK                         _______ _______ _______ _____ _____    ______ ____
ROOT
ATOM      1  C   UNL     1      -1.548  12.740  18.972  0.00  0.00    +0.000 C 
ATOM      2  N   UNL     1      -2.570  12.223  18.087  0.00  0.00    +0.000 N 
ATOM      3  C   UNL     1      -2.729  10.891  17.852  0.00  0.00    +0.000 C 
ATOM      4  O   UNL     1      -3.763  10.444  17.372  0.00  0.00    +0.000 OA
ATOM      5  N   UNL     1      -1.654  10.103  18.148  0.00  0.00    +0.000 N 
ATOM      6  C   UNL     1      -0.424  10.580  18.533  0.00  0.00    +0.000 C 
ATOM      7  C   UNL     1      -0.292  11.887  18.844  0.00  0.00    +0.000 C 
ATOM      8  H   UNL     1      -3.389  12.783  17.896  0.00  0.00    +0.000 HD
ATOM      9  H   UNL     1      -1.764   9.117  17.937  0.00  0.00    +0.000 HD
ENDROOT
BRANCH   1  12
ATOM     10  C   UNL     1      -2.057  12.020  22.737  0.00  0.00    +0.000 A 
ATOM     11  C   UNL     1      -1.541  12.003  21.425  0.00  0.00    +0.000 A 
ATOM     12  C   UNL     1      -2.085  12.797  20.409  0.00  0.00    +0.000 A 
ATOM     13  C   UNL     1      -3.140  13.654  20.760  0.00  0.00    +0.000 A 
ATOM     14  C   UNL     1      -3.703  13.644  22.042  0.00  0.00    +0.000 A 
ATOM     15  C   UNL     1      -3.172  12.820  23.048  0.00  0.00    +0.000 A 
BRANCH  14  16
ATOM     16  N   UNL     1      -4.883  14.491  22.267  0.00  0.00    +0.000 N 
ATOM     17  O   UNL     1      -4.801  15.406  23.098  0.00  0.00    +0.000 OA
ATOM     18  O   UNL     1      -5.896  14.248  21.593  0.00  0.00    +0.000 OA
ENDBRANCH  14  16
BRANCH  15  19
ATOM     19  O   UNL     1      -3.718  12.736  24.302  0.00  0.00    +0.000 OA
ATOM     20  H   UNL     1      -3.021  12.578  24.972  0.00  0.00    +0.000 HD
ENDBRANCH  15  19
BRANCH  10  21
ATOM     21  O   UNL     1      -1.403  11.154  23.572  0.00  0.00    +0.000 OA
BRANCH  21  23
ATOM     22  C   UNL     1       0.362   9.562  23.489  0.00  0.00    +0.000 C 
ATOM     23  C   UNL     1      -1.073   9.856  23.074  0.00  0.00    +0.000 C 
ENDBRANCH  21  23
ENDBRANCH  10  21
ENDBRANCH   1  12
BRANCH   6  24
ATOM     24  C   UNL     1       0.656   9.594  18.680  0.00  0.00    +0.000 A 
ATOM     25  C   UNL     1       1.482   9.293  17.585  0.00  0.00    +0.000 A 
ATOM     26  C   UNL     1       2.499   8.345  17.702  0.00  0.00    +0.000 A 
ATOM     27  C   UNL     1       2.705   7.699  18.919  0.00  0.00    +0.000 A 
ATOM     28  C   UNL     1       1.895   8.000  20.014  0.00  0.00    +0.000 A 
ATOM     29  C   UNL     1       0.873   8.946  19.898  0.00  0.00    +0.000 A 
ENDBRANCH   6  24
BRANCH   7  30
ATOM     30  C   UNL     1       0.930  12.562  19.176  0.00  0.00    +0.000 A 
ATOM     31  C   UNL     1       1.494  12.606  20.488  0.00  0.00    +0.000 A 
ATOM     32  C   UNL     1       2.687  13.296  20.515  0.00  0.00    +0.000 A 
ATOM     33  S   UNL     1       3.114  13.905  18.975  0.00  0.00    +0.000 S 
ATOM     34  C   UNL     1       1.703  13.245  18.263  0.00  0.00    +0.000 A 
ENDBRANCH   7  30
TORSDOF 7
ENDMDL
MODEL 5
REMARK VINA RESULT:      -6.3      4.743      7.507
REMARK  Name = 
REMARK  8 active torsions:
REMARK  status: ('A' for Active; 'I' for Inactive)
REMARK    1  A    between atoms: C_1  and  C_2
REMARK    2  A    between atoms: C_2  and  O_3
REMARK    3  A    between atoms: O_3  and  C_4
REMARK    4  A    between atoms: C_6  and  C_7
REMARK    5  A    between atoms: C_12  and  C_13
REMARK    6  A    between atoms: C_19  and  C_20
REMARK    7  A    between atoms: C_26  and  N_27
REMARK    8  A    between atoms: C_30  and  O_31
REMARK                            x       y       z     vdW  Elec       q    Type
REMARK                         _______ _______ _______ _____ _____    ______ ____
ROOT
ATOM      1  C   UNL     1      -0.015  13.941  21.544  0.00  0.00    +0.000 C 
ATOM      2  N   UNL     1       0.280  15.040  20.651  0.00  0.00    +0.000 N 
ATOM      3  C   UNL     1      -0.404  15.245  19.490  0.00  0.00    +0.000 C 
ATOM      4  O   UNL     1      -0.373  16.323  18.910  0.00  0.00    +0.000 OA
ATOM      5  N   UNL     1      -1.085  14.167  19.005  0.00  0.00    +0.000 N 
ATOM      6  C   UNL     1      -1.014  12.900  19.535  0.00  0.00    +0.000 C 
ATOM      7  C   UNL     1      -0.406  12.717  20.726  0.00  0.00    +0.000 C 
ATOM      8  H   UNL     1       0.747  15.860  21.011  0.00  0.00    +0.000 HD
ATOM      9  H   UNL     1      -1.563  14.313  18.123  0.00  0.00    +0.000 HD
ENDROOT
BRANCH   1  12
ATOM     10  C   UNL     1      -3.466  14.569  23.173  0.00  0.00    +0.000 A 
ATOM     11  C   UNL     1      -2.461  14.146  22.279  0.00  0.00    +0.000 A 
ATOM     12  C   UNL     1      -1.103  14.362  22.543  0.00  0.00    +0.000 A 
ATOM     13  C   UNL     1      -0.777  14.974  23.763  0.00  0.00    +0.000 A 
ATOM     14  C   UNL     1      -1.761  15.450  24.637  0.00  0.00    +0.000 A 
ATOM     15  C   UNL     1      -3.123  15.259  24.349  0.00  0.00    +0.000 A 
BRANCH  14  16
ATOM     16  N   UNL     1      -1.309  16.185  25.827  0.00  0.00    +0.000 N 
ATOM     17  O   UNL     1      -1.861  17.261  26.099  0.00  0.00    +0.000 OA
ATOM     18  O   UNL     1      -0.406  15.671  26.506  0.00  0.00    +0.000 OA
ENDBRANCH  14  16
BRANCH  15  19
ATOM     19  O   UNL     1      -4.124  15.751  25.145  0.00  0.00    +0.000 OA
ATOM     20  H   UNL     1      -3.801  16.509  25.676  0.00  0.00    +0.000 HD
ENDBRANCH  15  19
BRANCH  10  21
ATOM     21  O   UNL     1      -4.727  14.287  22.718  0.00  0.00    +0.000 OA
BRANCH  21  23
ATOM     22  C   UNL     1      -6.675  13.477  23.815  0.00  0.00    +0.000 C 
ATOM     23  C   UNL     1      -5.354  13.085  23.167  0.00  0.00    +0.000 C 
ENDBRANCH  21  23
ENDBRANCH  10  21
ENDBRANCH   1  12
BRANCH   6  24
ATOM     24  C   UNL     1      -1.710  11.832  18.802  0.00  0.00    +0.000 A 
ATOM     25  C   UNL     1      -3.112  11.771  18.820  0.00  0.00    +0.000 A 
ATOM     26  C   UNL     1      -3.787  10.753  18.146  0.00  0.00    +0.000 A 
ATOM     27  C   UNL     1      -3.064   9.794  17.441  0.00  0.00    +0.000 A 
ATOM     28  C   UNL     1      -1.671   9.853  17.410  0.00  0.00    +0.000 A 
ATOM     29  C   UNL     1      -0.993  10.869  18.088  0.00  0.00    +0.000 A 
ENDBRANCH   6  24
BRANCH   7  30
ATOM     30  C   UNL     1      -0.168  11.459  21.375  0.00  0.00    +0.000 A 
ATOM     31  C   UNL     1      -1.008  10.906  22.389  0.00  0.00    +0.000 A 
ATOM     32  C   UNL     1      -0.561   9.673  22.815  0.00  0.00    +0.000 A 
ATOM     33  S   UNL     1       0.871   9.195  22.011  0.00  0.00    +0.000 S 
ATOM     34  C   UNL     1       0.900  10.638  21.089  0.00  0.00    +0.000 A 
ENDBRANCH   7  30
TORSDOF 7
ENDMDL
MODEL 6
REMARK VINA RESULT:      -6.2      3.733      7.051
REMARK  Name = 
REMARK  8 active torsions:
REMARK  status: ('A' for Active; 'I' for Inactive)
REMARK    1  A    between atoms: C_1  and  C_2
REMARK    2  A    between atoms: C_2  and  O_3
REMARK    3  A    between atoms: O_3  and  C_4
REMARK    4  A    between atoms: C_6  and  C_7
REMARK    5  A    between atoms: C_12  and  C_13
REMARK    6  A    between atoms: C_19  and  C_20
REMARK    7  A    between atoms: C_26  and  N_27
REMARK    8  A    between atoms: C_30  and  O_31
REMARK                            x       y       z     vdW  Elec       q    Type
REMARK                         _______ _______ _______ _____ _____    ______ ____
ROOT
ATOM      1  C   UNL     1      -1.623  12.793  18.893  0.00  0.00    +0.000 C 
ATOM      2  N   UNL     1      -2.627  12.276  17.987  0.00  0.00    +0.000 N 
ATOM      3  C   UNL     1      -2.792  10.943  17.760  0.00  0.00    +0.000 C 
ATOM      4  O   UNL     1      -3.818  10.500  17.259  0.00  0.00    +0.000 OA
ATOM      5  N   UNL     1      -1.732  10.149  18.091  0.00  0.00    +0.000 N 
ATOM      6  C   UNL     1      -0.508  10.619  18.503  0.00  0.00    +0.000 C 
ATOM      7  C   UNL     1      -0.372  11.928  18.805  0.00  0.00    +0.000 C 
ATOM      8  H   UNL     1      -3.436  12.841  17.770  0.00  0.00    +0.000 HD
ATOM      9  H   UNL     1      -1.846   9.162  17.887  0.00  0.00    +0.000 HD
ENDROOT
BRANCH   1  12
ATOM     10  C   UNL     1      -2.330  12.026  22.617  0.00  0.00    +0.000 A 
ATOM     11  C   UNL     1      -1.777  11.989  21.320  0.00  0.00    +0.000 A 
ATOM     12  C   UNL     1      -2.196  12.868  20.315  0.00  0.00    +0.000 A 
ATOM     13  C   UNL     1      -3.160  13.827  20.664  0.00  0.00    +0.000 A 
ATOM     14  C   UNL     1      -3.762  13.844  21.928  0.00  0.00    +0.000 A 
ATOM     15  C   UNL     1      -3.358  12.936  22.922  0.00  0.00    +0.000 A 
BRANCH  14  16
ATOM     16  N   UNL     1      -4.847  14.811  22.147  0.00  0.00    +0.000 N 
ATOM     17  O   UNL     1      -5.898  14.409  22.666  0.00  0.00    +0.000 OA
ATOM     18  O   UNL     1      -4.639  15.988  21.812  0.00  0.00    +0.000 OA
ENDBRANCH  14  16
BRANCH  15  19
ATOM     19  O   UNL     1      -3.951  12.878  24.156  0.00  0.00    +0.000 OA
ATOM     20  H   UNL     1      -4.363  13.738  24.381  0.00  0.00    +0.000 HD
ENDBRANCH  15  19
BRANCH  10  21
ATOM     21  O   UNL     1      -1.803  11.068  23.442  0.00  0.00    +0.000 OA
BRANCH  21  23
ATOM     22  C   UNL     1      -0.636   9.026  23.098  0.00  0.00    +0.000 C 
ATOM     23  C   UNL     1      -0.513  10.543  23.128  0.00  0.00    +0.000 C 
ENDBRANCH  21  23
ENDBRANCH  10  21
ENDBRANCH   1  12
BRANCH   6  24
ATOM     24  C   UNL     1       0.559   9.625  18.687  0.00  0.00    +0.000 A 
ATOM     25  C   UNL     1       0.744   9.022  19.942  0.00  0.00    +0.000 A 
ATOM     26  C   UNL     1       1.764   8.092  20.139  0.00  0.00    +0.000 A 
ATOM     27  C   UNL     1       2.601   7.749  19.080  0.00  0.00    +0.000 A 
ATOM     28  C   UNL     1       2.418   8.336  17.827  0.00  0.00    +0.000 A 
ATOM     29  C   UNL     1       1.400   9.273  17.629  0.00  0.00    +0.000 A 
ENDBRANCH   6  24
BRANCH   7  30
ATOM     30  C   UNL     1       0.847  12.596  19.163  0.00  0.00    +0.000 A 
ATOM     31  C   UNL     1       1.373  12.654  20.489  0.00  0.00    +0.000 A 
ATOM     32  C   UNL     1       2.572  13.332  20.541  0.00  0.00    +0.000 A 
ATOM     33  S   UNL     1       3.049  13.913  19.004  0.00  0.00    +0.000 S 
ATOM     34  C   UNL     1       1.652  13.257  18.262  0.00  0.00    +0.000 A 
ENDBRANCH   7  30
TORSDOF 7
ENDMDL
MODEL 7
REMARK VINA RESULT:      -6.2      4.572      7.085
REMARK  Name = 
REMARK  8 active torsions:
REMARK  status: ('A' for Active; 'I' for Inactive)
REMARK    1  A    between atoms: C_1  and  C_2
REMARK    2  A    between atoms: C_2  and  O_3
REMARK    3  A    between atoms: O_3  and  C_4
REMARK    4  A    between atoms: C_6  and  C_7
REMARK    5  A    between atoms: C_12  and  C_13
REMARK    6  A    between atoms: C_19  and  C_20
REMARK    7  A    between atoms: C_26  and  N_27
REMARK    8  A    between atoms: C_30  and  O_31
REMARK                            x       y       z     vdW  Elec       q    Type
REMARK                         _______ _______ _______ _____ _____    ______ ____
ROOT
ATOM      1  C   UNL     1       0.095  13.638  21.488  0.00  0.00    +0.000 C 
ATOM      2  N   UNL     1       0.347  14.791  20.651  0.00  0.00    +0.000 N 
ATOM      3  C   UNL     1      -0.387  15.061  19.536  0.00  0.00    +0.000 C 
ATOM      4  O   UNL     1      -0.386  16.172  19.021  0.00  0.00    +0.000 OA
ATOM      5  N   UNL     1      -1.084  14.010  19.015  0.00  0.00    +0.000 N 
ATOM      6  C   UNL     1      -0.986  12.714  19.463  0.00  0.00    +0.000 C 
ATOM      7  C   UNL     1      -0.326  12.463  20.614  0.00  0.00    +0.000 C 
ATOM      8  H   UNL     1       0.826  15.591  21.041  0.00  0.00    +0.000 HD
ATOM      9  H   UNL     1      -1.601  14.206  18.165  0.00  0.00    +0.000 HD
ENDROOT
BRANCH   1  12
ATOM     10  C   UNL     1      -1.666  15.308  24.499  0.00  0.00    +0.000 A 
ATOM     11  C   UNL     1      -0.728  15.009  23.490  0.00  0.00    +0.000 A 
ATOM     12  C   UNL     1      -0.950  13.990  22.556  0.00  0.00    +0.000 A 
ATOM     13  C   UNL     1      -2.174  13.306  22.633  0.00  0.00    +0.000 A 
ATOM     14  C   UNL     1      -3.093  13.550  23.661  0.00  0.00    +0.000 A 
ATOM     15  C   UNL     1      -2.846  14.553  24.615  0.00  0.00    +0.000 A 
BRANCH  14  16
ATOM     16  N   UNL     1      -4.285  12.692  23.719  0.00  0.00    +0.000 N 
ATOM     17  O   UNL     1      -5.002  12.612  22.712  0.00  0.00    +0.000 OA
ATOM     18  O   UNL     1      -4.494  12.079  24.777  0.00  0.00    +0.000 OA
ENDBRANCH  14  16
BRANCH  15  19
ATOM     19  O   UNL     1      -3.688  14.795  25.668  0.00  0.00    +0.000 OA
ATOM     20  H   UNL     1      -4.377  15.445  25.416  0.00  0.00    +0.000 HD
ENDBRANCH  15  19
BRANCH  10  21
ATOM     21  O   UNL     1      -1.247  16.318  25.324  0.00  0.00    +0.000 OA
BRANCH  21  23
ATOM     22  C   UNL     1       0.541  16.902  26.778  0.00  0.00    +0.000 C 
ATOM     23  C   UNL     1      -0.640  15.966  26.569  0.00  0.00    +0.000 C 
ENDBRANCH  21  23
ENDBRANCH  10  21
ENDBRANCH   1  12
BRANCH   6  24
ATOM     24  C   UNL     1      -1.708  11.688  18.697  0.00  0.00    +0.000 A 
ATOM     25  C   UNL     1      -0.991  10.752  17.934  0.00  0.00    +0.000 A 
ATOM     26  C   UNL     1      -1.662   9.784  17.186  0.00  0.00    +0.000 A 
ATOM     27  C   UNL     1      -3.054   9.738  17.204  0.00  0.00    +0.000 A 
ATOM     28  C   UNL     1      -3.773  10.657  17.968  0.00  0.00    +0.000 A 
ATOM     29  C   UNL     1      -3.103  11.631  18.714  0.00  0.00    +0.000 A 
ENDBRANCH   6  24
BRANCH   7  30
ATOM     30  C   UNL     1      -0.056  11.170  21.174  0.00  0.00    +0.000 A 
ATOM     31  C   UNL     1      -0.895  10.514  22.127  0.00  0.00    +0.000 A 
ATOM     32  C   UNL     1      -0.412   9.270  22.471  0.00  0.00    +0.000 A 
ATOM     33  S   UNL     1       1.053   8.902  21.666  0.00  0.00    +0.000 S 
ATOM     34  C   UNL     1       1.047  10.409  20.853  0.00  0.00    +0.000 A 
ENDBRANCH   7  30
TORSDOF 7
ENDMDL
MODEL 8
REMARK VINA RESULT:      -6.2      3.924      7.222
REMARK  Name = 
REMARK  8 active torsions:
REMARK  status: ('A' for Active; 'I' for Inactive)
REMARK    1  A    between atoms: C_1  and  C_2
REMARK    2  A    between atoms: C_2  and  O_3
REMARK    3  A    between atoms: O_3  and  C_4
REMARK    4  A    between atoms: C_6  and  C_7
REMARK    5  A    between atoms: C_12  and  C_13
REMARK    6  A    between atoms: C_19  and  C_20
REMARK    7  A    between atoms: C_26  and  N_27
REMARK    8  A    between atoms: C_30  and  O_31
REMARK                            x       y       z     vdW  Elec       q    Type
REMARK                         _______ _______ _______ _____ _____    ______ ____
ROOT
ATOM      1  C   UNL     1      -1.601  12.873  18.869  0.00  0.00    +0.000 C 
ATOM      2  N   UNL     1      -2.608  12.308  17.997  0.00  0.00    +0.000 N 
ATOM      3  C   UNL     1      -2.824  10.966  17.900  0.00  0.00    +0.000 C 
ATOM      4  O   UNL     1      -3.857  10.516  17.422  0.00  0.00    +0.000 OA
ATOM      5  N   UNL     1      -1.805  10.168  18.333  0.00  0.00    +0.000 N 
ATOM      6  C   UNL     1      -0.570  10.628  18.725  0.00  0.00    +0.000 C 
ATOM      7  C   UNL     1      -0.386  11.954  18.898  0.00  0.00    +0.000 C 
ATOM      8  H   UNL     1      -3.388  12.880  17.705  0.00  0.00    +0.000 HD
ATOM      9  H   UNL     1      -1.956   9.171  18.227  0.00  0.00    +0.000 HD
ENDROOT
BRANCH   1  12
ATOM     10  C   UNL     1      -4.023  12.859  21.884  0.00  0.00    +0.000 A 
ATOM     11  C   UNL     1      -3.451  12.604  20.620  0.00  0.00    +0.000 A 
ATOM     12  C   UNL     1      -2.197  13.114  20.263  0.00  0.00    +0.000 A 
ATOM     13  C   UNL     1      -1.505  13.852  21.236  0.00  0.00    +0.000 A 
ATOM     14  C   UNL     1      -2.078  14.161  22.475  0.00  0.00    +0.000 A 
ATOM     15  C   UNL     1      -3.351  13.673  22.813  0.00  0.00    +0.000 A 
BRANCH  14  16
ATOM     16  N   UNL     1      -1.316  15.043  23.370  0.00  0.00    +0.000 N 
ATOM     17  O   UNL     1      -1.021  14.625  24.498  0.00  0.00    +0.000 OA
ATOM     18  O   UNL     1      -0.994  16.159  22.932  0.00  0.00    +0.000 OA
ENDBRANCH  14  16
BRANCH  15  19
ATOM     19  O   UNL     1      -3.977  13.991  23.990  0.00  0.00    +0.000 OA
ATOM     20  H   UNL     1      -4.547  14.779  23.875  0.00  0.00    +0.000 HD
ENDBRANCH  15  19
BRANCH  10  21
ATOM     21  O   UNL     1      -5.262  12.293  22.025  0.00  0.00    +0.000 OA
BRANCH  21  23
ATOM     22  C   UNL     1      -7.167  11.431  20.892  0.00  0.00    +0.000 C 
ATOM     23  C   UNL     1      -6.278  12.652  21.087  0.00  0.00    +0.000 C 
ENDBRANCH  21  23
ENDBRANCH  10  21
ENDBRANCH   1  12
BRANCH   6  24
ATOM     24  C   UNL     1       0.451   9.616  19.032  0.00  0.00    +0.000 A 
ATOM     25  C   UNL     1       1.312   9.162  18.020  0.00  0.00    +0.000 A 
ATOM     26  C   UNL     1       2.273   8.188  18.291  0.00  0.00    +0.000 A 
ATOM     27  C   UNL     1       2.387   7.668  19.578  0.00  0.00    +0.000 A 
ATOM     28  C   UNL     1       1.542   8.121  20.591  0.00  0.00    +0.000 A 
ATOM     29  C   UNL     1       0.575   9.094  20.321  0.00  0.00    +0.000 A 
ENDBRANCH   6  24
BRANCH   7  30
ATOM     30  C   UNL     1       0.853  12.606  19.215  0.00  0.00    +0.000 A 
ATOM     31  C   UNL     1       1.444  12.622  20.515  0.00  0.00    +0.000 A 
ATOM     32  C   UNL     1       2.647  13.293  20.528  0.00  0.00    +0.000 A 
ATOM     33  S   UNL     1       3.054  13.916  18.988  0.00  0.00    +0.000 S 
ATOM     34  C   UNL     1       1.618  13.290  18.296  0.00  0.00    +0.000 A 
ENDBRANCH   7  30
TORSDOF 7
ENDMDL
MODEL 9
REMARK VINA RESULT:      -6.2      3.766      7.069
REMARK  Name = 
REMARK  8 active torsions:
REMARK  status: ('A' for Active; 'I' for Inactive)
REMARK    1  A    between atoms: C_1  and  C_2
REMARK    2  A    between atoms: C_2  and  O_3
REMARK    3  A    between atoms: O_3  and  C_4
REMARK    4  A    between atoms: C_6  and  C_7
REMARK    5  A    between atoms: C_12  and  C_13
REMARK    6  A    between atoms: C_19  and  C_20
REMARK    7  A    between atoms: C_26  and  N_27
REMARK    8  A    between atoms: C_30  and  O_31
REMARK                            x       y       z     vdW  Elec       q    Type
REMARK                         _______ _______ _______ _____ _____    ______ ____
ROOT
ATOM      1  C   UNL     1      -1.713  12.404  18.305  0.00  0.00    +0.000 C 
ATOM      2  N   UNL     1      -2.449  11.837  17.194  0.00  0.00    +0.000 N 
ATOM      3  C   UNL     1      -2.477  10.499  16.942  0.00  0.00    +0.000 C 
ATOM      4  O   UNL     1      -3.331  10.001  16.219  0.00  0.00    +0.000 OA
ATOM      5  N   UNL     1      -1.478   9.765  17.512  0.00  0.00    +0.000 N 
ATOM      6  C   UNL     1      -0.411  10.303  18.194  0.00  0.00    +0.000 C 
ATOM      7  C   UNL     1      -0.427  11.615  18.513  0.00  0.00    +0.000 C 
ATOM      8  H   UNL     1      -3.217  12.356  16.793  0.00  0.00    +0.000 HD
ATOM      9  H   UNL     1      -1.482   8.776  17.293  0.00  0.00    +0.000 HD
ENDROOT
BRANCH   1  12
ATOM     10  C   UNL     1      -4.822  12.448  20.605  0.00  0.00    +0.000 A 
ATOM     11  C   UNL     1      -3.998  12.379  19.462  0.00  0.00    +0.000 A 
ATOM     12  C   UNL     1      -2.603  12.433  19.556  0.00  0.00    +0.000 A 
ATOM     13  C   UNL     1      -2.049  12.509  20.843  0.00  0.00    +0.000 A 
ATOM     14  C   UNL     1      -2.850  12.634  21.985  0.00  0.00    +0.000 A 
ATOM     15  C   UNL     1      -4.250  12.613  21.880  0.00  0.00    +0.000 A 
BRANCH  14  16
ATOM     16  N   UNL     1      -2.165  12.831  23.271  0.00  0.00    +0.000 N 
ATOM     17  O   UNL     1      -2.692  13.575  24.110  0.00  0.00    +0.000 OA
ATOM     18  O   UNL     1      -1.099  12.221  23.449  0.00  0.00    +0.000 OA
ENDBRANCH  14  16
BRANCH  15  19
ATOM     19  O   UNL     1      -5.077  12.784  22.959  0.00  0.00    +0.000 OA
ATOM     20  H   UNL     1      -5.034  13.708  23.283  0.00  0.00    +0.000 HD
ENDBRANCH  15  19
BRANCH  10  21
ATOM     21  O   UNL     1      -6.155  12.405  20.297  0.00  0.00    +0.000 OA
BRANCH  21  23
ATOM     22  C   UNL     1      -7.387  10.371  20.307  0.00  0.00    +0.000 C 
ATOM     23  C   UNL     1      -6.617  11.359  19.441  0.00  0.00    +0.000 C 
ENDBRANCH  21  23
ENDBRANCH  10  21
ENDBRANCH   1  12
BRANCH   6  24
ATOM     24  C   UNL     1       0.642   9.372  18.624  0.00  0.00    +0.000 A 
ATOM     25  C   UNL     1       1.625   8.959  17.711  0.00  0.00    +0.000 A 
ATOM     26  C   UNL     1       2.620   8.060  18.098  0.00  0.00    +0.000 A 
ATOM     27  C   UNL     1       2.644   7.576  19.404  0.00  0.00    +0.000 A 
ATOM     28  C   UNL     1       1.676   7.990  20.320  0.00  0.00    +0.000 A 
ATOM     29  C   UNL     1       0.676   8.886  19.933  0.00  0.00    +0.000 A 
ENDBRANCH   6  24
BRANCH   7  30
ATOM     30  C   UNL     1       0.635  12.350  19.139  0.00  0.00    +0.000 A 
ATOM     31  C   UNL     1       0.984  12.240  20.519  0.00  0.00    +0.000 A 
ATOM     32  C   UNL     1       2.061  13.035  20.845  0.00  0.00    +0.000 A 
ATOM     33  S   UNL     1       2.635  13.924  19.501  0.00  0.00    +0.000 S 
ATOM     34  C   UNL     1       1.443  13.246  18.475  0.00  0.00    +0.000 A 
ENDBRANCH   7  30
TORSDOF 7
ENDMDL
