MODEL 1
REMARK VINA RESULT:      -7.0      0.000      0.000
REMARK  Name = 
REMARK  7 active torsions:
REMARK  status: ('A' for Active; 'I' for Inactive)
REMARK    1  A    between atoms: C_5  and  O_6
REMARK    2  A    between atoms: O_6  and  C_7
REMARK    3  A    between atoms: C_7  and  C_8
REMARK    4  A    between atoms: C_8  and  C_9
REMARK    5  A    between atoms: C_9  and  C_10
REMARK    6  A    between atoms: C_10  and  C_11
REMARK    7  A    between atoms: C_11  and  N_12
REMARK                            x       y       z     vdW  Elec       q    Type
REMARK                         _______ _______ _______ _____ _____    ______ ____
ROOT
ATOM      1  C   UNL     1       7.557   6.281  17.911  0.00  0.00    +0.000 C 
ENDROOT
BRANCH   1   2
ATOM      2  C   UNL     1       6.695   5.873  16.705  0.00  0.00    +0.000 C 
BRANCH   2   3
ATOM      3  O   UNL     1       7.508   5.792  15.540  0.00  0.00    +0.000 OA
BRANCH   3   8
ATOM      4 CL   UNL     1       5.006   2.613  11.282  0.00  0.00    +0.000 Cl
ATOM      5  C   UNL     1       5.816   3.477  12.530  0.00  0.00    +0.000 A 
ATOM      6  C   UNL     1       5.266   3.532  13.805  0.00  0.00    +0.000 A 
ATOM      7  C   UNL     1       5.893   4.290  14.795  0.00  0.00    +0.000 A 
ATOM      8  C   UNL     1       7.070   4.992  14.519  0.00  0.00    +0.000 A 
ATOM      9  C   UNL     1       7.637   4.906  13.247  0.00  0.00    +0.000 A 
ATOM     10  C   UNL     1       7.008   4.145  12.250  0.00  0.00    +0.000 A 
ENDBRANCH   3   8
ENDBRANCH   2   3
ENDBRANCH   1   2
BRANCH   1  11
ATOM     11  C   UNL     1       7.128   5.589  19.207  0.00  0.00    +0.000 C 
BRANCH  11  12
ATOM     12  C   UNL     1       5.835   4.804  19.018  0.00  0.00    +0.000 C 
BRANCH  12  13
ATOM     13  C   UNL     1       4.564   5.609  19.385  0.00  0.00    +0.000 C 
BRANCH  13  14
ATOM     14  N   UNL     1       3.290   4.854  19.344  0.00  0.00    +0.000 NA
ATOM     15  C   UNL     1       3.273   3.859  18.271  0.00  0.00    +0.000 C 
ATOM     16  C   UNL     1       1.860   3.655  17.715  0.00  0.00    +0.000 C 
ATOM     17  C   UNL     1       0.945   2.783  18.561  0.00  0.00    +0.000 C 
ATOM     18  C   UNL     1       0.750   3.277  19.990  0.00  0.00    +0.000 C 
ATOM     19  C   UNL     1       2.022   3.138  20.817  0.00  0.00    +0.000 C 
ATOM     20  C   UNL     1       3.008   4.309  20.679  0.00  0.00    +0.000 C 
ENDBRANCH  13  14
ENDBRANCH  12  13
ENDBRANCH  11  12
ENDBRANCH   1  11
TORSDOF 7
ENDMDL
MODEL 2
REMARK VINA RESULT:      -6.7      0.994      1.656
REMARK  Name = 
REMARK  7 active torsions:
REMARK  status: ('A' for Active; 'I' for Inactive)
REMARK    1  A    between atoms: C_5  and  O_6
REMARK    2  A    between atoms: O_6  and  C_7
REMARK    3  A    between atoms: C_7  and  C_8
REMARK    4  A    between atoms: C_8  and  C_9
REMARK    5  A    between atoms: C_9  and  C_10
REMARK    6  A    between atoms: C_10  and  C_11
REMARK    7  A    between atoms: C_11  and  N_12
REMARK                            x       y       z     vdW  Elec       q    Type
REMARK                         _______ _______ _______ _____ _____    ______ ____
ROOT
ATOM      1  C   UNL     1       6.039   6.919  16.784  0.00  0.00    +0.000 C 
ENDROOT
BRANCH   1   2
ATOM      2  C   UNL     1       6.989   5.718  16.660  0.00  0.00    +0.000 C 
BRANCH   2   3
ATOM      3  O   UNL     1       7.665   5.766  15.409  0.00  0.00    +0.000 OA
BRANCH   3   8
ATOM      4 CL   UNL     1       5.001   2.560  11.272  0.00  0.00    +0.000 Cl
ATOM      5  C   UNL     1       5.861   3.436  12.476  0.00  0.00    +0.000 A 
ATOM      6  C   UNL     1       5.412   3.431  13.791  0.00  0.00    +0.000 A 
ATOM      7  C   UNL     1       6.075   4.198  14.750  0.00  0.00    +0.000 A 
ATOM      8  C   UNL     1       7.189   4.969  14.403  0.00  0.00    +0.000 A 
ATOM      9  C   UNL     1       7.658   4.944  13.089  0.00  0.00    +0.000 A 
ATOM     10  C   UNL     1       6.991   4.174  12.122  0.00  0.00    +0.000 A 
ENDBRANCH   3   8
ENDBRANCH   2   3
ENDBRANCH   1   2
BRANCH   1  11
ATOM     11  C   UNL     1       4.584   6.502  17.014  0.00  0.00    +0.000 C 
BRANCH  11  12
ATOM     12  C   UNL     1       4.205   6.591  18.488  0.00  0.00    +0.000 C 
BRANCH  12  13
ATOM     13  C   UNL     1       4.555   5.315  19.293  0.00  0.00    +0.000 C 
BRANCH  13  14
ATOM     14  N   UNL     1       3.476   4.307  19.403  0.00  0.00    +0.000 NA
ATOM     15  C   UNL     1       2.149   4.923  19.466  0.00  0.00    +0.000 C 
ATOM     16  C   UNL     1       1.182   4.090  20.313  0.00  0.00    +0.000 C 
ATOM     17  C   UNL     1       0.599   2.866  19.624  0.00  0.00    +0.000 C 
ATOM     18  C   UNL     1       1.639   1.879  19.109  0.00  0.00    +0.000 C 
ATOM     19  C   UNL     1       2.427   2.444  17.934  0.00  0.00    +0.000 C 
ATOM     20  C   UNL     1       3.631   3.315  18.329  0.00  0.00    +0.000 C 
ENDBRANCH  13  14
ENDBRANCH  12  13
ENDBRANCH  11  12
ENDBRANCH   1  11
TORSDOF 7
ENDMDL
MODEL 3
REMARK VINA RESULT:      -6.7      0.774      1.498
REMARK  Name = 
REMARK  7 active torsions:
REMARK  status: ('A' for Active; 'I' for Inactive)
REMARK    1  A    between atoms: C_5  and  O_6
REMARK    2  A    between atoms: O_6  and  C_7
REMARK    3  A    between atoms: C_7  and  C_8
REMARK    4  A    between atoms: C_8  and  C_9
REMARK    5  A    between atoms: C_9  and  C_10
REMARK    6  A    between atoms: C_10  and  C_11
REMARK    7  A    between atoms: C_11  and  N_12
REMARK                            x       y       z     vdW  Elec       q    Type
REMARK                         _______ _______ _______ _____ _____    ______ ____
ROOT
ATOM      1  C   UNL     1       7.423   6.201  17.688  0.00  0.00    +0.000 C 
ENDROOT
BRANCH   1   2
ATOM      2  C   UNL     1       6.834   6.406  16.283  0.00  0.00    +0.000 C 
BRANCH   2   3
ATOM      3  O   UNL     1       7.720   5.871  15.307  0.00  0.00    +0.000 OA
BRANCH   3   8
ATOM      4 CL   UNL     1       4.824   2.654  11.338  0.00  0.00    +0.000 Cl
ATOM      5  C   UNL     1       5.745   3.525  12.501  0.00  0.00    +0.000 A 
ATOM      6  C   UNL     1       5.268   3.668  13.798  0.00  0.00    +0.000 A 
ATOM      7  C   UNL     1       5.987   4.433  14.717  0.00  0.00    +0.000 A 
ATOM      8  C   UNL     1       7.185   5.053  14.349  0.00  0.00    +0.000 A 
ATOM      9  C   UNL     1       7.678   4.878  13.056  0.00  0.00    +0.000 A 
ATOM     10  C   UNL     1       6.955   4.111  12.129  0.00  0.00    +0.000 A 
ENDBRANCH   3   8
ENDBRANCH   2   3
ENDBRANCH   1   2
BRANCH   1  11
ATOM     11  C   UNL     1       7.070   4.836  18.285  0.00  0.00    +0.000 C 
BRANCH  11  12
ATOM     12  C   UNL     1       5.697   4.856  18.947  0.00  0.00    +0.000 C 
BRANCH  12  13
ATOM     13  C   UNL     1       5.198   3.454  19.375  0.00  0.00    +0.000 C 
BRANCH  13  14
ATOM     14  N   UNL     1       3.739   3.332  19.599  0.00  0.00    +0.000 NA
ATOM     15  C   UNL     1       3.147   4.584  20.073  0.00  0.00    +0.000 C 
ATOM     16  C   UNL     1       1.956   4.327  21.002  0.00  0.00    +0.000 C 
ATOM     17  C   UNL     1       0.655   3.954  20.309  0.00  0.00    +0.000 C 
ATOM     18  C   UNL     1       0.747   2.721  19.419  0.00  0.00    +0.000 C 
ATOM     19  C   UNL     1       1.597   2.975  18.180  0.00  0.00    +0.000 C 
ATOM     20  C   UNL     1       3.108   2.784  18.389  0.00  0.00    +0.000 C 
ENDBRANCH  13  14
ENDBRANCH  12  13
ENDBRANCH  11  12
ENDBRANCH   1  11
TORSDOF 7
ENDMDL
MODEL 4
REMARK VINA RESULT:      -6.6      4.796      8.037
REMARK  Name = 
REMARK  7 active torsions:
REMARK  status: ('A' for Active; 'I' for Inactive)
REMARK    1  A    between atoms: C_5  and  O_6
REMARK    2  A    between atoms: O_6  and  C_7
REMARK    3  A    between atoms: C_7  and  C_8
REMARK    4  A    between atoms: C_8  and  C_9
REMARK    5  A    between atoms: C_9  and  C_10
REMARK    6  A    between atoms: C_10  and  C_11
REMARK    7  A    between atoms: C_11  and  N_12
REMARK                            x       y       z     vdW  Elec       q    Type
REMARK                         _______ _______ _______ _____ _____    ______ ____
ROOT
ATOM      1  C   UNL     1       7.205   6.324  17.885  0.00  0.00    +0.000 C 
ENDROOT
BRANCH   1   2
ATOM      2  C   UNL     1       5.956   6.887  17.188  0.00  0.00    +0.000 C 
BRANCH   2   3
ATOM      3  O   UNL     1       5.345   5.869  16.404  0.00  0.00    +0.000 OA
BRANCH   3   8
ATOM      4 CL   UNL     1       0.891   2.873  18.788  0.00  0.00    +0.000 Cl
ATOM      5  C   UNL     1       2.258   3.707  18.158  0.00  0.00    +0.000 A 
ATOM      6  C   UNL     1       2.350   5.088  18.292  0.00  0.00    +0.000 A 
ATOM      7  C   UNL     1       3.427   5.765  17.721  0.00  0.00    +0.000 A 
ATOM      8  C   UNL     1       4.417   5.072  17.017  0.00  0.00    +0.000 A 
ATOM      9  C   UNL     1       4.338   3.682  16.915  0.00  0.00    +0.000 A 
ATOM     10  C   UNL     1       3.254   2.998  17.488  0.00  0.00    +0.000 A 
ENDBRANCH   3   8
ENDBRANCH   2   3
ENDBRANCH   1   2
BRANCH   1  11
ATOM     11  C   UNL     1       8.100   7.420  18.471  0.00  0.00    +0.000 C 
BRANCH  11  12
ATOM     12  C   UNL     1       8.219   8.608  17.524  0.00  0.00    +0.000 C 
BRANCH  12  13
ATOM     13  C   UNL     1       8.106   9.979  18.235  0.00  0.00    +0.000 C 
BRANCH  13  14
ATOM     14  N   UNL     1       9.390  10.636  18.574  0.00  0.00    +0.000 NA
ATOM     15  C   UNL     1       9.584  11.882  17.832  0.00  0.00    +0.000 C 
ATOM     16  C   UNL     1      11.067  12.141  17.548  0.00  0.00    +0.000 C 
ATOM     17  C   UNL     1      11.870  12.692  18.716  0.00  0.00    +0.000 C 
ATOM     18  C   UNL     1      11.845  11.819  19.964  0.00  0.00    +0.000 C 
ATOM     19  C   UNL     1      10.470  11.806  20.621  0.00  0.00    +0.000 C 
ATOM     20  C   UNL     1       9.488  10.779  20.034  0.00  0.00    +0.000 C 
ENDBRANCH  13  14
ENDBRANCH  12  13
ENDBRANCH  11  12
ENDBRANCH   1  11
TORSDOF 7
ENDMDL
MODEL 5
REMARK VINA RESULT:      -6.6      0.692      1.343
REMARK  Name = 
REMARK  7 active torsions:
REMARK  status: ('A' for Active; 'I' for Inactive)
REMARK    1  A    between atoms: C_5  and  O_6
REMARK    2  A    between atoms: O_6  and  C_7
REMARK    3  A    between atoms: C_7  and  C_8
REMARK    4  A    between atoms: C_8  and  C_9
REMARK    5  A    between atoms: C_9  and  C_10
REMARK    6  A    between atoms: C_10  and  C_11
REMARK    7  A    between atoms: C_11  and  N_12
REMARK                            x       y       z     vdW  Elec       q    Type
REMARK                         _______ _______ _______ _____ _____    ______ ____
ROOT
ATOM      1  C   UNL     1       7.135   6.087  18.302  0.00  0.00    +0.000 C 
ENDROOT
BRANCH   1   2
ATOM      2  C   UNL     1       6.964   6.591  16.860  0.00  0.00    +0.000 C 
BRANCH   2   3
ATOM      3  O   UNL     1       7.694   5.756  15.970  0.00  0.00    +0.000 OA
BRANCH   3   8
ATOM      4 CL   UNL     1       5.257   2.667  11.610  0.00  0.00    +0.000 Cl
ATOM      5  C   UNL     1       5.890   3.634  12.883  0.00  0.00    +0.000 A 
ATOM      6  C   UNL     1       7.047   4.377  12.679  0.00  0.00    +0.000 A 
ATOM      7  C   UNL     1       7.593   5.107  13.736  0.00  0.00    +0.000 A 
ATOM      8  C   UNL     1       6.987   5.102  14.996  0.00  0.00    +0.000 A 
ATOM      9  C   UNL     1       5.807   4.382  15.187  0.00  0.00    +0.000 A 
ATOM     10  C   UNL     1       5.257   3.646  14.126  0.00  0.00    +0.000 A 
ENDBRANCH   3   8
ENDBRANCH   2   3
ENDBRANCH   1   2
BRANCH   1  11
ATOM     11  C   UNL     1       5.851   5.480  18.873  0.00  0.00    +0.000 C 
BRANCH  11  12
ATOM     12  C   UNL     1       4.617   5.993  18.140  0.00  0.00    +0.000 C 
BRANCH  12  13
ATOM     13  C   UNL     1       3.427   6.308  19.078  0.00  0.00    +0.000 C 
BRANCH  13  14
ATOM     14  N   UNL     1       2.468   5.200  19.295  0.00  0.00    +0.000 NA
ATOM     15  C   UNL     1       2.650   4.116  18.329  0.00  0.00    +0.000 C 
ATOM     16  C   UNL     1       1.325   3.417  18.011  0.00  0.00    +0.000 C 
ATOM     17  C   UNL     1       0.841   2.426  19.058  0.00  0.00    +0.000 C 
ATOM     18  C   UNL     1       0.662   3.018  20.450  0.00  0.00    +0.000 C 
ATOM     19  C   UNL     1       1.996   3.386  21.087  0.00  0.00    +0.000 C 
ATOM     20  C   UNL     1       2.530   4.775  20.701  0.00  0.00    +0.000 C 
ENDBRANCH  13  14
ENDBRANCH  12  13
ENDBRANCH  11  12
ENDBRANCH   1  11
TORSDOF 7
ENDMDL
MODEL 6
REMARK VINA RESULT:      -6.6      4.160      7.181
REMARK  Name = 
REMARK  7 active torsions:
REMARK  status: ('A' for Active; 'I' for Inactive)
REMARK    1  A    between atoms: C_5  and  O_6
REMARK    2  A    between atoms: O_6  and  C_7
REMARK    3  A    between atoms: C_7  and  C_8
REMARK    4  A    between atoms: C_8  and  C_9
REMARK    5  A    between atoms: C_9  and  C_10
REMARK    6  A    between atoms: C_10  and  C_11
REMARK    7  A    between atoms: C_11  and  N_12
REMARK                            x       y       z     vdW  Elec       q    Type
REMARK                         _______ _______ _______ _____ _____    ______ ____
ROOT
ATOM      1  C   UNL     1       1.720   4.161  20.272  0.00  0.00    +0.000 C 
ENDROOT
BRANCH   1   2
ATOM      2  C   UNL     1       1.854   5.625  20.721  0.00  0.00    +0.000 C 
BRANCH   2   3
ATOM      3  O   UNL     1       2.598   6.357  19.755  0.00  0.00    +0.000 OA
BRANCH   3   8
ATOM      4 CL   UNL     1       0.716  11.811  18.659  0.00  0.00    +0.000 Cl
ATOM      5  C   UNL     1       1.198  10.180  18.913  0.00  0.00    +0.000 A 
ATOM      6  C   UNL     1       0.967   9.572  20.141  0.00  0.00    +0.000 A 
ATOM      7  C   UNL     1       1.420   8.271  20.363  0.00  0.00    +0.000 A 
ATOM      8  C   UNL     1       2.102   7.571  19.363  0.00  0.00    +0.000 A 
ATOM      9  C   UNL     1       2.302   8.173  18.120  0.00  0.00    +0.000 A 
ATOM     10  C   UNL     1       1.848   9.482  17.895  0.00  0.00    +0.000 A 
ENDBRANCH   3   8
ENDBRANCH   2   3
ENDBRANCH   1   2
BRANCH   1  11
ATOM     11  C   UNL     1       1.583   4.017  18.755  0.00  0.00    +0.000 C 
BRANCH  11  12
ATOM     12  C   UNL     1       2.750   3.236  18.161  0.00  0.00    +0.000 C 
BRANCH  12  13
ATOM     13  C   UNL     1       3.443   3.961  16.982  0.00  0.00    +0.000 C 
BRANCH  13  14
ATOM     14  N   UNL     1       4.618   4.790  17.337  0.00  0.00    +0.000 NA
ATOM     15  C   UNL     1       5.387   4.211  18.441  0.00  0.00    +0.000 C 
ATOM     16  C   UNL     1       6.043   5.298  19.298  0.00  0.00    +0.000 C 
ATOM     17  C   UNL     1       7.308   5.913  18.718  0.00  0.00    +0.000 C 
ATOM     18  C   UNL     1       7.128   6.539  17.340  0.00  0.00    +0.000 C 
ATOM     19  C   UNL     1       6.875   5.487  16.267  0.00  0.00    +0.000 C 
ATOM     20  C   UNL     1       5.407   5.055  16.125  0.00  0.00    +0.000 C 
ENDBRANCH  13  14
ENDBRANCH  12  13
ENDBRANCH  11  12
ENDBRANCH   1  11
TORSDOF 7
ENDMDL
MODEL 7
REMARK VINA RESULT:      -6.6      5.311      7.087
REMARK  Name = 
REMARK  7 active torsions:
REMARK  status: ('A' for Active; 'I' for Inactive)
REMARK    1  A    between atoms: C_5  and  O_6
REMARK    2  A    between atoms: O_6  and  C_7
REMARK    3  A    between atoms: C_7  and  C_8
REMARK    4  A    between atoms: C_8  and  C_9
REMARK    5  A    between atoms: C_9  and  C_10
REMARK    6  A    between atoms: C_10  and  C_11
REMARK    7  A    between atoms: C_11  and  N_12
REMARK                            x       y       z     vdW  Elec       q    Type
REMARK                         _______ _______ _______ _____ _____    ______ ____
ROOT
ATOM      1  C   UNL     1       7.915   7.530  18.097  0.00  0.00    +0.000 C 
ENDROOT
BRANCH   1   2
ATOM      2  C   UNL     1       8.257   9.026  18.011  0.00  0.00    +0.000 C 
BRANCH   2   3
ATOM      3  O   UNL     1       8.962   9.425  19.180  0.00  0.00    +0.000 OA
BRANCH   3   8
ATOM      4 CL   UNL     1      12.100  14.376  19.550  0.00  0.00    +0.000 Cl
ATOM      5  C   UNL     1      11.107  12.980  19.397  0.00  0.00    +0.000 A 
ATOM      6  C   UNL     1      10.588  12.370  20.533  0.00  0.00    +0.000 A 
ATOM      7  C   UNL     1       9.839  11.200  20.406  0.00  0.00    +0.000 A 
ATOM      8  C   UNL     1       9.602  10.635  19.149  0.00  0.00    +0.000 A 
ATOM      9  C   UNL     1      10.095  11.270  18.009  0.00  0.00    +0.000 A 
ATOM     10  C   UNL     1      10.851  12.447  18.134  0.00  0.00    +0.000 A 
ENDBRANCH   3   8
ENDBRANCH   2   3
ENDBRANCH   1   2
BRANCH   1  11
ATOM     11  C   UNL     1       6.740   7.139  17.197  0.00  0.00    +0.000 C 
BRANCH  11  12
ATOM     12  C   UNL     1       6.830   5.680  16.766  0.00  0.00    +0.000 C 
BRANCH  12  13
ATOM     13  C   UNL     1       6.286   4.688  17.823  0.00  0.00    +0.000 C 
BRANCH  13  14
ATOM     14  N   UNL     1       4.816   4.682  18.003  0.00  0.00    +0.000 NA
ATOM     15  C   UNL     1       4.230   3.370  17.721  0.00  0.00    +0.000 C 
ATOM     16  C   UNL     1       2.815   3.498  17.148  0.00  0.00    +0.000 C 
ATOM     17  C   UNL     1       1.722   3.784  18.166  0.00  0.00    +0.000 C 
ATOM     18  C   UNL     1       1.942   5.050  18.986  0.00  0.00    +0.000 C 
ATOM     19  C   UNL     1       3.115   4.908  19.948  0.00  0.00    +0.000 C 
ATOM     20  C   UNL     1       4.490   5.215  19.334  0.00  0.00    +0.000 C 
ENDBRANCH  13  14
ENDBRANCH  12  13
ENDBRANCH  11  12
ENDBRANCH   1  11
TORSDOF 7
ENDMDL
MODEL 8
REMARK VINA RESULT:      -6.6      3.746      5.614
REMARK  Name = 
REMARK  7 active torsions:
REMARK  status: ('A' for Active; 'I' for Inactive)
REMARK    1  A    between atoms: C_5  and  O_6
REMARK    2  A    between atoms: O_6  and  C_7
REMARK    3  A    between atoms: C_7  and  C_8
REMARK    4  A    between atoms: C_8  and  C_9
REMARK    5  A    between atoms: C_9  and  C_10
REMARK    6  A    between atoms: C_10  and  C_11
REMARK    7  A    between atoms: C_11  and  N_12
REMARK                            x       y       z     vdW  Elec       q    Type
REMARK                         _______ _______ _______ _____ _____    ______ ____
ROOT
ATOM      1  C   UNL     1       1.724   2.799  19.514  0.00  0.00    +0.000 C 
ENDROOT
BRANCH   1   2
ATOM      2  C   UNL     1       2.245   2.525  18.094  0.00  0.00    +0.000 C 
BRANCH   2   3
ATOM      3  O   UNL     1       3.667   2.486  18.103  0.00  0.00    +0.000 OA
BRANCH   3   8
ATOM      4 CL   UNL     1       7.092   7.215  17.474  0.00  0.00    +0.000 Cl
ATOM      5  C   UNL     1       6.010   5.893  17.673  0.00  0.00    +0.000 A 
ATOM      6  C   UNL     1       6.128   5.061  18.780  0.00  0.00    +0.000 A 
ATOM      7  C   UNL     1       5.291   3.952  18.902  0.00  0.00    +0.000 A 
ATOM      8  C   UNL     1       4.332   3.669  17.923  0.00  0.00    +0.000 A 
ATOM      9  C   UNL     1       4.194   4.526  16.831  0.00  0.00    +0.000 A 
ATOM     10  C   UNL     1       5.037   5.642  16.706  0.00  0.00    +0.000 A 
ENDBRANCH   3   8
ENDBRANCH   2   3
ENDBRANCH   1   2
BRANCH   1  11
ATOM     11  C   UNL     1       1.152   4.210  19.672  0.00  0.00    +0.000 C 
BRANCH  11  12
ATOM     12  C   UNL     1       2.006   5.056  20.610  0.00  0.00    +0.000 C 
BRANCH  12  13
ATOM     13  C   UNL     1       2.723   6.232  19.901  0.00  0.00    +0.000 C 
BRANCH  13  14
ATOM     14  N   UNL     1       1.864   7.381  19.534  0.00  0.00    +0.000 NA
ATOM     15  C   UNL     1       1.718   8.334  20.635  0.00  0.00    +0.000 C 
ATOM     16  C   UNL     1       0.349   9.022  20.605  0.00  0.00    +0.000 C 
ATOM     17  C   UNL     1       0.205  10.147  19.591  0.00  0.00    +0.000 C 
ATOM     18  C   UNL     1       0.482   9.734  18.151  0.00  0.00    +0.000 C 
ATOM     19  C   UNL     1       1.954   9.413  17.924  0.00  0.00    +0.000 C 
ATOM     20  C   UNL     1       2.360   7.975  18.283  0.00  0.00    +0.000 C 
ENDBRANCH  13  14
ENDBRANCH  12  13
ENDBRANCH  11  12
ENDBRANCH   1  11
TORSDOF 7
ENDMDL
MODEL 9
REMARK VINA RESULT:      -6.6      5.154      6.888
REMARK  Name = 
REMARK  7 active torsions:
REMARK  status: ('A' for Active; 'I' for Inactive)
REMARK    1  A    between atoms: C_5  and  O_6
REMARK    2  A    between atoms: O_6  and  C_7
REMARK    3  A    between atoms: C_7  and  C_8
REMARK    4  A    between atoms: C_8  and  C_9
REMARK    5  A    between atoms: C_9  and  C_10
REMARK    6  A    between atoms: C_10  and  C_11
REMARK    7  A    between atoms: C_11  and  N_12
REMARK                            x       y       z     vdW  Elec       q    Type
REMARK                         _______ _______ _______ _____ _____    ______ ____
ROOT
ATOM      1  C   UNL     1       7.814   7.435  17.458  0.00  0.00    +0.000 C 
ENDROOT
BRANCH   1   2
ATOM      2  C   UNL     1       7.870   8.927  17.824  0.00  0.00    +0.000 C 
BRANCH   2   3
ATOM      3  O   UNL     1       8.788   9.125  18.892  0.00  0.00    +0.000 OA
BRANCH   3   8
ATOM      4 CL   UNL     1      11.549  14.198  19.961  0.00  0.00    +0.000 Cl
ATOM      5  C   UNL     1      10.663  12.766  19.608  0.00  0.00    +0.000 A 
ATOM      6  C   UNL     1      10.166  11.985  20.644  0.00  0.00    +0.000 A 
ATOM      7  C   UNL     1       9.507  10.790  20.353  0.00  0.00    +0.000 A 
ATOM      8  C   UNL     1       9.338  10.371  19.029  0.00  0.00    +0.000 A 
ATOM      9  C   UNL     1       9.809  11.176  17.991  0.00  0.00    +0.000 A 
ATOM     10  C   UNL     1      10.473  12.377  18.282  0.00  0.00    +0.000 A 
ENDBRANCH   3   8
ENDBRANCH   2   3
ENDBRANCH   1   2
BRANCH   1  11
ATOM     11  C   UNL     1       6.408   6.845  17.592  0.00  0.00    +0.000 C 
BRANCH  11  12
ATOM     12  C   UNL     1       6.447   5.323  17.669  0.00  0.00    +0.000 C 
BRANCH  12  13
ATOM     13  C   UNL     1       5.717   4.749  18.908  0.00  0.00    +0.000 C 
BRANCH  13  14
ATOM     14  N   UNL     1       4.384   4.156  18.652  0.00  0.00    +0.000 NA
ATOM     15  C   UNL     1       4.216   2.866  19.322  0.00  0.00    +0.000 C 
ATOM     16  C   UNL     1       3.301   1.933  18.522  0.00  0.00    +0.000 C 
ATOM     17  C   UNL     1       1.811   2.211  18.649  0.00  0.00    +0.000 C 
ATOM     18  C   UNL     1       1.399   3.622  18.248  0.00  0.00    +0.000 C 
ATOM     19  C   UNL     1       1.908   4.666  19.235  0.00  0.00    +0.000 C 
ATOM     20  C   UNL     1       3.345   5.146  18.976  0.00  0.00    +0.000 C 
ENDBRANCH  13  14
ENDBRANCH  12  13
ENDBRANCH  11  12
ENDBRANCH   1  11
TORSDOF 7
ENDMDL
