MODEL 1
REMARK VINA RESULT:      -8.8      0.000      0.000
REMARK  Name = 
REMARK  6 active torsions:
REMARK  status: ('A' for Active; 'I' for Inactive)
REMARK    1  A    between atoms: C_5  and  S_6
REMARK    2  A    between atoms: S_6  and  C_7
REMARK    3  A    between atoms: C_7  and  C_8
REMARK    4  A    between atoms: N_10  and  C_11
REMARK    5  A    between atoms: C_15  and  C_16
REMARK    6  A    between atoms: C_16  and  C_18
REMARK                            x       y       z     vdW  Elec       q    Type
REMARK                         _______ _______ _______ _____ _____    ______ ____
ROOT
ATOM      1  C   UNL     1       5.586   6.630  17.139  0.00  0.00    +0.000 A 
ATOM      2  S   UNL     1       4.268   7.030  18.127  0.00  0.00    +0.000 S 
ATOM      3  C   UNL     1       3.588   5.490  17.928  0.00  0.00    +0.000 A 
ATOM      4  C   UNL     1       4.412   4.626  17.219  0.00  0.00    +0.000 A 
ATOM      5  C   UNL     1       5.605   5.307  16.721  0.00  0.00    +0.000 A 
ATOM      6  C   UNL     1       4.039   3.165  17.126  0.00  0.00    +0.000 C 
ATOM      7  C   UNL     1       2.528   2.948  17.304  0.00  0.00    +0.000 C 
ATOM      8  C   UNL     1       2.019   3.647  18.566  0.00  0.00    +0.000 C 
ATOM      9  C   UNL     1       2.245   5.162  18.504  0.00  0.00    +0.000 C 
ENDROOT
BRANCH   1  12
ATOM     10  C   UNL     1       7.556   7.886  17.725  0.00  0.00    +0.000 C 
ATOM     11  O   UNL     1       7.990   7.068  18.536  0.00  0.00    +0.000 OA
ATOM     12  N   UNL     1       6.428   7.705  16.943  0.00  0.00    +0.000 N 
ATOM     13  H   UNL     1       6.447   8.090  16.003  0.00  0.00    +0.000 HD
BRANCH  10  14
ATOM     14  C   UNL     1       8.269   9.197  17.442  0.00  0.00    +0.000 C 
BRANCH  14  15
ATOM     15  S   UNL     1       9.023   9.880  18.940  0.00  0.00    +0.000 S 
BRANCH  15  20
ATOM     16  N   UNL     1      10.407  14.758  17.081  0.00  0.00    +0.000 N 
ATOM     17  C   UNL     1      10.361  13.475  17.503  0.00  0.00    +0.000 A 
ATOM     18  N   UNL     1      11.390  12.655  17.525  0.00  0.00    +0.000 NA
ATOM     19  N   UNL     1      11.049  11.397  18.007  0.00  0.00    +0.000 NA
ATOM     20  C   UNL     1       9.775  11.329  18.330  0.00  0.00    +0.000 A 
ATOM     21  S   UNL     1       8.900  12.779  18.064  0.00  0.00    +0.000 S 
ATOM     22  H   UNL     1      11.205  15.035  16.522  0.00  0.00    +0.000 HD
ATOM     23  H   UNL     1       9.535  15.224  16.840  0.00  0.00    +0.000 HD
ENDBRANCH  15  20
ENDBRANCH  14  15
ENDBRANCH  10  14
ENDBRANCH   1  12
BRANCH   5  24
ATOM     24  C   UNL     1       6.770   4.731  16.026  0.00  0.00    +0.000 C 
ATOM     25  O   UNL     1       7.747   4.321  16.655  0.00  0.00    +0.000 OA
BRANCH  24  26
ATOM     26  C   UNL     1       6.774   4.545  14.547  0.00  0.00    +0.000 A 
ATOM     27  C   UNL     1       7.680   5.298  13.788  0.00  0.00    +0.000 A 
ATOM     28  C   UNL     1       7.797   5.092  12.410  0.00  0.00    +0.000 A 
ATOM     29  C   UNL     1       7.010   4.127  11.787  0.00  0.00    +0.000 A 
ATOM     30  C   UNL     1       6.070   3.408  12.525  0.00  0.00    +0.000 A 
ATOM     31  C   UNL     1       5.924   3.638  13.897  0.00  0.00    +0.000 A 
ENDBRANCH  24  26
ENDBRANCH   5  24
TORSDOF 6
ENDMDL
MODEL 2
REMARK VINA RESULT:      -7.7      4.918      8.137
REMARK  Name = 
REMARK  6 active torsions:
REMARK  status: ('A' for Active; 'I' for Inactive)
REMARK    1  A    between atoms: C_5  and  S_6
REMARK    2  A    between atoms: S_6  and  C_7
REMARK    3  A    between atoms: C_7  and  C_8
REMARK    4  A    between atoms: N_10  and  C_11
REMARK    5  A    between atoms: C_15  and  C_16
REMARK    6  A    between atoms: C_16  and  C_18
REMARK                            x       y       z     vdW  Elec       q    Type
REMARK                         _______ _______ _______ _____ _____    ______ ____
ROOT
ATOM      1  C   UNL     1       3.328   6.602  18.032  0.00  0.00    +0.000 A 
ATOM      2  S   UNL     1       4.589   7.484  17.320  0.00  0.00    +0.000 S 
ATOM      3  C   UNL     1       5.219   6.089  16.590  0.00  0.00    +0.000 A 
ATOM      4  C   UNL     1       4.412   4.974  16.776  0.00  0.00    +0.000 A 
ATOM      5  C   UNL     1       3.286   5.265  17.659  0.00  0.00    +0.000 A 
ATOM      6  C   UNL     1       4.732   3.702  16.026  0.00  0.00    +0.000 C 
ATOM      7  C   UNL     1       6.216   3.624  15.638  0.00  0.00    +0.000 C 
ATOM      8  C   UNL     1       6.664   4.903  14.926  0.00  0.00    +0.000 C 
ATOM      9  C   UNL     1       6.504   6.136  15.823  0.00  0.00    +0.000 C 
ENDROOT
BRANCH   1  12
ATOM     10  C   UNL     1       1.981   8.565  18.388  0.00  0.00    +0.000 C 
ATOM     11  O   UNL     1       1.986   8.937  17.215  0.00  0.00    +0.000 OA
ATOM     12  N   UNL     1       2.546   7.389  18.851  0.00  0.00    +0.000 N 
ATOM     13  H   UNL     1       2.068   6.909  19.607  0.00  0.00    +0.000 HD
BRANCH  10  14
ATOM     14  C   UNL     1       1.274   9.352  19.479  0.00  0.00    +0.000 C 
BRANCH  14  15
ATOM     15  S   UNL     1       1.057  11.088  19.011  0.00  0.00    +0.000 S 
BRANCH  15  20
ATOM     16  N   UNL     1      -4.219  12.057  18.396  0.00  0.00    +0.000 N 
ATOM     17  C   UNL     1      -2.957  11.574  18.363  0.00  0.00    +0.000 A 
ATOM     18  N   UNL     1      -2.584  10.494  17.711  0.00  0.00    +0.000 NA
ATOM     19  N   UNL     1      -1.227  10.236  17.857  0.00  0.00    +0.000 NA
ATOM     20  C   UNL     1      -0.637  11.139  18.611  0.00  0.00    +0.000 A 
ATOM     21  S   UNL     1      -1.688  12.358  19.204  0.00  0.00    +0.000 S 
ATOM     22  H   UNL     1      -4.964  11.430  18.116  0.00  0.00    +0.000 HD
ATOM     23  H   UNL     1      -4.470  12.717  19.128  0.00  0.00    +0.000 HD
ENDBRANCH  15  20
ENDBRANCH  14  15
ENDBRANCH  10  14
ENDBRANCH   1  12
BRANCH   5  24
ATOM     24  C   UNL     1       2.149   4.398  18.018  0.00  0.00    +0.000 C 
ATOM     25  O   UNL     1       1.215   4.217  17.236  0.00  0.00    +0.000 OA
BRANCH  24  26
ATOM     26  C   UNL     1       2.130   3.641  19.303  0.00  0.00    +0.000 A 
ATOM     27  C   UNL     1       3.321   3.040  19.734  0.00  0.00    +0.000 A 
ATOM     28  C   UNL     1       3.386   2.405  20.978  0.00  0.00    +0.000 A 
ATOM     29  C   UNL     1       2.261   2.371  21.797  0.00  0.00    +0.000 A 
ATOM     30  C   UNL     1       1.058   2.921  21.354  0.00  0.00    +0.000 A 
ATOM     31  C   UNL     1       0.979   3.525  20.095  0.00  0.00    +0.000 A 
ENDBRANCH  24  26
ENDBRANCH   5  24
TORSDOF 6
ENDMDL
MODEL 3
REMARK VINA RESULT:      -7.7      4.920      7.963
REMARK  Name = 
REMARK  6 active torsions:
REMARK  status: ('A' for Active; 'I' for Inactive)
REMARK    1  A    between atoms: C_5  and  S_6
REMARK    2  A    between atoms: S_6  and  C_7
REMARK    3  A    between atoms: C_7  and  C_8
REMARK    4  A    between atoms: N_10  and  C_11
REMARK    5  A    between atoms: C_15  and  C_16
REMARK    6  A    between atoms: C_16  and  C_18
REMARK                            x       y       z     vdW  Elec       q    Type
REMARK                         _______ _______ _______ _____ _____    ______ ____
ROOT
ATOM      1  C   UNL     1       3.292   6.663  17.992  0.00  0.00    +0.000 A 
ATOM      2  S   UNL     1       4.565   7.515  17.264  0.00  0.00    +0.000 S 
ATOM      3  C   UNL     1       5.208   6.089  16.609  0.00  0.00    +0.000 A 
ATOM      4  C   UNL     1       4.399   4.982  16.830  0.00  0.00    +0.000 A 
ATOM      5  C   UNL     1       3.257   5.312  17.679  0.00  0.00    +0.000 A 
ATOM      6  C   UNL     1       4.733   3.679  16.144  0.00  0.00    +0.000 C 
ATOM      7  C   UNL     1       6.224   3.586  15.786  0.00  0.00    +0.000 C 
ATOM      8  C   UNL     1       6.684   4.833  15.025  0.00  0.00    +0.000 C 
ATOM      9  C   UNL     1       6.507   6.104  15.863  0.00  0.00    +0.000 C 
ENDROOT
BRANCH   1  12
ATOM     10  C   UNL     1       1.968   8.659  18.247  0.00  0.00    +0.000 C 
ATOM     11  O   UNL     1       2.025   9.000  17.065  0.00  0.00    +0.000 OA
ATOM     12  N   UNL     1       2.494   7.486  18.760  0.00  0.00    +0.000 N 
ATOM     13  H   UNL     1       1.979   7.034  19.509  0.00  0.00    +0.000 HD
BRANCH  10  14
ATOM     14  C   UNL     1       1.236   9.486  19.290  0.00  0.00    +0.000 C 
BRANCH  14  15
ATOM     15  S   UNL     1       1.139   8.618  20.877  0.00  0.00    +0.000 S 
BRANCH  15  20
ATOM     16  N   UNL     1      -1.573  12.729  23.092  0.00  0.00    +0.000 N 
ATOM     17  C   UNL     1      -0.982  11.551  22.795  0.00  0.00    +0.000 A 
ATOM     18  N   UNL     1      -0.997  10.488  23.570  0.00  0.00    +0.000 NA
ATOM     19  N   UNL     1      -0.307   9.420  23.009  0.00  0.00    +0.000 NA
ATOM     20  C   UNL     1       0.194   9.728  21.831  0.00  0.00    +0.000 A 
ATOM     21  S   UNL     1      -0.127  11.336  21.326  0.00  0.00    +0.000 S 
ATOM     22  H   UNL     1      -1.828  12.890  24.059  0.00  0.00    +0.000 HD
ATOM     23  H   UNL     1      -1.287  13.561  22.582  0.00  0.00    +0.000 HD
ENDBRANCH  15  20
ENDBRANCH  14  15
ENDBRANCH  10  14
ENDBRANCH   1  12
BRANCH   5  24
ATOM     24  C   UNL     1       2.115   4.459  18.056  0.00  0.00    +0.000 C 
ATOM     25  O   UNL     1       1.157   4.306  17.297  0.00  0.00    +0.000 OA
BRANCH  24  26
ATOM     26  C   UNL     1       2.116   3.685  19.330  0.00  0.00    +0.000 A 
ATOM     27  C   UNL     1       3.313   3.078  19.734  0.00  0.00    +0.000 A 
ATOM     28  C   UNL     1       3.397   2.425  20.967  0.00  0.00    +0.000 A 
ATOM     29  C   UNL     1       2.285   2.381  21.804  0.00  0.00    +0.000 A 
ATOM     30  C   UNL     1       1.076   2.938  21.389  0.00  0.00    +0.000 A 
ATOM     31  C   UNL     1       0.978   3.559  20.140  0.00  0.00    +0.000 A 
ENDBRANCH  24  26
ENDBRANCH   5  24
TORSDOF 6
ENDMDL
MODEL 4
REMARK VINA RESULT:      -7.6      5.447      7.038
REMARK  Name = 
REMARK  6 active torsions:
REMARK  status: ('A' for Active; 'I' for Inactive)
REMARK    1  A    between atoms: C_5  and  S_6
REMARK    2  A    between atoms: S_6  and  C_7
REMARK    3  A    between atoms: C_7  and  C_8
REMARK    4  A    between atoms: N_10  and  C_11
REMARK    5  A    between atoms: C_15  and  C_16
REMARK    6  A    between atoms: C_16  and  C_18
REMARK                            x       y       z     vdW  Elec       q    Type
REMARK                         _______ _______ _______ _____ _____    ______ ____
ROOT
ATOM      1  C   UNL     1       2.344   6.406  20.002  0.00  0.00    +0.000 A 
ATOM      2  S   UNL     1       1.673   5.196  20.981  0.00  0.00    +0.000 S 
ATOM      3  C   UNL     1       1.882   4.030  19.768  0.00  0.00    +0.000 A 
ATOM      4  C   UNL     1       2.571   4.518  18.666  0.00  0.00    +0.000 A 
ATOM      5  C   UNL     1       2.834   5.950  18.786  0.00  0.00    +0.000 A 
ATOM      6  C   UNL     1       3.008   3.556  17.586  0.00  0.00    +0.000 C 
ATOM      7  C   UNL     1       2.128   2.297  17.551  0.00  0.00    +0.000 C 
ATOM      8  C   UNL     1       2.012   1.670  18.943  0.00  0.00    +0.000 C 
ATOM      9  C   UNL     1       1.369   2.634  19.946  0.00  0.00    +0.000 C 
ENDROOT
BRANCH   1  12
ATOM     10  C   UNL     1       1.104   8.184  21.051  0.00  0.00    +0.000 C 
ATOM     11  O   UNL     1       0.029   7.584  21.087  0.00  0.00    +0.000 OA
ATOM     12  N   UNL     1       2.299   7.644  20.609  0.00  0.00    +0.000 N 
ATOM     13  H   UNL     1       3.147   7.936  21.087  0.00  0.00    +0.000 HD
BRANCH  10  14
ATOM     14  C   UNL     1       1.250   9.607  21.563  0.00  0.00    +0.000 C 
BRANCH  14  15
ATOM     15  S   UNL     1      -0.341  10.287  22.098  0.00  0.00    +0.000 S 
BRANCH  15  20
ATOM     16  N   UNL     1      -1.462  12.395  17.254  0.00  0.00    +0.000 N 
ATOM     17  C   UNL     1      -1.285  12.141  18.570  0.00  0.00    +0.000 A 
ATOM     18  N   UNL     1      -1.544  12.992  19.540  0.00  0.00    +0.000 NA
ATOM     19  N   UNL     1      -1.265  12.460  20.793  0.00  0.00    +0.000 NA
ATOM     20  C   UNL     1      -0.811  11.227  20.708  0.00  0.00    +0.000 A 
ATOM     21  S   UNL     1      -0.681  10.631  19.105  0.00  0.00    +0.000 S 
ATOM     22  H   UNL     1      -1.561  13.365  16.978  0.00  0.00    +0.000 HD
ATOM     23  H   UNL     1      -0.989  11.805  16.575  0.00  0.00    +0.000 HD
ENDBRANCH  15  20
ENDBRANCH  14  15
ENDBRANCH  10  14
ENDBRANCH   1  12
BRANCH   5  24
ATOM     24  C   UNL     1       3.626   6.818  17.897  0.00  0.00    +0.000 C 
ATOM     25  O   UNL     1       3.320   7.999  17.722  0.00  0.00    +0.000 OA
BRANCH  24  26
ATOM     26  C   UNL     1       4.872   6.325  17.244  0.00  0.00    +0.000 A 
ATOM     27  C   UNL     1       5.954   5.976  18.065  0.00  0.00    +0.000 A 
ATOM     28  C   UNL     1       7.110   5.414  17.515  0.00  0.00    +0.000 A 
ATOM     29  C   UNL     1       7.187   5.195  16.142  0.00  0.00    +0.000 A 
ATOM     30  C   UNL     1       6.137   5.586  15.312  0.00  0.00    +0.000 A 
ATOM     31  C   UNL     1       4.994   6.183  15.855  0.00  0.00    +0.000 A 
ENDBRANCH  24  26
ENDBRANCH   5  24
TORSDOF 6
ENDMDL
MODEL 5
REMARK VINA RESULT:      -7.5      3.036      5.054
REMARK  Name = 
REMARK  6 active torsions:
REMARK  status: ('A' for Active; 'I' for Inactive)
REMARK    1  A    between atoms: C_5  and  S_6
REMARK    2  A    between atoms: S_6  and  C_7
REMARK    3  A    between atoms: C_7  and  C_8
REMARK    4  A    between atoms: N_10  and  C_11
REMARK    5  A    between atoms: C_15  and  C_16
REMARK    6  A    between atoms: C_16  and  C_18
REMARK                            x       y       z     vdW  Elec       q    Type
REMARK                         _______ _______ _______ _____ _____    ______ ____
ROOT
ATOM      1  C   UNL     1       5.114   5.500  17.940  0.00  0.00    +0.000 A 
ATOM      2  S   UNL     1       5.435   3.836  17.984  0.00  0.00    +0.000 S 
ATOM      3  C   UNL     1       3.792   3.475  18.196  0.00  0.00    +0.000 A 
ATOM      4  C   UNL     1       2.979   4.598  18.109  0.00  0.00    +0.000 A 
ATOM      5  C   UNL     1       3.765   5.822  17.979  0.00  0.00    +0.000 A 
ATOM      6  C   UNL     1       1.479   4.419  18.081  0.00  0.00    +0.000 C 
ATOM      7  C   UNL     1       1.047   3.103  18.746  0.00  0.00    +0.000 C 
ATOM      8  C   UNL     1       1.832   1.918  18.178  0.00  0.00    +0.000 C 
ATOM      9  C   UNL     1       3.337   2.067  18.425  0.00  0.00    +0.000 C 
ENDROOT
BRANCH   1  12
ATOM     10  C   UNL     1       7.202   6.250  18.876  0.00  0.00    +0.000 C 
ATOM     11  O   UNL     1       7.174   5.507  19.858  0.00  0.00    +0.000 OA
ATOM     12  N   UNL     1       6.271   6.246  17.852  0.00  0.00    +0.000 N 
ATOM     13  H   UNL     1       6.611   6.431  16.913  0.00  0.00    +0.000 HD
BRANCH  10  14
ATOM     14  C   UNL     1       8.333   7.238  18.645  0.00  0.00    +0.000 C 
BRANCH  14  15
ATOM     15  S   UNL     1       7.789   8.648  17.648  0.00  0.00    +0.000 S 
BRANCH  15  20
ATOM     16  N   UNL     1      10.054  13.290  19.224  0.00  0.00    +0.000 N 
ATOM     17  C   UNL     1       9.624  12.016  19.085  0.00  0.00    +0.000 A 
ATOM     18  N   UNL     1       9.923  11.030  19.902  0.00  0.00    +0.000 NA
ATOM     19  N   UNL     1       9.342   9.830  19.511  0.00  0.00    +0.000 NA
ATOM     20  C   UNL     1       8.626   9.970  18.415  0.00  0.00    +0.000 A 
ATOM     21  S   UNL     1       8.615  11.562  17.778  0.00  0.00    +0.000 S 
ATOM     22  H   UNL     1      10.843  13.449  19.839  0.00  0.00    +0.000 HD
ATOM     23  H   UNL     1      10.008  13.912  18.421  0.00  0.00    +0.000 HD
ENDBRANCH  15  20
ENDBRANCH  14  15
ENDBRANCH  10  14
ENDBRANCH   1  12
BRANCH   5  24
ATOM     24  C   UNL     1       3.291   7.199  17.750  0.00  0.00    +0.000 C 
ATOM     25  O   UNL     1       3.554   7.798  16.706  0.00  0.00    +0.000 OA
BRANCH  24  26
ATOM     26  C   UNL     1       2.406   7.886  18.734  0.00  0.00    +0.000 A 
ATOM     27  C   UNL     1       1.745   9.053  18.327  0.00  0.00    +0.000 A 
ATOM     28  C   UNL     1       0.827   9.681  19.174  0.00  0.00    +0.000 A 
ATOM     29  C   UNL     1       0.563   9.142  20.431  0.00  0.00    +0.000 A 
ATOM     30  C   UNL     1       1.254   8.010  20.864  0.00  0.00    +0.000 A 
ATOM     31  C   UNL     1       2.200   7.400  20.034  0.00  0.00    +0.000 A 
ENDBRANCH  24  26
ENDBRANCH   5  24
TORSDOF 6
ENDMDL
MODEL 6
REMARK VINA RESULT:      -7.5      5.061      7.934
REMARK  Name = 
REMARK  6 active torsions:
REMARK  status: ('A' for Active; 'I' for Inactive)
REMARK    1  A    between atoms: C_5  and  S_6
REMARK    2  A    between atoms: S_6  and  C_7
REMARK    3  A    between atoms: C_7  and  C_8
REMARK    4  A    between atoms: N_10  and  C_11
REMARK    5  A    between atoms: C_15  and  C_16
REMARK    6  A    between atoms: C_16  and  C_18
REMARK                            x       y       z     vdW  Elec       q    Type
REMARK                         _______ _______ _______ _____ _____    ______ ____
ROOT
ATOM      1  C   UNL     1       3.372   6.540  18.094  0.00  0.00    +0.000 A 
ATOM      2  S   UNL     1       4.620   7.448  17.393  0.00  0.00    +0.000 S 
ATOM      3  C   UNL     1       5.226   6.085  16.586  0.00  0.00    +0.000 A 
ATOM      4  C   UNL     1       4.418   4.966  16.741  0.00  0.00    +0.000 A 
ATOM      5  C   UNL     1       3.315   5.222  17.663  0.00  0.00    +0.000 A 
ATOM      6  C   UNL     1       4.715   3.728  15.927  0.00  0.00    +0.000 C 
ATOM      7  C   UNL     1       6.189   3.663  15.500  0.00  0.00    +0.000 C 
ATOM      8  C   UNL     1       6.625   4.971  14.836  0.00  0.00    +0.000 C 
ATOM      9  C   UNL     1       6.492   6.163  15.790  0.00  0.00    +0.000 C 
ENDROOT
BRANCH   1  12
ATOM     10  C   UNL     1       1.952   8.432  18.541  0.00  0.00    +0.000 C 
ATOM     11  O   UNL     1       1.849   8.792  17.369  0.00  0.00    +0.000 OA
ATOM     12  N   UNL     1       2.613   7.292  18.965  0.00  0.00    +0.000 N 
ATOM     13  H   UNL     1       2.220   6.794  19.758  0.00  0.00    +0.000 HD
BRANCH  10  14
ATOM     14  C   UNL     1       1.289   9.190  19.679  0.00  0.00    +0.000 C 
BRANCH  14  15
ATOM     15  S   UNL     1       0.919  10.901  19.210  0.00  0.00    +0.000 S 
BRANCH  15  20
ATOM     16  N   UNL     1      -2.638  12.877  22.759  0.00  0.00    +0.000 N 
ATOM     17  C   UNL     1      -1.574  12.338  22.124  0.00  0.00    +0.000 A 
ATOM     18  N   UNL     1      -0.463  11.954  22.715  0.00  0.00    +0.000 NA
ATOM     19  N   UNL     1       0.459  11.438  21.813  0.00  0.00    +0.000 NA
ATOM     20  C   UNL     1      -0.003  11.453  20.581  0.00  0.00    +0.000 A 
ATOM     21  S   UNL     1      -1.583  12.103  20.427  0.00  0.00    +0.000 S 
ATOM     22  H   UNL     1      -2.488  13.235  23.695  0.00  0.00    +0.000 HD
ATOM     23  H   UNL     1      -3.326  13.389  22.212  0.00  0.00    +0.000 HD
ENDBRANCH  15  20
ENDBRANCH  14  15
ENDBRANCH  10  14
ENDBRANCH   1  12
BRANCH   5  24
ATOM     24  C   UNL     1       2.183   4.343  18.010  0.00  0.00    +0.000 C 
ATOM     25  O   UNL     1       1.271   4.134  17.209  0.00  0.00    +0.000 OA
BRANCH  24  26
ATOM     26  C   UNL     1       2.145   3.608  19.306  0.00  0.00    +0.000 A 
ATOM     27  C   UNL     1       3.326   3.002  19.759  0.00  0.00    +0.000 A 
ATOM     28  C   UNL     1       3.373   2.387  21.013  0.00  0.00    +0.000 A 
ATOM     29  C   UNL     1       2.239   2.378  21.822  0.00  0.00    +0.000 A 
ATOM     30  C   UNL     1       1.046   2.933  21.360  0.00  0.00    +0.000 A 
ATOM     31  C   UNL     1       0.986   3.517  20.090  0.00  0.00    +0.000 A 
ENDBRANCH  24  26
ENDBRANCH   5  24
TORSDOF 6
ENDMDL
MODEL 7
REMARK VINA RESULT:      -7.4      0.853      1.347
REMARK  Name = 
REMARK  6 active torsions:
REMARK  status: ('A' for Active; 'I' for Inactive)
REMARK    1  A    between atoms: C_5  and  S_6
REMARK    2  A    between atoms: S_6  and  C_7
REMARK    3  A    between atoms: C_7  and  C_8
REMARK    4  A    between atoms: N_10  and  C_11
REMARK    5  A    between atoms: C_15  and  C_16
REMARK    6  A    between atoms: C_16  and  C_18
REMARK                            x       y       z     vdW  Elec       q    Type
REMARK                         _______ _______ _______ _____ _____    ______ ____
ROOT
ATOM      1  C   UNL     1       5.804   6.754  17.088  0.00  0.00    +0.000 A 
ATOM      2  S   UNL     1       4.472   7.260  18.006  0.00  0.00    +0.000 S 
ATOM      3  C   UNL     1       3.698   5.765  17.800  0.00  0.00    +0.000 A 
ATOM      4  C   UNL     1       4.494   4.835  17.144  0.00  0.00    +0.000 A 
ATOM      5  C   UNL     1       5.751   5.425  16.692  0.00  0.00    +0.000 A 
ATOM      6  C   UNL     1       4.027   3.401  17.056  0.00  0.00    +0.000 C 
ATOM      7  C   UNL     1       2.498   3.289  17.166  0.00  0.00    +0.000 C 
ATOM      8  C   UNL     1       1.980   4.045  18.392  0.00  0.00    +0.000 C 
ATOM      9  C   UNL     1       2.311   5.539  18.317  0.00  0.00    +0.000 C 
ENDROOT
BRANCH   1  12
ATOM     10  C   UNL     1       7.824   7.887  17.747  0.00  0.00    +0.000 C 
ATOM     11  O   UNL     1       8.163   7.058  18.592  0.00  0.00    +0.000 OA
ATOM     12  N   UNL     1       6.725   7.766  16.915  0.00  0.00    +0.000 N 
ATOM     13  H   UNL     1       6.814   8.130  15.971  0.00  0.00    +0.000 HD
BRANCH  10  14
ATOM     14  C   UNL     1       8.637   9.141  17.477  0.00  0.00    +0.000 C 
BRANCH  14  15
ATOM     15  S   UNL     1       7.846  10.610  18.181  0.00  0.00    +0.000 S 
BRANCH  15  20
ATOM     16  N   UNL     1      12.333  13.594  17.826  0.00  0.00    +0.000 N 
ATOM     17  C   UNL     1      11.070  13.113  17.838  0.00  0.00    +0.000 A 
ATOM     18  N   UNL     1       9.992  13.829  17.598  0.00  0.00    +0.000 NA
ATOM     19  N   UNL     1       8.830  13.072  17.681  0.00  0.00    +0.000 NA
ATOM     20  C   UNL     1       9.087  11.815  17.976  0.00  0.00    +0.000 A 
ATOM     21  S   UNL     1      10.754  11.466  18.185  0.00  0.00    +0.000 S 
ATOM     22  H   UNL     1      12.448  14.599  17.881  0.00  0.00    +0.000 HD
ATOM     23  H   UNL     1      13.065  13.055  18.282  0.00  0.00    +0.000 HD
ENDBRANCH  15  20
ENDBRANCH  14  15
ENDBRANCH  10  14
ENDBRANCH   1  12
BRANCH   5  24
ATOM     24  C   UNL     1       6.906   4.759  16.062  0.00  0.00    +0.000 C 
ATOM     25  O   UNL     1       7.821   4.293  16.743  0.00  0.00    +0.000 OA
BRANCH  24  26
ATOM     26  C   UNL     1       6.967   4.549  14.588  0.00  0.00    +0.000 A 
ATOM     27  C   UNL     1       6.090   3.616  14.016  0.00  0.00    +0.000 A 
ATOM     28  C   UNL     1       6.035   3.451  12.629  0.00  0.00    +0.000 A 
ATOM     29  C   UNL     1       6.853   4.222  11.807  0.00  0.00    +0.000 A 
ATOM     30  C   UNL     1       7.765   5.116  12.369  0.00  0.00    +0.000 A 
ATOM     31  C   UNL     1       7.849   5.256  13.759  0.00  0.00    +0.000 A 
ENDBRANCH  24  26
ENDBRANCH   5  24
TORSDOF 6
ENDMDL
MODEL 8
REMARK VINA RESULT:      -7.4      3.074      5.199
REMARK  Name = 
REMARK  6 active torsions:
REMARK  status: ('A' for Active; 'I' for Inactive)
REMARK    1  A    between atoms: C_5  and  S_6
REMARK    2  A    between atoms: S_6  and  C_7
REMARK    3  A    between atoms: C_7  and  C_8
REMARK    4  A    between atoms: N_10  and  C_11
REMARK    5  A    between atoms: C_15  and  C_16
REMARK    6  A    between atoms: C_16  and  C_18
REMARK                            x       y       z     vdW  Elec       q    Type
REMARK                         _______ _______ _______ _____ _____    ______ ____
ROOT
ATOM      1  C   UNL     1       5.045   5.795  18.482  0.00  0.00    +0.000 A 
ATOM      2  S   UNL     1       5.514   4.168  18.560  0.00  0.00    +0.000 S 
ATOM      3  C   UNL     1       3.908   3.646  18.409  0.00  0.00    +0.000 A 
ATOM      4  C   UNL     1       3.023   4.691  18.174  0.00  0.00    +0.000 A 
ATOM      5  C   UNL     1       3.692   5.987  18.238  0.00  0.00    +0.000 A 
ATOM      6  C   UNL     1       1.589   4.373  17.824  0.00  0.00    +0.000 C 
ATOM      7  C   UNL     1       1.160   2.997  18.355  0.00  0.00    +0.000 C 
ATOM      8  C   UNL     1       2.162   1.915  17.944  0.00  0.00    +0.000 C 
ATOM      9  C   UNL     1       3.559   2.193  18.509  0.00  0.00    +0.000 C 
ENDROOT
BRANCH   1  12
ATOM     10  C   UNL     1       6.938   6.994  17.599  0.00  0.00    +0.000 C 
ATOM     11  O   UNL     1       6.725   6.713  16.419  0.00  0.00    +0.000 OA
ATOM     12  N   UNL     1       6.114   6.649  18.657  0.00  0.00    +0.000 N 
ATOM     13  H   UNL     1       6.032   7.315  19.419  0.00  0.00    +0.000 HD
BRANCH  10  14
ATOM     14  C   UNL     1       8.132   7.830  18.026  0.00  0.00    +0.000 C 
BRANCH  14  15
ATOM     15  S   UNL     1       7.969   9.549  17.480  0.00  0.00    +0.000 S 
BRANCH  15  20
ATOM     16  N   UNL     1      11.787  12.495  19.910  0.00  0.00    +0.000 N 
ATOM     17  C   UNL     1      10.775  11.659  19.590  0.00  0.00    +0.000 A 
ATOM     18  N   UNL     1      10.122  10.908  20.451  0.00  0.00    +0.000 NA
ATOM     19  N   UNL     1       9.133  10.148  19.840  0.00  0.00    +0.000 NA
ATOM     20  C   UNL     1       9.082  10.366  18.542  0.00  0.00    +0.000 A 
ATOM     21  S   UNL     1      10.237  11.499  17.972  0.00  0.00    +0.000 S 
ATOM     22  H   UNL     1      12.236  12.360  20.808  0.00  0.00    +0.000 HD
ATOM     23  H   UNL     1      12.404  12.820  19.169  0.00  0.00    +0.000 HD
ENDBRANCH  15  20
ENDBRANCH  14  15
ENDBRANCH  10  14
ENDBRANCH   1  12
BRANCH   5  24
ATOM     24  C   UNL     1       3.141   7.322  17.941  0.00  0.00    +0.000 C 
ATOM     25  O   UNL     1       3.364   7.877  16.864  0.00  0.00    +0.000 OA
BRANCH  24  26
ATOM     26  C   UNL     1       2.227   8.011  18.896  0.00  0.00    +0.000 A 
ATOM     27  C   UNL     1       1.574   9.174  18.464  0.00  0.00    +0.000 A 
ATOM     28  C   UNL     1       0.629   9.803  19.281  0.00  0.00    +0.000 A 
ATOM     29  C   UNL     1       0.331   9.269  20.532  0.00  0.00    +0.000 A 
ATOM     30  C   UNL     1       1.013   8.142  20.991  0.00  0.00    +0.000 A 
ATOM     31  C   UNL     1       1.985   7.532  20.191  0.00  0.00    +0.000 A 
ENDBRANCH  24  26
ENDBRANCH   5  24
TORSDOF 6
ENDMDL
MODEL 9
REMARK VINA RESULT:      -7.4      5.219      7.058
REMARK  Name = 
REMARK  6 active torsions:
REMARK  status: ('A' for Active; 'I' for Inactive)
REMARK    1  A    between atoms: C_5  and  S_6
REMARK    2  A    between atoms: S_6  and  C_7
REMARK    3  A    between atoms: C_7  and  C_8
REMARK    4  A    between atoms: N_10  and  C_11
REMARK    5  A    between atoms: C_15  and  C_16
REMARK    6  A    between atoms: C_16  and  C_18
REMARK                            x       y       z     vdW  Elec       q    Type
REMARK                         _______ _______ _______ _____ _____    ______ ____
ROOT
ATOM      1  C   UNL     1       2.270   6.927  19.342  0.00  0.00    +0.000 A 
ATOM      2  S   UNL     1       1.342   6.030  20.441  0.00  0.00    +0.000 S 
ATOM      3  C   UNL     1       1.676   4.585  19.618  0.00  0.00    +0.000 A 
ATOM      4  C   UNL     1       2.588   4.753  18.585  0.00  0.00    +0.000 A 
ATOM      5  C   UNL     1       2.934   6.160  18.396  0.00  0.00    +0.000 A 
ATOM      6  C   UNL     1       3.137   3.533  17.884  0.00  0.00    +0.000 C 
ATOM      7  C   UNL     1       2.183   2.333  17.992  0.00  0.00    +0.000 C 
ATOM      8  C   UNL     1       1.771   2.090  19.445  0.00  0.00    +0.000 C 
ATOM      9  C   UNL     1       1.033   3.298  20.034  0.00  0.00    +0.000 C 
ENDROOT
BRANCH   1  12
ATOM     10  C   UNL     1       1.502   9.140  18.783  0.00  0.00    +0.000 C 
ATOM     11  O   UNL     1       0.757   8.788  17.868  0.00  0.00    +0.000 OA
ATOM     12  N   UNL     1       2.212   8.281  19.603  0.00  0.00    +0.000 N 
ATOM     13  H   UNL     1       2.324   8.552  20.575  0.00  0.00    +0.000 HD
BRANCH  10  14
ATOM     14  C   UNL     1       1.677  10.601  19.162  0.00  0.00    +0.000 C 
BRANCH  14  15
ATOM     15  S   UNL     1       0.136  11.530  18.956  0.00  0.00    +0.000 S 
BRANCH  15  20
ATOM     16  N   UNL     1      -2.501  12.244  23.614  0.00  0.00    +0.000 N 
ATOM     17  C   UNL     1      -1.626  11.936  22.631  0.00  0.00    +0.000 A 
ATOM     18  N   UNL     1      -0.458  11.362  22.819  0.00  0.00    +0.000 NA
ATOM     19  N   UNL     1       0.229  11.167  21.628  0.00  0.00    +0.000 NA
ATOM     20  C   UNL     1      -0.458  11.602  20.592  0.00  0.00    +0.000 A 
ATOM     21  S   UNL     1      -1.979  12.285  20.992  0.00  0.00    +0.000 S 
ATOM     22  H   UNL     1      -2.145  12.265  24.562  0.00  0.00    +0.000 HD
ATOM     23  H   UNL     1      -3.237  12.919  23.419  0.00  0.00    +0.000 HD
ENDBRANCH  15  20
ENDBRANCH  14  15
ENDBRANCH  10  14
ENDBRANCH   1  12
BRANCH   5  24
ATOM     24  C   UNL     1       3.938   6.746  17.490  0.00  0.00    +0.000 C 
ATOM     25  O   UNL     1       3.795   7.880  17.030  0.00  0.00    +0.000 OA
BRANCH  24  26
ATOM     26  C   UNL     1       5.202   6.026  17.166  0.00  0.00    +0.000 A 
ATOM     27  C   UNL     1       6.123   5.807  18.201  0.00  0.00    +0.000 A 
ATOM     28  C   UNL     1       7.277   5.051  17.977  0.00  0.00    +0.000 A 
ATOM     29  C   UNL     1       7.513   4.505  16.718  0.00  0.00    +0.000 A 
ATOM     30  C   UNL     1       6.629   4.759  15.669  0.00  0.00    +0.000 A 
ATOM     31  C   UNL     1       5.492   5.547  15.881  0.00  0.00    +0.000 A 
ENDBRANCH  24  26
ENDBRANCH   5  24
TORSDOF 6
ENDMDL
