MODEL 1
REMARK VINA RESULT:      -7.0      0.000      0.000
REMARK  Name = 
REMARK  11 active torsions:
REMARK  status: ('A' for Active; 'I' for Inactive)
REMARK    1  A    between atoms: C_1  and  C_2
REMARK    2  A    between atoms: C_2  and  O_3
REMARK    3  A    between atoms: O_3  and  C_4
REMARK    4  A    between atoms: C_4  and  C_6
REMARK    5  A    between atoms: C_7  and  C_8
REMARK    6  A    between atoms: C_9  and  C_10
REMARK    7  A    between atoms: C_10  and  C_11
REMARK    8  A    between atoms: C_11  and  C_12
REMARK    9  A    between atoms: C_17  and  C_18
REMARK   10  A    between atoms: N_21  and  C_22
REMARK   11  A    between atoms: C_23  and  C_24
REMARK                            x       y       z     vdW  Elec       q    Type
REMARK                         _______ _______ _______ _____ _____    ______ ____
ROOT
ATOM      1  C   UNL     1       4.321   4.366  18.696  0.00  0.00    +0.000 A 
ATOM      2  C   UNL     1       3.398   5.473  18.698  0.00  0.00    +0.000 A 
ATOM      3  C   UNL     1       3.447   6.702  17.851  0.00  0.00    +0.000 C 
ATOM      4  C   UNL     1       2.437   5.222  19.672  0.00  0.00    +0.000 A 
ATOM      5  N   UNL     1       2.757   4.022  20.273  0.00  0.00    +0.000 N 
ATOM      6  C   UNL     1       2.038   3.378  21.354  0.00  0.00    +0.000 C 
ATOM      7  C   UNL     1       3.901   3.501  19.703  0.00  0.00    +0.000 A 
ATOM      8  C   UNL     1       4.540   2.216  20.134  0.00  0.00    +0.000 C 
ENDROOT
BRANCH   1   9
ATOM      9  C   UNL     1       5.519   4.159  17.873  0.00  0.00    +0.000 C 
ATOM     10  O   UNL     1       6.663   4.332  18.288  0.00  0.00    +0.000 OA
BRANCH   9  11
ATOM     11  O   UNL     1       5.217   3.811  16.592  0.00  0.00    +0.000 OA
BRANCH  11  13
ATOM     12  C   UNL     1       6.189   3.913  14.413  0.00  0.00    +0.000 C 
ATOM     13  C   UNL     1       5.642   4.725  15.574  0.00  0.00    +0.000 C 
ENDBRANCH  11  13
ENDBRANCH   9  11
ENDBRANCH   1   9
BRANCH   4  14
ATOM     14  C   UNL     1       1.244   6.086  20.040  0.00  0.00    +0.000 C 
BRANCH  14  15
ATOM     15  C   UNL     1       1.688   7.280  20.885  0.00  0.00    +0.000 C 
BRANCH  15  16
ATOM     16  C   UNL     1       1.392   8.648  20.284  0.00  0.00    +0.000 C 
ATOM     17  O   UNL     1       1.544   8.872  19.084  0.00  0.00    +0.000 OA
ATOM     18  N   UNL     1       0.929   9.617  21.182  0.00  0.00    +0.000 N 
ATOM     19  C   UNL     1       0.868   9.445  22.634  0.00  0.00    +0.000 C 
ATOM     20  C   UNL     1      -0.495   9.862  23.176  0.00  0.00    +0.000 C 
ATOM     21  C   UNL     1      -0.843  11.299  22.766  0.00  0.00    +0.000 C 
ATOM     22  C   UNL     1      -2.246  11.663  23.249  0.00  0.00    +0.000 C 
ATOM     23  C   UNL     1      -0.717  11.463  21.241  0.00  0.00    +0.000 C 
ATOM     24  C   UNL     1       0.639  10.976  20.719  0.00  0.00    +0.000 C 
ENDBRANCH  15  16
ENDBRANCH  14  15
ENDBRANCH   4  14
TORSDOF 6
ENDMDL
MODEL 2
REMARK VINA RESULT:      -6.8      1.276      1.806
REMARK  Name = 
REMARK  11 active torsions:
REMARK  status: ('A' for Active; 'I' for Inactive)
REMARK    1  A    between atoms: C_1  and  C_2
REMARK    2  A    between atoms: C_2  and  O_3
REMARK    3  A    between atoms: O_3  and  C_4
REMARK    4  A    between atoms: C_4  and  C_6
REMARK    5  A    between atoms: C_7  and  C_8
REMARK    6  A    between atoms: C_9  and  C_10
REMARK    7  A    between atoms: C_10  and  C_11
REMARK    8  A    between atoms: C_11  and  C_12
REMARK    9  A    between atoms: C_17  and  C_18
REMARK   10  A    between atoms: N_21  and  C_22
REMARK   11  A    between atoms: C_23  and  C_24
REMARK                            x       y       z     vdW  Elec       q    Type
REMARK                         _______ _______ _______ _____ _____    ______ ____
ROOT
ATOM      1  C   UNL     1       4.981   4.867  17.974  0.00  0.00    +0.000 A 
ATOM      2  C   UNL     1       4.322   6.109  17.653  0.00  0.00    +0.000 A 
ATOM      3  C   UNL     1       4.901   7.292  16.949  0.00  0.00    +0.000 C 
ATOM      4  C   UNL     1       3.025   6.042  18.150  0.00  0.00    +0.000 A 
ATOM      5  N   UNL     1       2.882   4.821  18.778  0.00  0.00    +0.000 N 
ATOM      6  C   UNL     1       1.697   4.330  19.452  0.00  0.00    +0.000 C 
ATOM      7  C   UNL     1       4.060   4.107  18.692  0.00  0.00    +0.000 A 
ATOM      8  C   UNL     1       4.259   2.747  19.287  0.00  0.00    +0.000 C 
ENDROOT
BRANCH   1   9
ATOM      9  C   UNL     1       6.358   4.448  17.691  0.00  0.00    +0.000 C 
ATOM     10  O   UNL     1       7.301   4.665  18.450  0.00  0.00    +0.000 OA
BRANCH   9  11
ATOM     11  O   UNL     1       6.481   3.845  16.476  0.00  0.00    +0.000 OA
BRANCH  11  13
ATOM     12  C   UNL     1       6.131   4.285  14.155  0.00  0.00    +0.000 C 
ATOM     13  C   UNL     1       6.909   4.685  15.397  0.00  0.00    +0.000 C 
ENDBRANCH  11  13
ENDBRANCH   9  11
ENDBRANCH   1   9
BRANCH   4  14
ATOM     14  C   UNL     1       1.938   7.097  18.046  0.00  0.00    +0.000 C 
BRANCH  14  15
ATOM     15  C   UNL     1       2.162   8.200  19.080  0.00  0.00    +0.000 C 
BRANCH  15  16
ATOM     16  C   UNL     1       1.429   8.011  20.402  0.00  0.00    +0.000 C 
ATOM     17  O   UNL     1       1.687   7.072  21.154  0.00  0.00    +0.000 OA
ATOM     18  N   UNL     1       0.460   8.976  20.701  0.00  0.00    +0.000 N 
ATOM     19  C   UNL     1       0.017  10.024  19.781  0.00  0.00    +0.000 C 
ATOM     20  C   UNL     1       0.015  11.386  20.466  0.00  0.00    +0.000 C 
ATOM     21  C   UNL     1      -0.832  11.367  21.745  0.00  0.00    +0.000 C 
ATOM     22  C   UNL     1      -0.750  12.717  22.455  0.00  0.00    +0.000 C 
ATOM     23  C   UNL     1      -0.379  10.222  22.666  0.00  0.00    +0.000 C 
ATOM     24  C   UNL     1      -0.326   8.878  21.933  0.00  0.00    +0.000 C 
ENDBRANCH  15  16
ENDBRANCH  14  15
ENDBRANCH   4  14
TORSDOF 6
ENDMDL
MODEL 3
REMARK VINA RESULT:      -6.6      2.807      3.933
REMARK  Name = 
REMARK  11 active torsions:
REMARK  status: ('A' for Active; 'I' for Inactive)
REMARK    1  A    between atoms: C_1  and  C_2
REMARK    2  A    between atoms: C_2  and  O_3
REMARK    3  A    between atoms: O_3  and  C_4
REMARK    4  A    between atoms: C_4  and  C_6
REMARK    5  A    between atoms: C_7  and  C_8
REMARK    6  A    between atoms: C_9  and  C_10
REMARK    7  A    between atoms: C_10  and  C_11
REMARK    8  A    between atoms: C_11  and  C_12
REMARK    9  A    between atoms: C_17  and  C_18
REMARK   10  A    between atoms: N_21  and  C_22
REMARK   11  A    between atoms: C_23  and  C_24
REMARK                            x       y       z     vdW  Elec       q    Type
REMARK                         _______ _______ _______ _____ _____    ______ ____
ROOT
ATOM      1  C   UNL     1       3.210   5.497  18.752  0.00  0.00    +0.000 A 
ATOM      2  C   UNL     1       3.354   6.709  17.984  0.00  0.00    +0.000 A 
ATOM      3  C   UNL     1       4.129   6.901  16.721  0.00  0.00    +0.000 C 
ATOM      4  C   UNL     1       2.661   7.716  18.647  0.00  0.00    +0.000 A 
ATOM      5  N   UNL     1       2.126   7.167  19.795  0.00  0.00    +0.000 N 
ATOM      6  C   UNL     1       1.338   7.857  20.796  0.00  0.00    +0.000 C 
ATOM      7  C   UNL     1       2.461   5.831  19.877  0.00  0.00    +0.000 A 
ATOM      8  C   UNL     1       2.059   4.936  21.010  0.00  0.00    +0.000 C 
ENDROOT
BRANCH   1   9
ATOM      9  C   UNL     1       3.765   4.164  18.493  0.00  0.00    +0.000 C 
ATOM     10  O   UNL     1       4.811   3.757  18.996  0.00  0.00    +0.000 OA
BRANCH   9  11
ATOM     11  O   UNL     1       3.026   3.455  17.595  0.00  0.00    +0.000 OA
BRANCH  11  13
ATOM     12  C   UNL     1       1.180   2.329  18.609  0.00  0.00    +0.000 C 
ATOM     13  C   UNL     1       2.575   2.166  18.028  0.00  0.00    +0.000 C 
ENDBRANCH  11  13
ENDBRANCH   9  11
ENDBRANCH   1   9
BRANCH   4  14
ATOM     14  C   UNL     1       2.504   9.165  18.223  0.00  0.00    +0.000 C 
BRANCH  14  15
ATOM     15  C   UNL     1       1.051   9.457  17.847  0.00  0.00    +0.000 C 
BRANCH  15  16
ATOM     16  C   UNL     1       0.375  10.552  18.663  0.00  0.00    +0.000 C 
ATOM     17  O   UNL     1       1.029  11.385  19.290  0.00  0.00    +0.000 OA
ATOM     18  N   UNL     1      -1.024  10.548  18.641  0.00  0.00    +0.000 N 
ATOM     19  C   UNL     1      -1.845   9.500  18.032  0.00  0.00    +0.000 C 
ATOM     20  C   UNL     1      -2.919  10.101  17.133  0.00  0.00    +0.000 C 
ATOM     21  C   UNL     1      -3.780  11.117  17.893  0.00  0.00    +0.000 C 
ATOM     22  C   UNL     1      -4.792  11.766  16.950  0.00  0.00    +0.000 C 
ATOM     23  C   UNL     1      -2.887  12.174  18.566  0.00  0.00    +0.000 C 
ATOM     24  C   UNL     1      -1.779  11.538  19.412  0.00  0.00    +0.000 C 
ENDBRANCH  15  16
ENDBRANCH  14  15
ENDBRANCH   4  14
TORSDOF 6
ENDMDL
MODEL 4
REMARK VINA RESULT:      -6.6      1.974      3.423
REMARK  Name = 
REMARK  11 active torsions:
REMARK  status: ('A' for Active; 'I' for Inactive)
REMARK    1  A    between atoms: C_1  and  C_2
REMARK    2  A    between atoms: C_2  and  O_3
REMARK    3  A    between atoms: O_3  and  C_4
REMARK    4  A    between atoms: C_4  and  C_6
REMARK    5  A    between atoms: C_7  and  C_8
REMARK    6  A    between atoms: C_9  and  C_10
REMARK    7  A    between atoms: C_10  and  C_11
REMARK    8  A    between atoms: C_11  and  C_12
REMARK    9  A    between atoms: C_17  and  C_18
REMARK   10  A    between atoms: N_21  and  C_22
REMARK   11  A    between atoms: C_23  and  C_24
REMARK                            x       y       z     vdW  Elec       q    Type
REMARK                         _______ _______ _______ _____ _____    ______ ____
ROOT
ATOM      1  C   UNL     1       3.510   5.389  19.133  0.00  0.00    +0.000 A 
ATOM      2  C   UNL     1       2.558   5.614  20.192  0.00  0.00    +0.000 A 
ATOM      3  C   UNL     1       2.178   4.675  21.290  0.00  0.00    +0.000 C 
ATOM      4  C   UNL     1       2.006   6.877  20.006  0.00  0.00    +0.000 A 
ATOM      5  N   UNL     1       2.567   7.413  18.865  0.00  0.00    +0.000 N 
ATOM      6  C   UNL     1       2.273   8.707  18.283  0.00  0.00    +0.000 C 
ATOM      7  C   UNL     1       3.467   6.519  18.319  0.00  0.00    +0.000 A 
ATOM      8  C   UNL     1       4.240   6.774  17.062  0.00  0.00    +0.000 C 
ENDROOT
BRANCH   1   9
ATOM      9  C   UNL     1       4.341   4.209  18.868  0.00  0.00    +0.000 C 
ATOM     10  O   UNL     1       5.475   4.065  19.320  0.00  0.00    +0.000 OA
BRANCH   9  11
ATOM     11  O   UNL     1       3.738   3.326  18.025  0.00  0.00    +0.000 OA
BRANCH  11  13
ATOM     12  C   UNL     1       1.657   2.246  18.480  0.00  0.00    +0.000 C 
ATOM     13  C   UNL     1       3.166   2.163  18.636  0.00  0.00    +0.000 C 
ENDBRANCH  11  13
ENDBRANCH   9  11
ENDBRANCH   1   9
BRANCH   4  14
ATOM     14  C   UNL     1       0.970   7.571  20.872  0.00  0.00    +0.000 C 
BRANCH  14  15
ATOM     15  C   UNL     1       1.568   8.819  21.524  0.00  0.00    +0.000 C 
BRANCH  15  16
ATOM     16  C   UNL     1       0.651   9.546  22.499  0.00  0.00    +0.000 C 
ATOM     17  O   UNL     1       0.734   9.370  23.714  0.00  0.00    +0.000 OA
ATOM     18  N   UNL     1      -0.273  10.425  21.922  0.00  0.00    +0.000 N 
ATOM     19  C   UNL     1      -0.507  10.561  20.484  0.00  0.00    +0.000 C 
ATOM     20  C   UNL     1      -0.497  12.027  20.067  0.00  0.00    +0.000 C 
ATOM     21  C   UNL     1      -1.507  12.846  20.880  0.00  0.00    +0.000 C 
ATOM     22  C   UNL     1      -1.418  14.324  20.501  0.00  0.00    +0.000 C 
ATOM     23  C   UNL     1      -1.271  12.640  22.386  0.00  0.00    +0.000 C 
ATOM     24  C   UNL     1      -1.222  11.156  22.764  0.00  0.00    +0.000 C 
ENDBRANCH  15  16
ENDBRANCH  14  15
ENDBRANCH   4  14
TORSDOF 6
ENDMDL
MODEL 5
REMARK VINA RESULT:      -6.6      1.466      2.210
REMARK  Name = 
REMARK  11 active torsions:
REMARK  status: ('A' for Active; 'I' for Inactive)
REMARK    1  A    between atoms: C_1  and  C_2
REMARK    2  A    between atoms: C_2  and  O_3
REMARK    3  A    between atoms: O_3  and  C_4
REMARK    4  A    between atoms: C_4  and  C_6
REMARK    5  A    between atoms: C_7  and  C_8
REMARK    6  A    between atoms: C_9  and  C_10
REMARK    7  A    between atoms: C_10  and  C_11
REMARK    8  A    between atoms: C_11  and  C_12
REMARK    9  A    between atoms: C_17  and  C_18
REMARK   10  A    between atoms: N_21  and  C_22
REMARK   11  A    between atoms: C_23  and  C_24
REMARK                            x       y       z     vdW  Elec       q    Type
REMARK                         _______ _______ _______ _____ _____    ______ ____
ROOT
ATOM      1  C   UNL     1       5.210   4.947  17.937  0.00  0.00    +0.000 A 
ATOM      2  C   UNL     1       4.495   6.102  17.455  0.00  0.00    +0.000 A 
ATOM      3  C   UNL     1       5.014   7.195  16.579  0.00  0.00    +0.000 C 
ATOM      4  C   UNL     1       3.209   6.056  17.982  0.00  0.00    +0.000 A 
ATOM      5  N   UNL     1       3.126   4.932  18.780  0.00  0.00    +0.000 N 
ATOM      6  C   UNL     1       1.973   4.495  19.540  0.00  0.00    +0.000 C 
ATOM      7  C   UNL     1       4.333   4.261  18.773  0.00  0.00    +0.000 A 
ATOM      8  C   UNL     1       4.597   3.009  19.552  0.00  0.00    +0.000 C 
ENDROOT
BRANCH   1   9
ATOM      9  C   UNL     1       6.600   4.547  17.689  0.00  0.00    +0.000 C 
ATOM     10  O   UNL     1       7.439   4.428  18.580  0.00  0.00    +0.000 OA
BRANCH   9  11
ATOM     11  O   UNL     1       6.867   4.379  16.364  0.00  0.00    +0.000 OA
BRANCH  11  13
ATOM     12  C   UNL     1       5.966   4.089  14.172  0.00  0.00    +0.000 C 
ATOM     13  C   UNL     1       5.901   3.629  15.618  0.00  0.00    +0.000 C 
ENDBRANCH  11  13
ENDBRANCH   9  11
ENDBRANCH   1   9
BRANCH   4  14
ATOM     14  C   UNL     1       2.077   7.040  17.750  0.00  0.00    +0.000 C 
BRANCH  14  15
ATOM     15  C   UNL     1       2.336   8.341  18.509  0.00  0.00    +0.000 C 
BRANCH  15  16
ATOM     16  C   UNL     1       1.518   8.526  19.781  0.00  0.00    +0.000 C 
ATOM     17  O   UNL     1       1.691   7.813  20.768  0.00  0.00    +0.000 OA
ATOM     18  N   UNL     1       0.574   9.560  19.749  0.00  0.00    +0.000 N 
ATOM     19  C   UNL     1       0.231  10.338  18.559  0.00  0.00    +0.000 C 
ATOM     20  C   UNL     1       0.245  11.833  18.862  0.00  0.00    +0.000 C 
ATOM     21  C   UNL     1      -0.677  12.173  20.039  0.00  0.00    +0.000 C 
ATOM     22  C   UNL     1      -0.580  13.660  20.376  0.00  0.00    +0.000 C 
ATOM     23  C   UNL     1      -0.328  11.301  21.258  0.00  0.00    +0.000 C 
ATOM     24  C   UNL     1      -0.287   9.810  20.907  0.00  0.00    +0.000 C 
ENDBRANCH  15  16
ENDBRANCH  14  15
ENDBRANCH   4  14
TORSDOF 6
ENDMDL
MODEL 6
REMARK VINA RESULT:      -6.5      1.460      1.728
REMARK  Name = 
REMARK  11 active torsions:
REMARK  status: ('A' for Active; 'I' for Inactive)
REMARK    1  A    between atoms: C_1  and  C_2
REMARK    2  A    between atoms: C_2  and  O_3
REMARK    3  A    between atoms: O_3  and  C_4
REMARK    4  A    between atoms: C_4  and  C_6
REMARK    5  A    between atoms: C_7  and  C_8
REMARK    6  A    between atoms: C_9  and  C_10
REMARK    7  A    between atoms: C_10  and  C_11
REMARK    8  A    between atoms: C_11  and  C_12
REMARK    9  A    between atoms: C_17  and  C_18
REMARK   10  A    between atoms: N_21  and  C_22
REMARK   11  A    between atoms: C_23  and  C_24
REMARK                            x       y       z     vdW  Elec       q    Type
REMARK                         _______ _______ _______ _____ _____    ______ ____
ROOT
ATOM      1  C   UNL     1       5.178   4.941  18.064  0.00  0.00    +0.000 A 
ATOM      2  C   UNL     1       4.455   6.105  17.615  0.00  0.00    +0.000 A 
ATOM      3  C   UNL     1       4.977   7.241  16.797  0.00  0.00    +0.000 C 
ATOM      4  C   UNL     1       3.158   6.016  18.107  0.00  0.00    +0.000 A 
ATOM      5  N   UNL     1       3.075   4.859  18.856  0.00  0.00    +0.000 N 
ATOM      6  C   UNL     1       1.912   4.373  19.570  0.00  0.00    +0.000 C 
ATOM      7  C   UNL     1       4.292   4.208  18.850  0.00  0.00    +0.000 A 
ATOM      8  C   UNL     1       4.559   2.929  19.583  0.00  0.00    +0.000 C 
ENDROOT
BRANCH   1   9
ATOM      9  C   UNL     1       6.580   4.574  17.834  0.00  0.00    +0.000 C 
ATOM     10  O   UNL     1       7.419   4.511  18.730  0.00  0.00    +0.000 OA
BRANCH   9  11
ATOM     11  O   UNL     1       6.855   4.366  16.516  0.00  0.00    +0.000 OA
BRANCH  11  13
ATOM     12  C   UNL     1       5.799   4.264  14.377  0.00  0.00    +0.000 C 
ATOM     13  C   UNL     1       5.858   3.659  15.769  0.00  0.00    +0.000 C 
ENDBRANCH  11  13
ENDBRANCH   9  11
ENDBRANCH   1   9
BRANCH   4  14
ATOM     14  C   UNL     1       2.016   6.992  17.890  0.00  0.00    +0.000 C 
BRANCH  14  15
ATOM     15  C   UNL     1       2.004   8.055  18.988  0.00  0.00    +0.000 C 
BRANCH  15  16
ATOM     16  C   UNL     1       1.786   9.484  18.507  0.00  0.00    +0.000 C 
ATOM     17  O   UNL     1       2.084   9.832  17.365  0.00  0.00    +0.000 OA
ATOM     18  N   UNL     1       1.220  10.359  19.443  0.00  0.00    +0.000 N 
ATOM     19  C   UNL     1       0.983  10.034  20.849  0.00  0.00    +0.000 C 
ATOM     20  C   UNL     1      -0.435  10.412  21.265  0.00  0.00    +0.000 C 
ATOM     21  C   UNL     1      -0.727  11.889  20.973  0.00  0.00    +0.000 C 
ATOM     22  C   UNL     1      -2.178  12.221  21.320  0.00  0.00    +0.000 C 
ATOM     23  C   UNL     1      -0.416  12.213  19.502  0.00  0.00    +0.000 C 
ATOM     24  C   UNL     1       0.991  11.763  19.097  0.00  0.00    +0.000 C 
ENDBRANCH  15  16
ENDBRANCH  14  15
ENDBRANCH   4  14
TORSDOF 6
ENDMDL
MODEL 7
REMARK VINA RESULT:      -6.5      1.635      2.543
REMARK  Name = 
REMARK  11 active torsions:
REMARK  status: ('A' for Active; 'I' for Inactive)
REMARK    1  A    between atoms: C_1  and  C_2
REMARK    2  A    between atoms: C_2  and  O_3
REMARK    3  A    between atoms: O_3  and  C_4
REMARK    4  A    between atoms: C_4  and  C_6
REMARK    5  A    between atoms: C_7  and  C_8
REMARK    6  A    between atoms: C_9  and  C_10
REMARK    7  A    between atoms: C_10  and  C_11
REMARK    8  A    between atoms: C_11  and  C_12
REMARK    9  A    between atoms: C_17  and  C_18
REMARK   10  A    between atoms: N_21  and  C_22
REMARK   11  A    between atoms: C_23  and  C_24
REMARK                            x       y       z     vdW  Elec       q    Type
REMARK                         _______ _______ _______ _____ _____    ______ ____
ROOT
ATOM      1  C   UNL     1       4.048   4.632  18.611  0.00  0.00    +0.000 A 
ATOM      2  C   UNL     1       3.181   5.769  18.797  0.00  0.00    +0.000 A 
ATOM      3  C   UNL     1       3.150   7.032  18.000  0.00  0.00    +0.000 C 
ATOM      4  C   UNL     1       2.370   5.509  19.897  0.00  0.00    +0.000 A 
ATOM      5  N   UNL     1       2.729   4.273  20.396  0.00  0.00    +0.000 N 
ATOM      6  C   UNL     1       2.157   3.607  21.549  0.00  0.00    +0.000 C 
ATOM      7  C   UNL     1       3.751   3.738  19.637  0.00  0.00    +0.000 A 
ATOM      8  C   UNL     1       4.395   2.415  19.915  0.00  0.00    +0.000 C 
ENDROOT
BRANCH   1   9
ATOM      9  C   UNL     1       5.096   4.420  17.606  0.00  0.00    +0.000 C 
ATOM     10  O   UNL     1       4.940   3.730  16.601  0.00  0.00    +0.000 OA
BRANCH   9  11
ATOM     11  O   UNL     1       6.269   5.026  17.940  0.00  0.00    +0.000 OA
BRANCH  11  13
ATOM     12  C   UNL     1       7.437   7.087  17.635  0.00  0.00    +0.000 C 
ATOM     13  C   UNL     1       6.849   5.871  16.939  0.00  0.00    +0.000 C 
ENDBRANCH  11  13
ENDBRANCH   9  11
ENDBRANCH   1   9
BRANCH   4  14
ATOM     14  C   UNL     1       1.283   6.396  20.477  0.00  0.00    +0.000 C 
BRANCH  14  15
ATOM     15  C   UNL     1       1.831   7.795  20.763  0.00  0.00    +0.000 C 
BRANCH  15  16
ATOM     16  C   UNL     1       0.795   8.820  21.205  0.00  0.00    +0.000 C 
ATOM     17  O   UNL     1       0.257   8.759  22.310  0.00  0.00    +0.000 OA
ATOM     18  N   UNL     1       0.509   9.831  20.279  0.00  0.00    +0.000 N 
ATOM     19  C   UNL     1       1.011   9.867  18.905  0.00  0.00    +0.000 C 
ATOM     20  C   UNL     1       1.598  11.235  18.574  0.00  0.00    +0.000 C 
ATOM     21  C   UNL     1       0.582  12.355  18.830  0.00  0.00    +0.000 C 
ATOM     22  C   UNL     1       1.220  13.719  18.572  0.00  0.00    +0.000 C 
ATOM     23  C   UNL     1       0.032  12.258  20.264  0.00  0.00    +0.000 C 
ATOM     24  C   UNL     1      -0.491  10.855  20.587  0.00  0.00    +0.000 C 
ENDBRANCH  15  16
ENDBRANCH  14  15
ENDBRANCH   4  14
TORSDOF 6
ENDMDL
MODEL 8
REMARK VINA RESULT:      -6.5      1.136      1.450
REMARK  Name = 
REMARK  11 active torsions:
REMARK  status: ('A' for Active; 'I' for Inactive)
REMARK    1  A    between atoms: C_1  and  C_2
REMARK    2  A    between atoms: C_2  and  O_3
REMARK    3  A    between atoms: O_3  and  C_4
REMARK    4  A    between atoms: C_4  and  C_6
REMARK    5  A    between atoms: C_7  and  C_8
REMARK    6  A    between atoms: C_9  and  C_10
REMARK    7  A    between atoms: C_10  and  C_11
REMARK    8  A    between atoms: C_11  and  C_12
REMARK    9  A    between atoms: C_17  and  C_18
REMARK   10  A    between atoms: N_21  and  C_22
REMARK   11  A    between atoms: C_23  and  C_24
REMARK                            x       y       z     vdW  Elec       q    Type
REMARK                         _______ _______ _______ _____ _____    ______ ____
ROOT
ATOM      1  C   UNL     1       4.464   4.861  18.467  0.00  0.00    +0.000 A 
ATOM      2  C   UNL     1       3.529   5.958  18.439  0.00  0.00    +0.000 A 
ATOM      3  C   UNL     1       3.606   7.201  17.615  0.00  0.00    +0.000 C 
ATOM      4  C   UNL     1       2.523   5.682  19.359  0.00  0.00    +0.000 A 
ATOM      5  N   UNL     1       2.827   4.475  19.958  0.00  0.00    +0.000 N 
ATOM      6  C   UNL     1       2.061   3.806  20.990  0.00  0.00    +0.000 C 
ATOM      7  C   UNL     1       4.004   3.976  19.438  0.00  0.00    +0.000 A 
ATOM      8  C   UNL     1       4.635   2.691  19.881  0.00  0.00    +0.000 C 
ENDROOT
BRANCH   1   9
ATOM      9  C   UNL     1       5.704   4.681  17.703  0.00  0.00    +0.000 C 
ATOM     10  O   UNL     1       5.833   3.845  16.811  0.00  0.00    +0.000 OA
BRANCH   9  11
ATOM     11  O   UNL     1       6.704   5.501  18.129  0.00  0.00    +0.000 OA
BRANCH  11  13
ATOM     12  C   UNL     1       7.751   7.624  17.815  0.00  0.00    +0.000 C 
ATOM     13  C   UNL     1       7.293   6.346  17.134  0.00  0.00    +0.000 C 
ENDBRANCH  11  13
ENDBRANCH   9  11
ENDBRANCH   1   9
BRANCH   4  14
ATOM     14  C   UNL     1       1.303   6.526  19.680  0.00  0.00    +0.000 C 
BRANCH  14  15
ATOM     15  C   UNL     1       1.672   7.656  20.642  0.00  0.00    +0.000 C 
BRANCH  15  16
ATOM     16  C   UNL     1       1.329   9.059  20.160  0.00  0.00    +0.000 C 
ATOM     17  O   UNL     1       1.477   9.391  18.984  0.00  0.00    +0.000 OA
ATOM     18  N   UNL     1       0.828   9.930  21.135  0.00  0.00    +0.000 N 
ATOM     19  C   UNL     1       0.768   9.631  22.566  0.00  0.00    +0.000 C 
ATOM     20  C   UNL     1      -0.611   9.951  23.133  0.00  0.00    +0.000 C 
ATOM     21  C   UNL     1      -1.009  11.404  22.846  0.00  0.00    +0.000 C 
ATOM     22  C   UNL     1      -2.427  11.674  23.349  0.00  0.00    +0.000 C 
ATOM     23  C   UNL     1      -0.884  11.703  21.342  0.00  0.00    +0.000 C 
ATOM     24  C   UNL     1       0.490  11.312  20.789  0.00  0.00    +0.000 C 
ENDBRANCH  15  16
ENDBRANCH  14  15
ENDBRANCH   4  14
TORSDOF 6
ENDMDL
MODEL 9
REMARK VINA RESULT:      -6.5      1.392      2.239
REMARK  Name = 
REMARK  11 active torsions:
REMARK  status: ('A' for Active; 'I' for Inactive)
REMARK    1  A    between atoms: C_1  and  C_2
REMARK    2  A    between atoms: C_2  and  O_3
REMARK    3  A    between atoms: O_3  and  C_4
REMARK    4  A    between atoms: C_4  and  C_6
REMARK    5  A    between atoms: C_7  and  C_8
REMARK    6  A    between atoms: C_9  and  C_10
REMARK    7  A    between atoms: C_10  and  C_11
REMARK    8  A    between atoms: C_11  and  C_12
REMARK    9  A    between atoms: C_17  and  C_18
REMARK   10  A    between atoms: N_21  and  C_22
REMARK   11  A    between atoms: C_23  and  C_24
REMARK                            x       y       z     vdW  Elec       q    Type
REMARK                         _______ _______ _______ _____ _____    ______ ____
ROOT
ATOM      1  C   UNL     1       4.265   4.433  18.821  0.00  0.00    +0.000 A 
ATOM      2  C   UNL     1       3.393   5.576  18.914  0.00  0.00    +0.000 A 
ATOM      3  C   UNL     1       3.447   6.833  18.108  0.00  0.00    +0.000 C 
ATOM      4  C   UNL     1       2.479   5.332  19.934  0.00  0.00    +0.000 A 
ATOM      5  N   UNL     1       2.780   4.098  20.475  0.00  0.00    +0.000 N 
ATOM      6  C   UNL     1       2.096   3.446  21.574  0.00  0.00    +0.000 C 
ATOM      7  C   UNL     1       3.865   3.550  19.821  0.00  0.00    +0.000 A 
ATOM      8  C   UNL     1       4.470   2.225  20.171  0.00  0.00    +0.000 C 
ENDROOT
BRANCH   1   9
ATOM      9  C   UNL     1       5.403   4.205  17.923  0.00  0.00    +0.000 C 
ATOM     10  O   UNL     1       6.574   4.364  18.261  0.00  0.00    +0.000 OA
BRANCH   9  11
ATOM     11  O   UNL     1       5.014   3.855  16.665  0.00  0.00    +0.000 OA
BRANCH  11  13
ATOM     12  C   UNL     1       6.282   4.106  14.658  0.00  0.00    +0.000 C 
ATOM     13  C   UNL     1       5.331   4.788  15.625  0.00  0.00    +0.000 C 
ENDBRANCH  11  13
ENDBRANCH   9  11
ENDBRANCH   1   9
BRANCH   4  14
ATOM     14  C   UNL     1       1.348   6.231  20.400  0.00  0.00    +0.000 C 
BRANCH  14  15
ATOM     15  C   UNL     1       1.847   7.664  20.588  0.00  0.00    +0.000 C 
BRANCH  15  16
ATOM     16  C   UNL     1       0.783   8.674  20.997  0.00  0.00    +0.000 C 
ATOM     17  O   UNL     1       0.177   8.576  22.063  0.00  0.00    +0.000 OA
ATOM     18  N   UNL     1       0.555   9.715  20.090  0.00  0.00    +0.000 N 
ATOM     19  C   UNL     1       1.142   9.798  18.752  0.00  0.00    +0.000 C 
ATOM     20  C   UNL     1       1.746  11.176  18.506  0.00  0.00    +0.000 C 
ATOM     21  C   UNL     1       0.714  12.287  18.735  0.00  0.00    +0.000 C 
ATOM     22  C   UNL     1       1.365  13.659  18.564  0.00  0.00    +0.000 C 
ATOM     23  C   UNL     1       0.075  12.142  20.127  0.00  0.00    +0.000 C 
ATOM     24  C   UNL     1      -0.465  10.729  20.368  0.00  0.00    +0.000 C 
ENDBRANCH  15  16
ENDBRANCH  14  15
ENDBRANCH   4  14
TORSDOF 6
ENDMDL
