MODEL 1
REMARK VINA RESULT:      -9.8      0.000      0.000
REMARK  Name = 
REMARK  4 active torsions:
REMARK  status: ('A' for Active; 'I' for Inactive)
REMARK    1  A    between atoms: C_1  and  N_2
REMARK    2  A    between atoms: C_9  and  C_10
REMARK    3  A    between atoms: N_16  and  C_17
REMARK    4  A    between atoms: C_17  and  C_18
REMARK                            x       y       z     vdW  Elec       q    Type
REMARK                         _______ _______ _______ _____ _____    ______ ____
ROOT
ATOM      1  C   UNL     1       3.326   6.681  18.373  0.00  0.00    +0.000 A 
ATOM      2  C   UNL     1       3.503   5.561  19.191  0.00  0.00    +0.000 A 
ATOM      3  N   UNL     1       4.675   4.910  19.358  0.00  0.00    +0.000 NA
ATOM      4  C   UNL     1       5.674   5.300  18.559  0.00  0.00    +0.000 A 
ATOM      5  C   UNL     1       5.478   6.088  17.405  0.00  0.00    +0.000 A 
ATOM      6  C   UNL     1       4.310   6.862  17.380  0.00  0.00    +0.000 A 
ATOM      7  N   UNL     1       6.606   6.392  16.537  0.00  0.00    +0.000 N 
ATOM      8  C   UNL     1       7.486   7.118  17.512  0.00  0.00    +0.000 C 
ATOM      9  C   UNL     1       7.897   6.210  18.726  0.00  0.00    +0.000 C 
ATOM     10  N   UNL     1       6.998   5.060  18.975  0.00  0.00    +0.000 N 
ATOM     11  H   UNL     1       6.981   4.670  19.912  0.00  0.00    +0.000 HD
ENDROOT
BRANCH   1  20
ATOM     12  C   UNL     1      -1.734  14.720  20.739  0.00  0.00    +0.000 C 
ATOM     13  N   UNL     1      -1.583  13.266  20.816  0.00  0.00    +0.000 NA
ATOM     14  C   UNL     1      -0.304  12.904  21.486  0.00  0.00    +0.000 C 
ATOM     15  C   UNL     1       0.031  11.381  21.436  0.00  0.00    +0.000 C 
ATOM     16  N   UNL     1       0.004  10.963  20.029  0.00  0.00    +0.000 N 
ATOM     17  C   UNL     1       0.687   9.832  19.626  0.00  0.00    +0.000 A 
ATOM     18  C   UNL     1       1.066   9.736  18.283  0.00  0.00    +0.000 A 
ATOM     19  C   UNL     1       1.873   8.688  17.830  0.00  0.00    +0.000 A 
ATOM     20  C   UNL     1       2.317   7.714  18.718  0.00  0.00    +0.000 A 
ATOM     21  C   UNL     1       1.868   7.885  20.041  0.00  0.00    +0.000 A 
ATOM     22  N   UNL     1       1.091   8.903  20.509  0.00  0.00    +0.000 NA
ATOM     23  C   UNL     1      -1.328  11.175  19.429  0.00  0.00    +0.000 C 
ATOM     24  C   UNL     1      -1.626  12.688  19.450  0.00  0.00    +0.000 C 
ENDBRANCH   1  20
BRANCH   7  25
ATOM     25  C   UNL     1       7.325   5.147  16.083  0.00  0.00    +0.000 C 
BRANCH  25  26
ATOM     26  C   UNL     1       6.898   4.561  14.766  0.00  0.00    +0.000 A 
ATOM     27  C   UNL     1       5.722   3.798  14.730  0.00  0.00    +0.000 A 
ATOM     28  F   UNL     1       5.058   3.542  15.866  0.00  0.00    +0.000 F 
ATOM     29  C   UNL     1       5.160   3.361  13.532  0.00  0.00    +0.000 A 
ATOM     30  C   UNL     1       5.779   3.678  12.328  0.00  0.00    +0.000 A 
ATOM     31  C   UNL     1       6.942   4.440  12.338  0.00  0.00    +0.000 A 
ATOM     32  F   UNL     1       7.493   4.772  11.161  0.00  0.00    +0.000 F 
ATOM     33  C   UNL     1       7.502   4.891  13.541  0.00  0.00    +0.000 A 
ATOM     34 CL   UNL     1       8.871   5.941  13.432  0.00  0.00    +0.000 Cl
ENDBRANCH  25  26
ENDBRANCH   7  25
TORSDOF 3
ENDMDL
MODEL 2
REMARK VINA RESULT:      -9.6      0.968      1.496
REMARK  Name = 
REMARK  4 active torsions:
REMARK  status: ('A' for Active; 'I' for Inactive)
REMARK    1  A    between atoms: C_1  and  N_2
REMARK    2  A    between atoms: C_9  and  C_10
REMARK    3  A    between atoms: N_16  and  C_17
REMARK    4  A    between atoms: C_17  and  C_18
REMARK                            x       y       z     vdW  Elec       q    Type
REMARK                         _______ _______ _______ _____ _____    ______ ____
ROOT
ATOM      1  C   UNL     1       3.283   6.920  18.434  0.00  0.00    +0.000 A 
ATOM      2  C   UNL     1       3.401   5.817  19.285  0.00  0.00    +0.000 A 
ATOM      3  N   UNL     1       4.533   5.101  19.463  0.00  0.00    +0.000 NA
ATOM      4  C   UNL     1       5.546   5.405  18.643  0.00  0.00    +0.000 A 
ATOM      5  C   UNL     1       5.387   6.169  17.467  0.00  0.00    +0.000 A 
ATOM      6  C   UNL     1       4.267   7.012  17.428  0.00  0.00    +0.000 A 
ATOM      7  N   UNL     1       6.522   6.378  16.582  0.00  0.00    +0.000 N 
ATOM      8  C   UNL     1       7.454   7.078  17.527  0.00  0.00    +0.000 C 
ATOM      9  C   UNL     1       7.822   6.184  18.764  0.00  0.00    +0.000 C 
ATOM     10  N   UNL     1       6.857   5.098  19.056  0.00  0.00    +0.000 N 
ATOM     11  H   UNL     1       6.826   4.738  20.004  0.00  0.00    +0.000 HD
ENDROOT
BRANCH   1  20
ATOM     12  C   UNL     1      -4.332  12.761  20.360  0.00  0.00    +0.000 C 
ATOM     13  N   UNL     1      -2.992  12.594  19.797  0.00  0.00    +0.000 NA
ATOM     14  C   UNL     1      -3.008  11.606  18.684  0.00  0.00    +0.000 C 
ATOM     15  C   UNL     1      -1.591  11.220  18.155  0.00  0.00    +0.000 C 
ATOM     16  N   UNL     1      -0.798  10.754  19.300  0.00  0.00    +0.000 N 
ATOM     17  C   UNL     1       0.296   9.936  19.101  0.00  0.00    +0.000 A 
ATOM     18  C   UNL     1       0.710   9.122  20.161  0.00  0.00    +0.000 A 
ATOM     19  C   UNL     1       1.724   8.173  19.993  0.00  0.00    +0.000 A 
ATOM     20  C   UNL     1       2.342   8.022  18.756  0.00  0.00    +0.000 A 
ATOM     21  C   UNL     1       1.872   8.898  17.760  0.00  0.00    +0.000 A 
ATOM     22  N   UNL     1       0.879   9.823  17.895  0.00  0.00    +0.000 NA
ATOM     23  C   UNL     1      -0.653  11.811  20.320  0.00  0.00    +0.000 C 
ATOM     24  C   UNL     1      -2.056  12.152  20.860  0.00  0.00    +0.000 C 
ENDBRANCH   1  20
BRANCH   7  25
ATOM     25  C   UNL     1       7.160   5.079  16.159  0.00  0.00    +0.000 C 
BRANCH  25  26
ATOM     26  C   UNL     1       6.757   4.531  14.819  0.00  0.00    +0.000 A 
ATOM     27  C   UNL     1       5.556   3.813  14.730  0.00  0.00    +0.000 A 
ATOM     28  F   UNL     1       4.843   3.565  15.838  0.00  0.00    +0.000 F 
ATOM     29  C   UNL     1       5.020   3.417  13.505  0.00  0.00    +0.000 A 
ATOM     30  C   UNL     1       5.691   3.730  12.329  0.00  0.00    +0.000 A 
ATOM     31  C   UNL     1       6.881   4.447  12.393  0.00  0.00    +0.000 A 
ATOM     32  F   UNL     1       7.485   4.777  11.241  0.00  0.00    +0.000 F 
ATOM     33  C   UNL     1       7.415   4.857  13.621  0.00  0.00    +0.000 A 
ATOM     34 CL   UNL     1       8.826   5.856  13.578  0.00  0.00    +0.000 Cl
ENDBRANCH  25  26
ENDBRANCH   7  25
TORSDOF 3
ENDMDL
MODEL 3
REMARK VINA RESULT:      -9.3      1.262      1.673
REMARK  Name = 
REMARK  4 active torsions:
REMARK  status: ('A' for Active; 'I' for Inactive)
REMARK    1  A    between atoms: C_1  and  N_2
REMARK    2  A    between atoms: C_9  and  C_10
REMARK    3  A    between atoms: N_16  and  C_17
REMARK    4  A    between atoms: C_17  and  C_18
REMARK                            x       y       z     vdW  Elec       q    Type
REMARK                         _______ _______ _______ _____ _____    ______ ____
ROOT
ATOM      1  C   UNL     1       3.263   6.700  18.206  0.00  0.00    +0.000 A 
ATOM      2  C   UNL     1       3.360   5.488  18.898  0.00  0.00    +0.000 A 
ATOM      3  N   UNL     1       4.499   4.774  19.041  0.00  0.00    +0.000 NA
ATOM      4  C   UNL     1       5.549   5.210  18.336  0.00  0.00    +0.000 A 
ATOM      5  C   UNL     1       5.438   6.131  17.272  0.00  0.00    +0.000 A 
ATOM      6  C   UNL     1       4.300   6.951  17.285  0.00  0.00    +0.000 A 
ATOM      7  N   UNL     1       6.616   6.484  16.496  0.00  0.00    +0.000 N 
ATOM      8  C   UNL     1       7.473   7.059  17.585  0.00  0.00    +0.000 C 
ATOM      9  C   UNL     1       7.793   6.004  18.704  0.00  0.00    +0.000 C 
ATOM     10  N   UNL     1       6.841   4.871  18.781  0.00  0.00    +0.000 N 
ATOM     11  H   UNL     1       6.765   4.379  19.665  0.00  0.00    +0.000 HD
ENDROOT
BRANCH   1  20
ATOM     12  C   UNL     1      -1.634  14.685  21.047  0.00  0.00    +0.000 C 
ATOM     13  N   UNL     1      -1.498  13.228  21.058  0.00  0.00    +0.000 NA
ATOM     14  C   UNL     1      -0.206  12.824  21.677  0.00  0.00    +0.000 C 
ATOM     15  C   UNL     1       0.110  11.301  21.554  0.00  0.00    +0.000 C 
ATOM     16  N   UNL     1       0.039  10.943  20.132  0.00  0.00    +0.000 N 
ATOM     17  C   UNL     1       0.698   9.823  19.663  0.00  0.00    +0.000 A 
ATOM     18  C   UNL     1       1.038   9.780  18.307  0.00  0.00    +0.000 A 
ATOM     19  C   UNL     1       1.820   8.742  17.789  0.00  0.00    +0.000 A 
ATOM     20  C   UNL     1       2.277   7.727  18.622  0.00  0.00    +0.000 A 
ATOM     21  C   UNL     1       1.867   7.848  19.963  0.00  0.00    +0.000 A 
ATOM     22  N   UNL     1       1.114   8.853  20.495  0.00  0.00    +0.000 NA
ATOM     23  C   UNL     1      -1.306  11.195  19.579  0.00  0.00    +0.000 C 
ATOM     24  C   UNL     1      -1.586  12.708  19.672  0.00  0.00    +0.000 C 
ENDBRANCH   1  20
BRANCH   7  25
ATOM     25  C   UNL     1       7.311   5.270  15.934  0.00  0.00    +0.000 C 
BRANCH  25  26
ATOM     26  C   UNL     1       6.975   4.891  14.519  0.00  0.00    +0.000 A 
ATOM     27  C   UNL     1       7.863   5.270  13.502  0.00  0.00    +0.000 A 
ATOM     28  F   UNL     1       8.936   6.019  13.798  0.00  0.00    +0.000 F 
ATOM     29  C   UNL     1       7.722   4.819  12.191  0.00  0.00    +0.000 A 
ATOM     30  C   UNL     1       6.668   3.974  11.866  0.00  0.00    +0.000 A 
ATOM     31  C   UNL     1       5.778   3.580  12.858  0.00  0.00    +0.000 A 
ATOM     32  F   UNL     1       4.797   2.727  12.528  0.00  0.00    +0.000 F 
ATOM     33  C   UNL     1       5.925   4.021  14.180  0.00  0.00    +0.000 A 
ATOM     34 CL   UNL     1       4.844   3.366  15.358  0.00  0.00    +0.000 Cl
ENDBRANCH  25  26
ENDBRANCH   7  25
TORSDOF 3
ENDMDL
MODEL 4
REMARK VINA RESULT:      -9.2      1.554      2.191
REMARK  Name = 
REMARK  4 active torsions:
REMARK  status: ('A' for Active; 'I' for Inactive)
REMARK    1  A    between atoms: C_1  and  N_2
REMARK    2  A    between atoms: C_9  and  C_10
REMARK    3  A    between atoms: N_16  and  C_17
REMARK    4  A    between atoms: C_17  and  C_18
REMARK                            x       y       z     vdW  Elec       q    Type
REMARK                         _______ _______ _______ _____ _____    ______ ____
ROOT
ATOM      1  C   UNL     1       3.254   6.916  18.246  0.00  0.00    +0.000 A 
ATOM      2  C   UNL     1       3.228   5.686  18.911  0.00  0.00    +0.000 A 
ATOM      3  N   UNL     1       4.292   4.864  19.046  0.00  0.00    +0.000 NA
ATOM      4  C   UNL     1       5.386   5.213  18.359  0.00  0.00    +0.000 A 
ATOM      5  C   UNL     1       5.373   6.163  17.316  0.00  0.00    +0.000 A 
ATOM      6  C   UNL     1       4.319   7.088  17.339  0.00  0.00    +0.000 A 
ATOM      7  N   UNL     1       6.588   6.419  16.557  0.00  0.00    +0.000 N 
ATOM      8  C   UNL     1       7.485   6.885  17.665  0.00  0.00    +0.000 C 
ATOM      9  C   UNL     1       7.691   5.780  18.763  0.00  0.00    +0.000 C 
ATOM     10  N   UNL     1       6.636   4.742  18.806  0.00  0.00    +0.000 N 
ATOM     11  H   UNL     1       6.504   4.240  19.678  0.00  0.00    +0.000 HD
ENDROOT
BRANCH   1  20
ATOM     12  C   UNL     1      -4.073  12.871  20.829  0.00  0.00    +0.000 C 
ATOM     13  N   UNL     1      -2.755  12.698  20.218  0.00  0.00    +0.000 NA
ATOM     14  C   UNL     1      -2.838  11.802  19.032  0.00  0.00    +0.000 C 
ATOM     15  C   UNL     1      -1.451  11.406  18.437  0.00  0.00    +0.000 C 
ATOM     16  N   UNL     1      -0.649  10.822  19.519  0.00  0.00    +0.000 N 
ATOM     17  C   UNL     1       0.406   9.981  19.227  0.00  0.00    +0.000 A 
ATOM     18  C   UNL     1       0.814   9.071  20.209  0.00  0.00    +0.000 A 
ATOM     19  C   UNL     1       1.784   8.100  19.940  0.00  0.00    +0.000 A 
ATOM     20  C   UNL     1       2.366   8.024  18.678  0.00  0.00    +0.000 A 
ATOM     21  C   UNL     1       1.906   8.992  17.766  0.00  0.00    +0.000 A 
ATOM     22  N   UNL     1       0.955   9.941  18.001  0.00  0.00    +0.000 NA
ATOM     23  C   UNL     1      -0.436  11.789  20.614  0.00  0.00    +0.000 C 
ATOM     24  C   UNL     1      -1.812  12.140  21.217  0.00  0.00    +0.000 C 
ENDBRANCH   1  20
BRANCH   7  25
ATOM     25  C   UNL     1       7.169   5.157  15.973  0.00  0.00    +0.000 C 
BRANCH  25  26
ATOM     26  C   UNL     1       6.805   4.839  14.549  0.00  0.00    +0.000 A 
ATOM     27  C   UNL     1       7.729   5.154  13.543  0.00  0.00    +0.000 A 
ATOM     28  F   UNL     1       8.865   5.795  13.856  0.00  0.00    +0.000 F 
ATOM     29  C   UNL     1       7.552   4.745  12.222  0.00  0.00    +0.000 A 
ATOM     30  C   UNL     1       6.426   4.007  11.877  0.00  0.00    +0.000 A 
ATOM     31  C   UNL     1       5.499   3.677  12.860  0.00  0.00    +0.000 A 
ATOM     32  F   UNL     1       4.445   2.925  12.511  0.00  0.00    +0.000 F 
ATOM     33  C   UNL     1       5.681   4.077  14.191  0.00  0.00    +0.000 A 
ATOM     34 CL   UNL     1       4.538   3.501  15.353  0.00  0.00    +0.000 Cl
ENDBRANCH  25  26
ENDBRANCH   7  25
TORSDOF 3
ENDMDL
MODEL 5
REMARK VINA RESULT:      -8.9      4.849      7.675
REMARK  Name = 
REMARK  4 active torsions:
REMARK  status: ('A' for Active; 'I' for Inactive)
REMARK    1  A    between atoms: C_1  and  N_2
REMARK    2  A    between atoms: C_9  and  C_10
REMARK    3  A    between atoms: N_16  and  C_17
REMARK    4  A    between atoms: C_17  and  C_18
REMARK                            x       y       z     vdW  Elec       q    Type
REMARK                         _______ _______ _______ _____ _____    ______ ____
ROOT
ATOM      1  C   UNL     1       7.535   7.739  18.277  0.00  0.00    +0.000 A 
ATOM      2  C   UNL     1       8.170   6.606  18.793  0.00  0.00    +0.000 A 
ATOM      3  N   UNL     1       7.944   5.340  18.374  0.00  0.00    +0.000 NA
ATOM      4  C   UNL     1       6.933   5.187  17.513  0.00  0.00    +0.000 A 
ATOM      5  C   UNL     1       5.953   6.177  17.286  0.00  0.00    +0.000 A 
ATOM      6  C   UNL     1       6.325   7.493  17.597  0.00  0.00    +0.000 A 
ATOM      7  N   UNL     1       4.833   5.896  16.401  0.00  0.00    +0.000 N 
ATOM      8  C   UNL     1       5.580   5.613  15.131  0.00  0.00    +0.000 C 
ATOM      9  C   UNL     1       6.546   4.383  15.275  0.00  0.00    +0.000 C 
ATOM     10  N   UNL     1       6.938   4.061  16.667  0.00  0.00    +0.000 N 
ATOM     11  H   UNL     1       7.804   3.551  16.807  0.00  0.00    +0.000 HD
ENDROOT
BRANCH   1  20
ATOM     12  C   UNL     1      11.067  16.759  19.684  0.00  0.00    +0.000 C 
ATOM     13  N   UNL     1      10.698  15.688  18.757  0.00  0.00    +0.000 NA
ATOM     14  C   UNL     1       9.246  15.376  18.864  0.00  0.00    +0.000 C 
ATOM     15  C   UNL     1       8.807  14.116  18.055  0.00  0.00    +0.000 C 
ATOM     16  N   UNL     1       9.648  12.993  18.484  0.00  0.00    +0.000 N 
ATOM     17  C   UNL     1       9.218  11.692  18.307  0.00  0.00    +0.000 A 
ATOM     18  C   UNL     1       9.755  10.702  19.137  0.00  0.00    +0.000 A 
ATOM     19  C   UNL     1       9.271   9.390  19.107  0.00  0.00    +0.000 A 
ATOM     20  C   UNL     1       8.237   9.046  18.242  0.00  0.00    +0.000 A 
ATOM     21  C   UNL     1       7.778  10.103  17.435  0.00  0.00    +0.000 A 
ATOM     22  N   UNL     1       8.225  11.392  17.453  0.00  0.00    +0.000 NA
ATOM     23  C   UNL     1      11.076  13.255  18.213  0.00  0.00    +0.000 C 
ATOM     24  C   UNL     1      11.505  14.478  19.049  0.00  0.00    +0.000 C 
ENDBRANCH   1  20
BRANCH   7  25
ATOM     25  C   UNL     1       4.089   4.649  16.804  0.00  0.00    +0.000 C 
BRANCH  25  26
ATOM     26  C   UNL     1       3.372   4.685  18.125  0.00  0.00    +0.000 A 
ATOM     27  C   UNL     1       3.511   3.586  18.984  0.00  0.00    +0.000 A 
ATOM     28  F   UNL     1       4.202   2.509  18.584  0.00  0.00    +0.000 F 
ATOM     29  C   UNL     1       3.026   3.603  20.291  0.00  0.00    +0.000 A 
ATOM     30  C   UNL     1       2.376   4.735  20.767  0.00  0.00    +0.000 A 
ATOM     31  C   UNL     1       2.233   5.840  19.935  0.00  0.00    +0.000 A 
ATOM     32  F   UNL     1       1.643   6.937  20.433  0.00  0.00    +0.000 F 
ATOM     33  C   UNL     1       2.731   5.830  18.625  0.00  0.00    +0.000 A 
ATOM     34 CL   UNL     1       2.616   7.300  17.723  0.00  0.00    +0.000 Cl
ENDBRANCH  25  26
ENDBRANCH   7  25
TORSDOF 3
ENDMDL
MODEL 6
REMARK VINA RESULT:      -8.9      4.876      7.745
REMARK  Name = 
REMARK  4 active torsions:
REMARK  status: ('A' for Active; 'I' for Inactive)
REMARK    1  A    between atoms: C_1  and  N_2
REMARK    2  A    between atoms: C_9  and  C_10
REMARK    3  A    between atoms: N_16  and  C_17
REMARK    4  A    between atoms: C_17  and  C_18
REMARK                            x       y       z     vdW  Elec       q    Type
REMARK                         _______ _______ _______ _____ _____    ______ ____
ROOT
ATOM      1  C   UNL     1       7.518   7.759  18.260  0.00  0.00    +0.000 A 
ATOM      2  C   UNL     1       8.146   6.635  18.805  0.00  0.00    +0.000 A 
ATOM      3  N   UNL     1       7.918   5.362  18.411  0.00  0.00    +0.000 NA
ATOM      4  C   UNL     1       6.912   5.194  17.546  0.00  0.00    +0.000 A 
ATOM      5  C   UNL     1       5.937   6.182  17.292  0.00  0.00    +0.000 A 
ATOM      6  C   UNL     1       6.312   7.503  17.577  0.00  0.00    +0.000 A 
ATOM      7  N   UNL     1       4.822   5.886  16.405  0.00  0.00    +0.000 N 
ATOM      8  C   UNL     1       5.577   5.573  15.146  0.00  0.00    +0.000 C 
ATOM      9  C   UNL     1       6.538   4.343  15.324  0.00  0.00    +0.000 C 
ATOM     10  N   UNL     1       6.919   4.049  16.725  0.00  0.00    +0.000 N 
ATOM     11  H   UNL     1       7.782   3.540  16.881  0.00  0.00    +0.000 HD
ENDROOT
BRANCH   1  20
ATOM     12  C   UNL     1      11.151  16.755  19.559  0.00  0.00    +0.000 C 
ATOM     13  N   UNL     1      10.741  15.690  18.644  0.00  0.00    +0.000 NA
ATOM     14  C   UNL     1       9.293  15.385  18.807  0.00  0.00    +0.000 C 
ATOM     15  C   UNL     1       8.814  14.130  18.012  0.00  0.00    +0.000 C 
ATOM     16  N   UNL     1       9.667  13.001  18.403  0.00  0.00    +0.000 N 
ATOM     17  C   UNL     1       9.222  11.703  18.238  0.00  0.00    +0.000 A 
ATOM     18  C   UNL     1       9.786  10.707  19.042  0.00  0.00    +0.000 A 
ATOM     19  C   UNL     1       9.295   9.398  19.026  0.00  0.00    +0.000 A 
ATOM     20  C   UNL     1       8.226   9.062  18.202  0.00  0.00    +0.000 A 
ATOM     21  C   UNL     1       7.740  10.125  17.418  0.00  0.00    +0.000 A 
ATOM     22  N   UNL     1       8.194  11.411  17.422  0.00  0.00    +0.000 NA
ATOM     23  C   UNL     1      11.083  13.257  18.076  0.00  0.00    +0.000 C 
ATOM     24  C   UNL     1      11.552  14.474  18.899  0.00  0.00    +0.000 C 
ENDBRANCH   1  20
BRANCH   7  25
ATOM     25  C   UNL     1       4.071   4.650  16.830  0.00  0.00    +0.000 C 
BRANCH  25  26
ATOM     26  C   UNL     1       3.457   4.669  18.201  0.00  0.00    +0.000 A 
ATOM     27  C   UNL     1       2.781   5.828  18.609  0.00  0.00    +0.000 A 
ATOM     28  F   UNL     1       2.766   6.907  17.812  0.00  0.00    +0.000 F 
ATOM     29  C   UNL     1       2.039   5.876  19.788  0.00  0.00    +0.000 A 
ATOM     30  C   UNL     1       1.965   4.749  20.598  0.00  0.00    +0.000 A 
ATOM     31  C   UNL     1       2.622   3.586  20.211  0.00  0.00    +0.000 A 
ATOM     32  F   UNL     1       2.497   2.499  20.987  0.00  0.00    +0.000 F 
ATOM     33  C   UNL     1       3.358   3.532  19.020  0.00  0.00    +0.000 A 
ATOM     34 CL   UNL     1       4.023   2.001  18.569  0.00  0.00    +0.000 Cl
ENDBRANCH  25  26
ENDBRANCH   7  25
TORSDOF 3
ENDMDL
MODEL 7
REMARK VINA RESULT:      -8.7      5.793     11.790
REMARK  Name = 
REMARK  4 active torsions:
REMARK  status: ('A' for Active; 'I' for Inactive)
REMARK    1  A    between atoms: C_1  and  N_2
REMARK    2  A    between atoms: C_9  and  C_10
REMARK    3  A    between atoms: N_16  and  C_17
REMARK    4  A    between atoms: C_17  and  C_18
REMARK                            x       y       z     vdW  Elec       q    Type
REMARK                         _______ _______ _______ _____ _____    ______ ____
ROOT
ATOM      1  C   UNL     1       0.314  10.443  19.554  0.00  0.00    +0.000 A 
ATOM      2  C   UNL     1       0.729  11.568  18.833  0.00  0.00    +0.000 A 
ATOM      3  N   UNL     1       0.460  12.846  19.182  0.00  0.00    +0.000 NA
ATOM      4  C   UNL     1      -0.386  13.001  20.207  0.00  0.00    +0.000 A 
ATOM      5  C   UNL     1      -1.205  11.962  20.698  0.00  0.00    +0.000 A 
ATOM      6  C   UNL     1      -0.768  10.656  20.431  0.00  0.00    +0.000 A 
ATOM      7  N   UNL     1      -2.165  12.238  21.756  0.00  0.00    +0.000 N 
ATOM      8  C   UNL     1      -1.229  12.706  22.831  0.00  0.00    +0.000 C 
ATOM      9  C   UNL     1      -0.432  13.990  22.403  0.00  0.00    +0.000 C 
ATOM     10  N   UNL     1      -0.337  14.203  20.940  0.00  0.00    +0.000 N 
ATOM     11  H   UNL     1       0.434  14.765  20.595  0.00  0.00    +0.000 HD
ENDROOT
BRANCH   1  20
ATOM     12  C   UNL     1       4.113   1.457  18.760  0.00  0.00    +0.000 C 
ATOM     13  N   UNL     1       4.031   2.723  19.489  0.00  0.00    +0.000 NA
ATOM     14  C   UNL     1       2.644   2.961  19.976  0.00  0.00    +0.000 C 
ATOM     15  C   UNL     1       2.422   4.377  20.593  0.00  0.00    +0.000 C 
ATOM     16  N   UNL     1       2.838   5.370  19.596  0.00  0.00    +0.000 N 
ATOM     17  C   UNL     1       2.350   6.661  19.653  0.00  0.00    +0.000 A 
ATOM     18  C   UNL     1       2.341   7.414  18.475  0.00  0.00    +0.000 A 
ATOM     19  C   UNL     1       1.740   8.676  18.425  0.00  0.00    +0.000 A 
ATOM     20  C   UNL     1       1.137   9.208  19.560  0.00  0.00    +0.000 A 
ATOM     21  C   UNL     1       1.215   8.386  20.700  0.00  0.00    +0.000 A 
ATOM     22  N   UNL     1       1.784   7.149  20.771  0.00  0.00    +0.000 NA
ATOM     23  C   UNL     1       4.266   5.223  19.252  0.00  0.00    +0.000 C 
ATOM     24  C   UNL     1       4.462   3.835  18.608  0.00  0.00    +0.000 C 
ENDBRANCH   1  20
BRANCH   7  25
ATOM     25  C   UNL     1      -3.090  13.374  21.402  0.00  0.00    +0.000 C 
BRANCH  25  26
ATOM     26  C   UNL     1      -4.552  13.045  21.283  0.00  0.00    +0.000 A 
ATOM     27  C   UNL     1      -5.004  12.452  20.095  0.00  0.00    +0.000 A 
ATOM     28  F   UNL     1      -4.152  12.268  19.076  0.00  0.00    +0.000 F 
ATOM     29  C   UNL     1      -6.301  11.959  19.961  0.00  0.00    +0.000 A 
ATOM     30  C   UNL     1      -7.186  12.060  21.028  0.00  0.00    +0.000 A 
ATOM     31  C   UNL     1      -6.759  12.638  22.218  0.00  0.00    +0.000 A 
ATOM     32  F   UNL     1      -7.618  12.680  23.247  0.00  0.00    +0.000 F 
ATOM     33  C   UNL     1      -5.452  13.122  22.360  0.00  0.00    +0.000 A 
ATOM     34 CL   UNL     1      -4.986  13.699  23.921  0.00  0.00    +0.000 Cl
ENDBRANCH  25  26
ENDBRANCH   7  25
TORSDOF 3
ENDMDL
MODEL 8
REMARK VINA RESULT:      -8.7      5.346      7.588
REMARK  Name = 
REMARK  4 active torsions:
REMARK  status: ('A' for Active; 'I' for Inactive)
REMARK    1  A    between atoms: C_1  and  N_2
REMARK    2  A    between atoms: C_9  and  C_10
REMARK    3  A    between atoms: N_16  and  C_17
REMARK    4  A    between atoms: C_17  and  C_18
REMARK                            x       y       z     vdW  Elec       q    Type
REMARK                         _______ _______ _______ _____ _____    ______ ____
ROOT
ATOM      1  C   UNL     1       7.405   6.919  18.269  0.00  0.00    +0.000 A 
ATOM      2  C   UNL     1       8.173   5.762  18.432  0.00  0.00    +0.000 A 
ATOM      3  N   UNL     1       7.881   4.562  17.881  0.00  0.00    +0.000 NA
ATOM      4  C   UNL     1       6.694   4.478  17.271  0.00  0.00    +0.000 A 
ATOM      5  C   UNL     1       5.666   5.429  17.446  0.00  0.00    +0.000 A 
ATOM      6  C   UNL     1       6.072   6.704  17.866  0.00  0.00    +0.000 A 
ATOM      7  N   UNL     1       4.370   5.215  16.818  0.00  0.00    +0.000 N 
ATOM      8  C   UNL     1       4.791   5.172  15.379  0.00  0.00    +0.000 C 
ATOM      9  C   UNL     1       5.791   3.996  15.091  0.00  0.00    +0.000 C 
ATOM     10  N   UNL     1       6.519   3.493  16.280  0.00  0.00    +0.000 N 
ATOM     11  H   UNL     1       7.404   3.023  16.126  0.00  0.00    +0.000 HD
ENDROOT
BRANCH   1  20
ATOM     12  C   UNL     1      10.337  16.130  19.812  0.00  0.00    +0.000 C 
ATOM     13  N   UNL     1      10.129  15.020  18.881  0.00  0.00    +0.000 NA
ATOM     14  C   UNL     1       8.691  14.641  18.826  0.00  0.00    +0.000 C 
ATOM     15  C   UNL     1       8.407  13.342  18.009  0.00  0.00    +0.000 C 
ATOM     16  N   UNL     1       9.241  12.271  18.567  0.00  0.00    +0.000 N 
ATOM     17  C   UNL     1       8.894  10.948  18.379  0.00  0.00    +0.000 A 
ATOM     18  C   UNL     1       9.372  10.005  19.295  0.00  0.00    +0.000 A 
ATOM     19  C   UNL     1       8.955   8.671  19.248  0.00  0.00    +0.000 A 
ATOM     20  C   UNL     1       8.048   8.256  18.278  0.00  0.00    +0.000 A 
ATOM     21  C   UNL     1       7.640   9.271  17.392  0.00  0.00    +0.000 A 
ATOM     22  N   UNL     1       8.023  10.579  17.423  0.00  0.00    +0.000 NA
ATOM     23  C   UNL     1      10.678  12.595  18.457  0.00  0.00    +0.000 C 
ATOM     24  C   UNL     1      10.949  13.857  19.301  0.00  0.00    +0.000 C 
ENDBRANCH   1  20
BRANCH   7  25
ATOM     25  C   UNL     1       3.776   3.879  17.182  0.00  0.00    +0.000 C 
BRANCH  25  26
ATOM     26  C   UNL     1       2.971   3.817  18.450  0.00  0.00    +0.000 A 
ATOM     27  C   UNL     1       1.625   4.208  18.400  0.00  0.00    +0.000 A 
ATOM     28  F   UNL     1       1.114   4.697  17.260  0.00  0.00    +0.000 F 
ATOM     29  C   UNL     1       0.762   4.025  19.478  0.00  0.00    +0.000 A 
ATOM     30  C   UNL     1       1.238   3.445  20.648  0.00  0.00    +0.000 A 
ATOM     31  C   UNL     1       2.568   3.044  20.718  0.00  0.00    +0.000 A 
ATOM     32  F   UNL     1       2.991   2.444  21.841  0.00  0.00    +0.000 F 
ATOM     33  C   UNL     1       3.435   3.215  19.631  0.00  0.00    +0.000 A 
ATOM     34 CL   UNL     1       5.028   2.561  19.778  0.00  0.00    +0.000 Cl
ENDBRANCH  25  26
ENDBRANCH   7  25
TORSDOF 3
ENDMDL
MODEL 9
REMARK VINA RESULT:      -8.5      6.033     11.921
REMARK  Name = 
REMARK  4 active torsions:
REMARK  status: ('A' for Active; 'I' for Inactive)
REMARK    1  A    between atoms: C_1  and  N_2
REMARK    2  A    between atoms: C_9  and  C_10
REMARK    3  A    between atoms: N_16  and  C_17
REMARK    4  A    between atoms: C_17  and  C_18
REMARK                            x       y       z     vdW  Elec       q    Type
REMARK                         _______ _______ _______ _____ _____    ______ ____
ROOT
ATOM      1  C   UNL     1       0.174  10.542  19.721  0.00  0.00    +0.000 A 
ATOM      2  C   UNL     1       0.518  11.648  18.937  0.00  0.00    +0.000 A 
ATOM      3  N   UNL     1       0.248  12.933  19.261  0.00  0.00    +0.000 NA
ATOM      4  C   UNL     1      -0.531  13.108  20.335  0.00  0.00    +0.000 A 
ATOM      5  C   UNL     1      -1.295  12.073  20.914  0.00  0.00    +0.000 A 
ATOM      6  C   UNL     1      -0.852  10.766  20.661  0.00  0.00    +0.000 A 
ATOM      7  N   UNL     1      -2.188  12.367  22.024  0.00  0.00    +0.000 N 
ATOM      8  C   UNL     1      -1.192  12.888  23.018  0.00  0.00    +0.000 C 
ATOM      9  C   UNL     1      -0.451  14.170  22.495  0.00  0.00    +0.000 C 
ATOM     10  N   UNL     1      -0.457  14.335  21.023  0.00  0.00    +0.000 N 
ATOM     11  H   UNL     1       0.278  14.898  20.609  0.00  0.00    +0.000 HD
ENDROOT
BRANCH   1  20
ATOM     12  C   UNL     1       4.142   1.640  18.812  0.00  0.00    +0.000 C 
ATOM     13  N   UNL     1       4.033   2.893  19.560  0.00  0.00    +0.000 NA
ATOM     14  C   UNL     1       2.640   3.098  20.043  0.00  0.00    +0.000 C 
ATOM     15  C   UNL     1       2.389   4.501  20.680  0.00  0.00    +0.000 C 
ATOM     16  N   UNL     1       2.791   5.516  19.700  0.00  0.00    +0.000 N 
ATOM     17  C   UNL     1       2.279   6.797  19.774  0.00  0.00    +0.000 A 
ATOM     18  C   UNL     1       2.261   7.567  18.606  0.00  0.00    +0.000 A 
ATOM     19  C   UNL     1       1.637   8.818  18.573  0.00  0.00    +0.000 A 
ATOM     20  C   UNL     1       1.019   9.323  19.712  0.00  0.00    +0.000 A 
ATOM     21  C   UNL     1       1.107   8.485  20.840  0.00  0.00    +0.000 A 
ATOM     22  N   UNL     1       1.699   7.257  20.896  0.00  0.00    +0.000 NA
ATOM     23  C   UNL     1       4.223   5.400  19.360  0.00  0.00    +0.000 C 
ATOM     24  C   UNL     1       4.447   4.026  18.696  0.00  0.00    +0.000 C 
ENDBRANCH   1  20
BRANCH   7  25
ATOM     25  C   UNL     1      -3.157  13.474  21.696  0.00  0.00    +0.000 C 
BRANCH  25  26
ATOM     26  C   UNL     1      -4.618  13.172  21.878  0.00  0.00    +0.000 A 
ATOM     27  C   UNL     1      -5.239  13.593  23.063  0.00  0.00    +0.000 A 
ATOM     28  F   UNL     1      -4.511  14.175  24.028  0.00  0.00    +0.000 F 
ATOM     29  C   UNL     1      -6.618  13.509  23.245  0.00  0.00    +0.000 A 
ATOM     30  C   UNL     1      -7.413  12.986  22.233  0.00  0.00    +0.000 A 
ATOM     31  C   UNL     1      -6.821  12.569  21.046  0.00  0.00    +0.000 A 
ATOM     32  F   UNL     1      -7.615  12.112  20.067  0.00  0.00    +0.000 F 
ATOM     33  C   UNL     1      -5.436  12.664  20.855  0.00  0.00    +0.000 A 
ATOM     34 CL   UNL     1      -4.821  12.242  19.296  0.00  0.00    +0.000 Cl
ENDBRANCH  25  26
ENDBRANCH   7  25
TORSDOF 3
ENDMDL
