MODEL 1
REMARK VINA RESULT:      -7.2      0.000      0.000
REMARK  Name = 
REMARK  8 active torsions:
REMARK  status: ('A' for Active; 'I' for Inactive)
REMARK    1  A    between atoms: C_1  and  O_2
REMARK    2  A    between atoms: O_2  and  C_3
REMARK    3  A    between atoms: C_6  and  C_7
REMARK    4  A    between atoms: N_8  and  N_9
REMARK    5  A    between atoms: C_10  and  C_12
REMARK    6  A    between atoms: C_17  and  O_18
REMARK    7  A    between atoms: O_18  and  C_19
REMARK    8  A    between atoms: C_20  and  O_21
REMARK                            x       y       z     vdW  Elec       q    Type
REMARK                         _______ _______ _______ _____ _____    ______ ____
ROOT
ATOM      1  C   UNL     1       8.316   9.756  18.173  0.00  0.00    +0.000 C 
ATOM      2  N   UNL     1       8.543   8.484  18.253  0.00  0.00    +0.000 NA
ENDROOT
BRANCH   1   6
ATOM      3  C   UNL     1      11.338  12.501  19.484  0.00  0.00    +0.000 A 
ATOM      4  C   UNL     1      11.013  12.386  18.128  0.00  0.00    +0.000 A 
ATOM      5  C   UNL     1      10.022  11.494  17.701  0.00  0.00    +0.000 A 
ATOM      6  C   UNL     1       9.352  10.705  18.639  0.00  0.00    +0.000 A 
ATOM      7  C   UNL     1       9.677  10.825  19.996  0.00  0.00    +0.000 A 
ATOM      8  C   UNL     1      10.666  11.715  20.415  0.00  0.00    +0.000 A 
BRANCH   3  10
ATOM      9  C   UNL     1      12.260  14.651  19.075  0.00  0.00    +0.000 C 
ATOM     10  O   UNL     1      12.325  13.409  19.768  0.00  0.00    +0.000 OA
ENDBRANCH   3  10
BRANCH   7  11
ATOM     11  O   UNL     1       9.071  10.100  20.989  0.00  0.00    +0.000 OA
ATOM     12  H   UNL     1       9.600  10.190  21.818  0.00  0.00    +0.000 HD
ENDBRANCH   7  11
ENDBRANCH   1   6
BRANCH   2  13
ATOM     13  N   UNL     1       7.586   7.633  17.807  0.00  0.00    +0.000 N 
ATOM     14  C   UNL     1       7.468   6.388  18.432  0.00  0.00    +0.000 C 
ATOM     15  O   UNL     1       8.202   6.019  19.343  0.00  0.00    +0.000 OA
ATOM     16  H   UNL     1       7.012   7.892  17.016  0.00  0.00    +0.000 HD
BRANCH  14  17
ATOM     17  C   UNL     1       6.343   5.526  17.950  0.00  0.00    +0.000 A 
ATOM     18  C   UNL     1       5.402   5.053  18.884  0.00  0.00    +0.000 A 
ATOM     19  C   UNL     1       4.360   4.217  18.483  0.00  0.00    +0.000 A 
ATOM     20  C   UNL     1       4.259   3.829  17.152  0.00  0.00    +0.000 A 
ATOM     21  C   UNL     1       5.195   4.277  16.218  0.00  0.00    +0.000 A 
ATOM     22  C   UNL     1       6.244   5.128  16.599  0.00  0.00    +0.000 A 
BRANCH  22  23
ATOM     23  O   UNL     1       7.170   5.619  15.718  0.00  0.00    +0.000 OA
ATOM     24  C   UNL     1       7.290   4.991  14.447  0.00  0.00    +0.000 C 
ENDBRANCH  22  23
ENDBRANCH  14  17
ENDBRANCH   2  13
TORSDOF 6
ENDMDL
MODEL 2
REMARK VINA RESULT:      -7.2      1.534      8.727
REMARK  Name = 
REMARK  8 active torsions:
REMARK  status: ('A' for Active; 'I' for Inactive)
REMARK    1  A    between atoms: C_1  and  O_2
REMARK    2  A    between atoms: O_2  and  C_3
REMARK    3  A    between atoms: C_6  and  C_7
REMARK    4  A    between atoms: N_8  and  N_9
REMARK    5  A    between atoms: C_10  and  C_12
REMARK    6  A    between atoms: C_17  and  O_18
REMARK    7  A    between atoms: O_18  and  C_19
REMARK    8  A    between atoms: C_20  and  O_21
REMARK                            x       y       z     vdW  Elec       q    Type
REMARK                         _______ _______ _______ _____ _____    ______ ____
ROOT
ATOM      1  C   UNL     1       7.995   6.772  18.662  0.00  0.00    +0.000 C 
ATOM      2  N   UNL     1       7.962   7.998  18.246  0.00  0.00    +0.000 NA
ENDROOT
BRANCH   1   6
ATOM      3  C   UNL     1       4.914   4.038  17.469  0.00  0.00    +0.000 A 
ATOM      4  C   UNL     1       5.097   4.371  18.815  0.00  0.00    +0.000 A 
ATOM      5  C   UNL     1       6.099   5.269  19.204  0.00  0.00    +0.000 A 
ATOM      6  C   UNL     1       6.931   5.836  18.236  0.00  0.00    +0.000 A 
ATOM      7  C   UNL     1       6.744   5.504  16.888  0.00  0.00    +0.000 A 
ATOM      8  C   UNL     1       5.744   4.609  16.508  0.00  0.00    +0.000 A 
BRANCH   3  10
ATOM      9  C   UNL     1       2.583   3.595  17.522  0.00  0.00    +0.000 C 
ATOM     10  O   UNL     1       3.901   3.149  17.223  0.00  0.00    +0.000 OA
ENDBRANCH   3  10
BRANCH   7  11
ATOM     11  O   UNL     1       7.504   6.014  15.868  0.00  0.00    +0.000 OA
ATOM     12  H   UNL     1       7.334   6.984  15.798  0.00  0.00    +0.000 HD
ENDBRANCH   7  11
ENDBRANCH   1   6
BRANCH   2  13
ATOM     13  N   UNL     1       8.955   8.834  18.637  0.00  0.00    +0.000 N 
ATOM     14  C   UNL     1       8.855  10.185  18.287  0.00  0.00    +0.000 C 
ATOM     15  O   UNL     1       7.930  10.642  17.624  0.00  0.00    +0.000 OA
ATOM     16  H   UNL     1       9.757   8.466  19.130  0.00  0.00    +0.000 HD
BRANCH  14  17
ATOM     17  C   UNL     1       9.939  11.072  18.817  0.00  0.00    +0.000 A 
ATOM     18  C   UNL     1      10.910  11.563  17.924  0.00  0.00    +0.000 A 
ATOM     19  C   UNL     1      11.959  12.361  18.383  0.00  0.00    +0.000 A 
ATOM     20  C   UNL     1      12.057  12.661  19.736  0.00  0.00    +0.000 A 
ATOM     21  C   UNL     1      11.110  12.166  20.636  0.00  0.00    +0.000 A 
ATOM     22  C   UNL     1      10.042  11.371  20.192  0.00  0.00    +0.000 A 
BRANCH  22  23
ATOM     23  O   UNL     1       9.071  10.886  21.027  0.00  0.00    +0.000 OA
ATOM     24  C   UNL     1       8.589  11.733  22.064  0.00  0.00    +0.000 C 
ENDBRANCH  22  23
ENDBRANCH  14  17
ENDBRANCH   2  13
TORSDOF 6
ENDMDL
MODEL 3
REMARK VINA RESULT:      -7.1      1.292      1.539
REMARK  Name = 
REMARK  8 active torsions:
REMARK  status: ('A' for Active; 'I' for Inactive)
REMARK    1  A    between atoms: C_1  and  O_2
REMARK    2  A    between atoms: O_2  and  C_3
REMARK    3  A    between atoms: C_6  and  C_7
REMARK    4  A    between atoms: N_8  and  N_9
REMARK    5  A    between atoms: C_10  and  C_12
REMARK    6  A    between atoms: C_17  and  O_18
REMARK    7  A    between atoms: O_18  and  C_19
REMARK    8  A    between atoms: C_20  and  O_21
REMARK                            x       y       z     vdW  Elec       q    Type
REMARK                         _______ _______ _______ _____ _____    ______ ____
ROOT
ATOM      1  C   UNL     1       7.960   9.826  17.933  0.00  0.00    +0.000 C 
ATOM      2  N   UNL     1       8.364   8.714  17.409  0.00  0.00    +0.000 NA
ENDROOT
BRANCH   1   6
ATOM      3  C   UNL     1      10.840  12.861  18.872  0.00  0.00    +0.000 A 
ATOM      4  C   UNL     1      10.975  11.563  19.376  0.00  0.00    +0.000 A 
ATOM      5  C   UNL     1      10.038  10.571  19.064  0.00  0.00    +0.000 A 
ATOM      6  C   UNL     1       8.951  10.881  18.243  0.00  0.00    +0.000 A 
ATOM      7  C   UNL     1       8.821  12.180  17.736  0.00  0.00    +0.000 A 
ATOM      8  C   UNL     1       9.757  13.164  18.052  0.00  0.00    +0.000 A 
BRANCH   3  10
ATOM      9  C   UNL     1      11.395  15.036  19.644  0.00  0.00    +0.000 C 
ATOM     10  O   UNL     1      11.824  13.736  19.253  0.00  0.00    +0.000 OA
ENDBRANCH   3  10
BRANCH   7  11
ATOM     11  O   UNL     1       7.794  12.577  16.919  0.00  0.00    +0.000 OA
ATOM     12  H   UNL     1       7.008  12.790  17.476  0.00  0.00    +0.000 HD
ENDBRANCH   7  11
ENDBRANCH   1   6
BRANCH   2  13
ATOM     13  N   UNL     1       7.438   7.767  17.121  0.00  0.00    +0.000 N 
ATOM     14  C   UNL     1       7.359   6.646  17.953  0.00  0.00    +0.000 C 
ATOM     15  O   UNL     1       8.102   6.466  18.912  0.00  0.00    +0.000 OA
ATOM     16  H   UNL     1       6.858   7.866  16.298  0.00  0.00    +0.000 HD
BRANCH  14  17
ATOM     17  C   UNL     1       6.264   5.676  17.631  0.00  0.00    +0.000 A 
ATOM     18  C   UNL     1       5.193   5.538  18.534  0.00  0.00    +0.000 A 
ATOM     19  C   UNL     1       4.172   4.619  18.292  0.00  0.00    +0.000 A 
ATOM     20  C   UNL     1       4.220   3.818  17.157  0.00  0.00    +0.000 A 
ATOM     21  C   UNL     1       5.286   3.932  16.261  0.00  0.00    +0.000 A 
ATOM     22  C   UNL     1       6.316   4.858  16.482  0.00  0.00    +0.000 A 
BRANCH  22  23
ATOM     23  O   UNL     1       7.367   5.031  15.621  0.00  0.00    +0.000 OA
ATOM     24  C   UNL     1       7.135   4.847  14.230  0.00  0.00    +0.000 C 
ENDBRANCH  22  23
ENDBRANCH  14  17
ENDBRANCH   2  13
TORSDOF 6
ENDMDL
MODEL 4
REMARK VINA RESULT:      -6.9      1.696      8.688
REMARK  Name = 
REMARK  8 active torsions:
REMARK  status: ('A' for Active; 'I' for Inactive)
REMARK    1  A    between atoms: C_1  and  O_2
REMARK    2  A    between atoms: O_2  and  C_3
REMARK    3  A    between atoms: C_6  and  C_7
REMARK    4  A    between atoms: N_8  and  N_9
REMARK    5  A    between atoms: C_10  and  C_12
REMARK    6  A    between atoms: C_17  and  O_18
REMARK    7  A    between atoms: O_18  and  C_19
REMARK    8  A    between atoms: C_20  and  O_21
REMARK                            x       y       z     vdW  Elec       q    Type
REMARK                         _______ _______ _______ _____ _____    ______ ____
ROOT
ATOM      1  C   UNL     1       7.952   7.029  18.060  0.00  0.00    +0.000 C 
ATOM      2  N   UNL     1       7.810   8.316  18.063  0.00  0.00    +0.000 NA
ENDROOT
BRANCH   1   6
ATOM      3  C   UNL     1       4.635   4.592  16.856  0.00  0.00    +0.000 A 
ATOM      4  C   UNL     1       4.485   5.971  17.033  0.00  0.00    +0.000 A 
ATOM      5  C   UNL     1       5.570   6.768  17.421  0.00  0.00    +0.000 A 
ATOM      6  C   UNL     1       6.817   6.178  17.638  0.00  0.00    +0.000 A 
ATOM      7  C   UNL     1       6.966   4.797  17.455  0.00  0.00    +0.000 A 
ATOM      8  C   UNL     1       5.881   4.009  17.070  0.00  0.00    +0.000 A 
BRANCH   3  10
ATOM      9  C   UNL     1       2.605   3.558  17.522  0.00  0.00    +0.000 C 
ATOM     10  O   UNL     1       3.498   3.928  16.477  0.00  0.00    +0.000 OA
ENDBRANCH   3  10
BRANCH   7  11
ATOM     11  O   UNL     1       8.150   4.130  17.637  0.00  0.00    +0.000 OA
ATOM     12  H   UNL     1       7.954   3.206  17.923  0.00  0.00    +0.000 HD
ENDBRANCH   7  11
ENDBRANCH   1   6
BRANCH   2  13
ATOM     13  N   UNL     1       8.866   9.076  18.441  0.00  0.00    +0.000 N 
ATOM     14  C   UNL     1       8.839  10.441  18.135  0.00  0.00    +0.000 C 
ATOM     15  O   UNL     1       7.922  10.975  17.521  0.00  0.00    +0.000 OA
ATOM     16  H   UNL     1       9.661   8.644  18.892  0.00  0.00    +0.000 HD
BRANCH  14  17
ATOM     17  C   UNL     1       9.995  11.242  18.649  0.00  0.00    +0.000 A 
ATOM     18  C   UNL     1      10.904  11.791  17.725  0.00  0.00    +0.000 A 
ATOM     19  C   UNL     1      12.015  12.511  18.163  0.00  0.00    +0.000 A 
ATOM     20  C   UNL     1      12.239  12.675  19.525  0.00  0.00    +0.000 A 
ATOM     21  C   UNL     1      11.354  12.122  20.453  0.00  0.00    +0.000 A 
ATOM     22  C   UNL     1      10.225  11.403  20.032  0.00  0.00    +0.000 A 
BRANCH  22  23
ATOM     23  O   UNL     1       9.311  10.866  20.899  0.00  0.00    +0.000 OA
ATOM     24  C   UNL     1       8.668  11.736  21.823  0.00  0.00    +0.000 C 
ENDBRANCH  22  23
ENDBRANCH  14  17
ENDBRANCH   2  13
TORSDOF 6
ENDMDL
MODEL 5
REMARK VINA RESULT:      -6.8      1.635      2.527
REMARK  Name = 
REMARK  8 active torsions:
REMARK  status: ('A' for Active; 'I' for Inactive)
REMARK    1  A    between atoms: C_1  and  O_2
REMARK    2  A    between atoms: O_2  and  C_3
REMARK    3  A    between atoms: C_6  and  C_7
REMARK    4  A    between atoms: N_8  and  N_9
REMARK    5  A    between atoms: C_10  and  C_12
REMARK    6  A    between atoms: C_17  and  O_18
REMARK    7  A    between atoms: O_18  and  C_19
REMARK    8  A    between atoms: C_20  and  O_21
REMARK                            x       y       z     vdW  Elec       q    Type
REMARK                         _______ _______ _______ _____ _____    ______ ____
ROOT
ATOM      1  C   UNL     1       8.213  10.019  17.637  0.00  0.00    +0.000 C 
ATOM      2  N   UNL     1       8.245   8.809  18.097  0.00  0.00    +0.000 NA
ENDROOT
BRANCH   1   6
ATOM      3  C   UNL     1      10.514  13.037  19.633  0.00  0.00    +0.000 A 
ATOM      4  C   UNL     1      10.646  11.688  19.979  0.00  0.00    +0.000 A 
ATOM      5  C   UNL     1       9.898  10.702  19.323  0.00  0.00    +0.000 A 
ATOM      6  C   UNL     1       9.007  11.070  18.313  0.00  0.00    +0.000 A 
ATOM      7  C   UNL     1       8.880  12.421  17.965  0.00  0.00    +0.000 A 
ATOM      8  C   UNL     1       9.626  13.398  18.623  0.00  0.00    +0.000 A 
BRANCH   3  10
ATOM      9  C   UNL     1      10.728  15.166  20.662  0.00  0.00    +0.000 C 
ATOM     10  O   UNL     1      11.300  13.900  20.351  0.00  0.00    +0.000 OA
ENDBRANCH   3  10
BRANCH   7  11
ATOM     11  O   UNL     1       8.038  12.876  16.985  0.00  0.00    +0.000 OA
ATOM     12  H   UNL     1       8.124  13.857  16.921  0.00  0.00    +0.000 HD
ENDBRANCH   7  11
ENDBRANCH   1   6
BRANCH   2  13
ATOM     13  N   UNL     1       7.521   7.860  17.455  0.00  0.00    +0.000 N 
ATOM     14  C   UNL     1       7.518   6.564  17.980  0.00  0.00    +0.000 C 
ATOM     15  O   UNL     1       8.158   6.240  18.975  0.00  0.00    +0.000 OA
ATOM     16  H   UNL     1       7.037   8.091  16.597  0.00  0.00    +0.000 HD
BRANCH  14  17
ATOM     17  C   UNL     1       6.637   5.581  17.274  0.00  0.00    +0.000 A 
ATOM     18  C   UNL     1       7.068   5.042  16.047  0.00  0.00    +0.000 A 
ATOM     19  C   UNL     1       6.261   4.153  15.338  0.00  0.00    +0.000 A 
ATOM     20  C   UNL     1       5.010   3.807  15.837  0.00  0.00    +0.000 A 
ATOM     21  C   UNL     1       4.563   4.348  17.045  0.00  0.00    +0.000 A 
ATOM     22  C   UNL     1       5.365   5.235  17.778  0.00  0.00    +0.000 A 
BRANCH  22  23
ATOM     23  O   UNL     1       4.986   5.770  18.981  0.00  0.00    +0.000 OA
ATOM     24  C   UNL     1       3.777   5.308  19.572  0.00  0.00    +0.000 C 
ENDBRANCH  22  23
ENDBRANCH  14  17
ENDBRANCH   2  13
TORSDOF 6
ENDMDL
MODEL 6
REMARK VINA RESULT:      -6.8      6.834      8.668
REMARK  Name = 
REMARK  8 active torsions:
REMARK  status: ('A' for Active; 'I' for Inactive)
REMARK    1  A    between atoms: C_1  and  O_2
REMARK    2  A    between atoms: O_2  and  C_3
REMARK    3  A    between atoms: C_6  and  C_7
REMARK    4  A    between atoms: N_8  and  N_9
REMARK    5  A    between atoms: C_10  and  C_12
REMARK    6  A    between atoms: C_17  and  O_18
REMARK    7  A    between atoms: O_18  and  C_19
REMARK    8  A    between atoms: C_20  and  O_21
REMARK                            x       y       z     vdW  Elec       q    Type
REMARK                         _______ _______ _______ _____ _____    ______ ____
ROOT
ATOM      1  C   UNL     1       1.292   8.608  21.119  0.00  0.00    +0.000 C 
ATOM      2  N   UNL     1       1.511   8.561  19.844  0.00  0.00    +0.000 NA
ENDROOT
BRANCH   1   6
ATOM      3  C   UNL     1      -1.097  11.779  22.738  0.00  0.00    +0.000 A 
ATOM      4  C   UNL     1      -1.135  10.497  23.294  0.00  0.00    +0.000 A 
ATOM      5  C   UNL     1      -0.350   9.463  22.769  0.00  0.00    +0.000 A 
ATOM      6  C   UNL     1       0.479   9.713  21.673  0.00  0.00    +0.000 A 
ATOM      7  C   UNL     1       0.518  11.000  21.120  0.00  0.00    +0.000 A 
ATOM      8  C   UNL     1      -0.267  12.025  21.647  0.00  0.00    +0.000 A 
BRANCH   3  10
ATOM      9  C   UNL     1      -3.314  12.509  23.174  0.00  0.00    +0.000 C 
ATOM     10  O   UNL     1      -1.913  12.699  23.343  0.00  0.00    +0.000 OA
ENDBRANCH   3  10
BRANCH   7  11
ATOM     11  O   UNL     1       1.304  11.343  20.051  0.00  0.00    +0.000 OA
ATOM     12  H   UNL     1       1.415  12.323  20.039  0.00  0.00    +0.000 HD
ENDBRANCH   7  11
ENDBRANCH   1   6
BRANCH   2  13
ATOM     13  N   UNL     1       2.247   7.533  19.357  0.00  0.00    +0.000 N 
ATOM     14  C   UNL     1       2.707   7.616  18.039  0.00  0.00    +0.000 C 
ATOM     15  O   UNL     1       2.455   8.560  17.297  0.00  0.00    +0.000 OA
ATOM     16  H   UNL     1       2.413   6.717  19.932  0.00  0.00    +0.000 HD
BRANCH  14  17
ATOM     17  C   UNL     1       3.581   6.489  17.585  0.00  0.00    +0.000 A 
ATOM     18  C   UNL     1       4.794   6.789  16.938  0.00  0.00    +0.000 A 
ATOM     19  C   UNL     1       5.620   5.769  16.465  0.00  0.00    +0.000 A 
ATOM     20  C   UNL     1       5.234   4.442  16.618  0.00  0.00    +0.000 A 
ATOM     21  C   UNL     1       4.025   4.130  17.244  0.00  0.00    +0.000 A 
ATOM     22  C   UNL     1       3.186   5.142  17.735  0.00  0.00    +0.000 A 
BRANCH  22  23
ATOM     23  O   UNL     1       2.006   4.890  18.382  0.00  0.00    +0.000 OA
ATOM     24  C   UNL     1       1.435   3.592  18.260  0.00  0.00    +0.000 C 
ENDBRANCH  22  23
ENDBRANCH  14  17
ENDBRANCH   2  13
TORSDOF 6
ENDMDL
MODEL 7
REMARK VINA RESULT:      -6.8      1.922      8.473
REMARK  Name = 
REMARK  8 active torsions:
REMARK  status: ('A' for Active; 'I' for Inactive)
REMARK    1  A    between atoms: C_1  and  O_2
REMARK    2  A    between atoms: O_2  and  C_3
REMARK    3  A    between atoms: C_6  and  C_7
REMARK    4  A    between atoms: N_8  and  N_9
REMARK    5  A    between atoms: C_10  and  C_12
REMARK    6  A    between atoms: C_17  and  O_18
REMARK    7  A    between atoms: O_18  and  C_19
REMARK    8  A    between atoms: C_20  and  O_21
REMARK                            x       y       z     vdW  Elec       q    Type
REMARK                         _______ _______ _______ _____ _____    ______ ____
ROOT
ATOM      1  C   UNL     1       7.528   8.139  17.319  0.00  0.00    +0.000 C 
ATOM      2  N   UNL     1       8.252   8.714  18.225  0.00  0.00    +0.000 NA
ENDROOT
BRANCH   1   6
ATOM      3  C   UNL     1       5.322   4.596  18.304  0.00  0.00    +0.000 A 
ATOM      4  C   UNL     1       4.873   5.467  17.306  0.00  0.00    +0.000 A 
ATOM      5  C   UNL     1       5.597   6.620  16.980  0.00  0.00    +0.000 A 
ATOM      6  C   UNL     1       6.781   6.909  17.663  0.00  0.00    +0.000 A 
ATOM      7  C   UNL     1       7.230   6.033  18.660  0.00  0.00    +0.000 A 
ATOM      8  C   UNL     1       6.504   4.887  18.980  0.00  0.00    +0.000 A 
BRANCH   3  10
ATOM      9  C   UNL     1       3.764   3.042  17.414  0.00  0.00    +0.000 C 
ATOM     10  O   UNL     1       4.522   3.506  18.527  0.00  0.00    +0.000 OA
ENDBRANCH   3  10
BRANCH   7  11
ATOM     11  O   UNL     1       8.381   6.228  19.379  0.00  0.00    +0.000 OA
ATOM     12  H   UNL     1       9.156   6.094  18.782  0.00  0.00    +0.000 HD
ENDBRANCH   7  11
ENDBRANCH   1   6
BRANCH   2  13
ATOM     13  N   UNL     1       8.917   9.846  17.892  0.00  0.00    +0.000 N 
ATOM     14  C   UNL     1       9.391  10.661  18.925  0.00  0.00    +0.000 C 
ATOM     15  O   UNL     1       9.212  10.415  20.112  0.00  0.00    +0.000 OA
ATOM     16  H   UNL     1       9.021  10.100  16.918  0.00  0.00    +0.000 HD
BRANCH  14  17
ATOM     17  C   UNL     1      10.187  11.855  18.494  0.00  0.00    +0.000 A 
ATOM     18  C   UNL     1      11.554  11.913  18.825  0.00  0.00    +0.000 A 
ATOM     19  C   UNL     1      12.323  13.024  18.477  0.00  0.00    +0.000 A 
ATOM     20  C   UNL     1      11.732  14.092  17.813  0.00  0.00    +0.000 A 
ATOM     21  C   UNL     1      10.372  14.054  17.493  0.00  0.00    +0.000 A 
ATOM     22  C   UNL     1       9.585  12.942  17.825  0.00  0.00    +0.000 A 
BRANCH  22  23
ATOM     23  O   UNL     1       8.256  12.841  17.509  0.00  0.00    +0.000 OA
ATOM     24  C   UNL     1       7.440  13.998  17.654  0.00  0.00    +0.000 C 
ENDBRANCH  22  23
ENDBRANCH  14  17
ENDBRANCH   2  13
TORSDOF 6
ENDMDL
MODEL 8
REMARK VINA RESULT:      -6.6      1.988      8.621
REMARK  Name = 
REMARK  8 active torsions:
REMARK  status: ('A' for Active; 'I' for Inactive)
REMARK    1  A    between atoms: C_1  and  O_2
REMARK    2  A    between atoms: O_2  and  C_3
REMARK    3  A    between atoms: C_6  and  C_7
REMARK    4  A    between atoms: N_8  and  N_9
REMARK    5  A    between atoms: C_10  and  C_12
REMARK    6  A    between atoms: C_17  and  O_18
REMARK    7  A    between atoms: O_18  and  C_19
REMARK    8  A    between atoms: C_20  and  O_21
REMARK                            x       y       z     vdW  Elec       q    Type
REMARK                         _______ _______ _______ _____ _____    ______ ____
ROOT
ATOM      1  C   UNL     1       7.790   8.079  17.345  0.00  0.00    +0.000 C 
ATOM      2  N   UNL     1       8.185   8.936  18.231  0.00  0.00    +0.000 NA
ENDROOT
BRANCH   1   6
ATOM      3  C   UNL     1       5.800   4.510  18.645  0.00  0.00    +0.000 A 
ATOM      4  C   UNL     1       6.886   5.027  19.359  0.00  0.00    +0.000 A 
ATOM      5  C   UNL     1       7.532   6.196  18.938  0.00  0.00    +0.000 A 
ATOM      6  C   UNL     1       7.089   6.853  17.787  0.00  0.00    +0.000 A 
ATOM      7  C   UNL     1       5.999   6.335  17.076  0.00  0.00    +0.000 A 
ATOM      8  C   UNL     1       5.361   5.170  17.501  0.00  0.00    +0.000 A 
BRANCH   3  10
ATOM      9  C   UNL     1       3.939   3.040  18.738  0.00  0.00    +0.000 C 
ATOM     10  O   UNL     1       5.259   3.362  19.163  0.00  0.00    +0.000 OA
ENDBRANCH   3  10
BRANCH   7  11
ATOM     11  O   UNL     1       5.490   6.912  15.942  0.00  0.00    +0.000 OA
ATOM     12  H   UNL     1       6.076   7.660  15.674  0.00  0.00    +0.000 HD
ENDBRANCH   7  11
ENDBRANCH   1   6
BRANCH   2  13
ATOM     13  N   UNL     1       8.812  10.058  17.803  0.00  0.00    +0.000 N 
ATOM     14  C   UNL     1       9.465  10.853  18.752  0.00  0.00    +0.000 C 
ATOM     15  O   UNL     1       9.474  10.597  19.951  0.00  0.00    +0.000 OA
ATOM     16  H   UNL     1       8.763  10.321  16.827  0.00  0.00    +0.000 HD
BRANCH  14  17
ATOM     17  C   UNL     1      10.206  12.034  18.207  0.00  0.00    +0.000 A 
ATOM     18  C   UNL     1      11.596  11.931  18.011  0.00  0.00    +0.000 A 
ATOM     19  C   UNL     1      12.331  13.019  17.542  0.00  0.00    +0.000 A 
ATOM     20  C   UNL     1      11.690  14.225  17.283  0.00  0.00    +0.000 A 
ATOM     21  C   UNL     1      10.314  14.347  17.489  0.00  0.00    +0.000 A 
ATOM     22  C   UNL     1       9.556  13.260  17.950  0.00  0.00    +0.000 A 
BRANCH  22  23
ATOM     23  O   UNL     1       8.201  13.317  18.141  0.00  0.00    +0.000 OA
ATOM     24  C   UNL     1       7.538  14.552  17.897  0.00  0.00    +0.000 C 
ENDBRANCH  22  23
ENDBRANCH  14  17
ENDBRANCH   2  13
TORSDOF 6
ENDMDL
MODEL 9
REMARK VINA RESULT:      -6.6      6.945      8.787
REMARK  Name = 
REMARK  8 active torsions:
REMARK  status: ('A' for Active; 'I' for Inactive)
REMARK    1  A    between atoms: C_1  and  O_2
REMARK    2  A    between atoms: O_2  and  C_3
REMARK    3  A    between atoms: C_6  and  C_7
REMARK    4  A    between atoms: N_8  and  N_9
REMARK    5  A    between atoms: C_10  and  C_12
REMARK    6  A    between atoms: C_17  and  O_18
REMARK    7  A    between atoms: O_18  and  C_19
REMARK    8  A    between atoms: C_20  and  O_21
REMARK                            x       y       z     vdW  Elec       q    Type
REMARK                         _______ _______ _______ _____ _____    ______ ____
ROOT
ATOM      1  C   UNL     1       0.625   8.251  21.066  0.00  0.00    +0.000 C 
ATOM      2  N   UNL     1       1.802   8.219  20.527  0.00  0.00    +0.000 NA
ENDROOT
BRANCH   1   6
ATOM      3  C   UNL     1      -0.941  11.957  22.552  0.00  0.00    +0.000 A 
ATOM      4  C   UNL     1      -1.153  10.760  23.243  0.00  0.00    +0.000 A 
ATOM      5  C   UNL     1      -0.636   9.550  22.761  0.00  0.00    +0.000 A 
ATOM      6  C   UNL     1       0.097   9.538  21.572  0.00  0.00    +0.000 A 
ATOM      7  C   UNL     1       0.311  10.739  20.883  0.00  0.00    +0.000 A 
ATOM      8  C   UNL     1      -0.207  11.939  21.368  0.00  0.00    +0.000 A 
BRANCH   3  10
ATOM      9  C   UNL     1      -2.850  12.942  23.562  0.00  0.00    +0.000 C 
ATOM     10  O   UNL     1      -1.499  13.067  23.129  0.00  0.00    +0.000 OA
ENDBRANCH   3  10
BRANCH   7  11
ATOM     11  O   UNL     1       1.021  10.827  19.714  0.00  0.00    +0.000 OA
ATOM     12  H   UNL     1       1.624  11.607  19.766  0.00  0.00    +0.000 HD
ENDBRANCH   7  11
ENDBRANCH   1   6
BRANCH   2  13
ATOM     13  N   UNL     1       2.260   7.033  20.059  0.00  0.00    +0.000 N 
ATOM     14  C   UNL     1       2.409   6.883  18.676  0.00  0.00    +0.000 C 
ATOM     15  O   UNL     1       2.122   7.760  17.869  0.00  0.00    +0.000 OA
ATOM     16  H   UNL     1       2.443   6.275  20.702  0.00  0.00    +0.000 HD
BRANCH  14  17
ATOM     17  C   UNL     1       2.994   5.580  18.225  0.00  0.00    +0.000 A 
ATOM     18  C   UNL     1       4.114   5.599  17.372  0.00  0.00    +0.000 A 
ATOM     19  C   UNL     1       4.666   4.409  16.898  0.00  0.00    +0.000 A 
ATOM     20  C   UNL     1       4.097   3.193  17.256  0.00  0.00    +0.000 A 
ATOM     21  C   UNL     1       2.976   3.160  18.089  0.00  0.00    +0.000 A 
ATOM     22  C   UNL     1       2.412   4.346  18.584  0.00  0.00    +0.000 A 
BRANCH  22  23
ATOM     23  O   UNL     1       1.332   4.368  19.427  0.00  0.00    +0.000 OA
ATOM     24  C   UNL     1       1.160   3.282  20.330  0.00  0.00    +0.000 C 
ENDBRANCH  22  23
ENDBRANCH  14  17
ENDBRANCH   2  13
TORSDOF 6
ENDMDL
