MODEL 1
REMARK VINA RESULT:      -8.5      0.000      0.000
REMARK  Name = 
REMARK  4 active torsions:
REMARK  status: ('A' for Active; 'I' for Inactive)
REMARK    1  A    between atoms: C_1  and  O_2
REMARK    2  A    between atoms: O_2  and  C_3
REMARK    3  A    between atoms: C_8  and  C_9
REMARK    4  A    between atoms: C_13  and  C_14
REMARK                            x       y       z     vdW  Elec       q    Type
REMARK                         _______ _______ _______ _____ _____    ______ ____
ROOT
ATOM      1  C   UNL     1      -0.039  10.568  21.479  0.00  0.00    +0.000 A 
ATOM      2  C   UNL     1       0.335   9.493  22.283  0.00  0.00    +0.000 A 
ATOM      3  C   UNL     1       1.075   8.438  21.744  0.00  0.00    +0.000 A 
ATOM      4  C   UNL     1       1.450   8.436  20.393  0.00  0.00    +0.000 A 
ATOM      5  C   UNL     1       2.176   7.367  19.838  0.00  0.00    +0.000 A 
ATOM      6  C   UNL     1       2.529   7.326  18.477  0.00  0.00    +0.000 A 
ATOM      7  C   UNL     1       2.155   8.426  17.687  0.00  0.00    +0.000 A 
ATOM      8  C   UNL     1       1.452   9.510  18.226  0.00  0.00    +0.000 A 
ATOM      9  C   UNL     1       1.081   9.523  19.576  0.00  0.00    +0.000 A 
ATOM     10  C   UNL     1       0.344  10.582  20.134  0.00  0.00    +0.000 A 
ENDROOT
BRANCH   6  11
ATOM     11  C   UNL     1       3.245   6.161  17.902  0.00  0.00    +0.000 A 
ATOM     12  C   UNL     1       2.646   4.893  17.820  0.00  0.00    +0.000 A 
ATOM     13  C   UNL     1       3.331   3.792  17.299  0.00  0.00    +0.000 A 
ATOM     14  C   UNL     1       4.635   3.936  16.831  0.00  0.00    +0.000 A 
ATOM     15  C   UNL     1       5.265   5.183  16.882  0.00  0.00    +0.000 A 
ATOM     16  C   UNL     1       4.565   6.278  17.423  0.00  0.00    +0.000 A 
BRANCH  15  17
ATOM     17  C   UNL     1       6.670   5.374  16.367  0.00  0.00    +0.000 C 
ATOM     18  F   UNL     1       7.230   6.562  16.731  0.00  0.00    +0.000 F 
ATOM     19  F   UNL     1       7.521   4.409  16.813  0.00  0.00    +0.000 F 
ATOM     20  F   UNL     1       6.739   5.331  15.008  0.00  0.00    +0.000 F 
ENDBRANCH  15  17
ENDBRANCH   6  11
BRANCH   1  22
ATOM     21  C   UNL     1      -1.595  11.472  23.029  0.00  0.00    +0.000 C 
ATOM     22  O   UNL     1      -0.770  11.652  21.883  0.00  0.00    +0.000 OA
ENDBRANCH   1  22
TORSDOF 3
ENDMDL
MODEL 2
REMARK VINA RESULT:      -8.4      2.151      2.777
REMARK  Name = 
REMARK  4 active torsions:
REMARK  status: ('A' for Active; 'I' for Inactive)
REMARK    1  A    between atoms: C_1  and  O_2
REMARK    2  A    between atoms: O_2  and  C_3
REMARK    3  A    between atoms: C_8  and  C_9
REMARK    4  A    between atoms: C_13  and  C_14
REMARK                            x       y       z     vdW  Elec       q    Type
REMARK                         _______ _______ _______ _____ _____    ______ ____
ROOT
ATOM      1  C   UNL     1       0.011  10.754  21.150  0.00  0.00    +0.000 A 
ATOM      2  C   UNL     1       0.304   9.692  22.002  0.00  0.00    +0.000 A 
ATOM      3  C   UNL     1       1.030   8.594  21.531  0.00  0.00    +0.000 A 
ATOM      4  C   UNL     1       1.471   8.539  20.201  0.00  0.00    +0.000 A 
ATOM      5  C   UNL     1       2.183   7.428  19.715  0.00  0.00    +0.000 A 
ATOM      6  C   UNL     1       2.601   7.333  18.375  0.00  0.00    +0.000 A 
ATOM      7  C   UNL     1       2.308   8.422  17.536  0.00  0.00    +0.000 A 
ATOM      8  C   UNL     1       1.619   9.546  18.008  0.00  0.00    +0.000 A 
ATOM      9  C   UNL     1       1.184   9.613  19.337  0.00  0.00    +0.000 A 
ATOM     10  C   UNL     1       0.460  10.714  19.826  0.00  0.00    +0.000 A 
ENDROOT
BRANCH   6  11
ATOM     11  C   UNL     1       3.300   6.127  17.869  0.00  0.00    +0.000 A 
ATOM     12  C   UNL     1       4.405   6.221  17.006  0.00  0.00    +0.000 A 
ATOM     13  C   UNL     1       5.047   5.081  16.512  0.00  0.00    +0.000 A 
ATOM     14  C   UNL     1       4.605   3.813  16.881  0.00  0.00    +0.000 A 
ATOM     15  C   UNL     1       3.517   3.674  17.748  0.00  0.00    +0.000 A 
ATOM     16  C   UNL     1       2.874   4.832  18.225  0.00  0.00    +0.000 A 
BRANCH  15  17
ATOM     17  C   UNL     1       3.027   2.314  18.179  0.00  0.00    +0.000 C 
ATOM     18  F   UNL     1       1.789   2.002  17.704  0.00  0.00    +0.000 F 
ATOM     19  F   UNL     1       3.849   1.311  17.763  0.00  0.00    +0.000 F 
ATOM     20  F   UNL     1       2.948   2.193  19.533  0.00  0.00    +0.000 F 
ENDBRANCH  15  17
ENDBRANCH   6  11
BRANCH   1  22
ATOM     21  C   UNL     1      -1.428  11.825  22.706  0.00  0.00    +0.000 C 
ATOM     22  O   UNL     1      -0.698  11.875  21.486  0.00  0.00    +0.000 OA
ENDBRANCH   1  22
TORSDOF 3
ENDMDL
MODEL 3
REMARK VINA RESULT:      -8.1      0.932      1.101
REMARK  Name = 
REMARK  4 active torsions:
REMARK  status: ('A' for Active; 'I' for Inactive)
REMARK    1  A    between atoms: C_1  and  O_2
REMARK    2  A    between atoms: O_2  and  C_3
REMARK    3  A    between atoms: C_8  and  C_9
REMARK    4  A    between atoms: C_13  and  C_14
REMARK                            x       y       z     vdW  Elec       q    Type
REMARK                         _______ _______ _______ _____ _____    ______ ____
ROOT
ATOM      1  C   UNL     1       0.259  10.804  21.062  0.00  0.00    +0.000 A 
ATOM      2  C   UNL     1       0.430   9.756  21.963  0.00  0.00    +0.000 A 
ATOM      3  C   UNL     1       1.049   8.572  21.554  0.00  0.00    +0.000 A 
ATOM      4  C   UNL     1       1.504   8.415  20.236  0.00  0.00    +0.000 A 
ATOM      5  C   UNL     1       2.108   7.218  19.811  0.00  0.00    +0.000 A 
ATOM      6  C   UNL     1       2.536   7.024  18.485  0.00  0.00    +0.000 A 
ATOM      7  C   UNL     1       2.368   8.099  17.596  0.00  0.00    +0.000 A 
ATOM      8  C   UNL     1       1.788   9.306  18.006  0.00  0.00    +0.000 A 
ATOM      9  C   UNL     1       1.340   9.473  19.322  0.00  0.00    +0.000 A 
ATOM     10  C   UNL     1       0.723  10.662  19.750  0.00  0.00    +0.000 A 
ENDROOT
BRANCH   6  11
ATOM     11  C   UNL     1       3.119   5.733  18.044  0.00  0.00    +0.000 A 
ATOM     12  C   UNL     1       2.551   4.502  18.414  0.00  0.00    +0.000 A 
ATOM     13  C   UNL     1       3.116   3.287  18.017  0.00  0.00    +0.000 A 
ATOM     14  C   UNL     1       4.261   3.272  17.225  0.00  0.00    +0.000 A 
ATOM     15  C   UNL     1       4.852   4.475  16.824  0.00  0.00    +0.000 A 
ATOM     16  C   UNL     1       4.278   5.689  17.245  0.00  0.00    +0.000 A 
BRANCH  15  17
ATOM     17  C   UNL     1       6.083   4.491  15.952  0.00  0.00    +0.000 C 
ATOM     18  F   UNL     1       7.250   4.422  16.652  0.00  0.00    +0.000 F 
ATOM     19  F   UNL     1       6.112   3.449  15.076  0.00  0.00    +0.000 F 
ATOM     20  F   UNL     1       6.170   5.618  15.193  0.00  0.00    +0.000 F 
ENDBRANCH  15  17
ENDBRANCH   6  11
BRANCH   1  22
ATOM     21  C   UNL     1      -1.122  12.577  20.296  0.00  0.00    +0.000 C 
ATOM     22  O   UNL     1      -0.339  12.003  21.337  0.00  0.00    +0.000 OA
ENDBRANCH   1  22
TORSDOF 3
ENDMDL
MODEL 4
REMARK VINA RESULT:      -8.0      0.717      1.875
REMARK  Name = 
REMARK  4 active torsions:
REMARK  status: ('A' for Active; 'I' for Inactive)
REMARK    1  A    between atoms: C_1  and  O_2
REMARK    2  A    between atoms: O_2  and  C_3
REMARK    3  A    between atoms: C_8  and  C_9
REMARK    4  A    between atoms: C_13  and  C_14
REMARK                            x       y       z     vdW  Elec       q    Type
REMARK                         _______ _______ _______ _____ _____    ______ ____
ROOT
ATOM      1  C   UNL     1       0.243  11.149  20.241  0.00  0.00    +0.000 A 
ATOM      2  C   UNL     1       0.595  11.324  18.905  0.00  0.00    +0.000 A 
ATOM      3  C   UNL     1       1.243  10.301  18.209  0.00  0.00    +0.000 A 
ATOM      4  C   UNL     1       1.554   9.086  18.838  0.00  0.00    +0.000 A 
ATOM      5  C   UNL     1       2.226   8.060  18.151  0.00  0.00    +0.000 A 
ATOM      6  C   UNL     1       2.582   6.849  18.772  0.00  0.00    +0.000 A 
ATOM      7  C   UNL     1       2.205   6.686  20.116  0.00  0.00    +0.000 A 
ATOM      8  C   UNL     1       1.516   7.688  20.811  0.00  0.00    +0.000 A 
ATOM      9  C   UNL     1       1.195   8.900  20.187  0.00  0.00    +0.000 A 
ATOM     10  C   UNL     1       0.535   9.935  20.872  0.00  0.00    +0.000 A 
ENDROOT
BRANCH   6  11
ATOM     11  C   UNL     1       3.341   5.803  18.045  0.00  0.00    +0.000 A 
ATOM     12  C   UNL     1       2.769   4.558  17.731  0.00  0.00    +0.000 A 
ATOM     13  C   UNL     1       3.495   3.566  17.067  0.00  0.00    +0.000 A 
ATOM     14  C   UNL     1       4.814   3.800  16.685  0.00  0.00    +0.000 A 
ATOM     15  C   UNL     1       5.418   5.029  16.966  0.00  0.00    +0.000 A 
ATOM     16  C   UNL     1       4.677   6.012  17.648  0.00  0.00    +0.000 A 
BRANCH  15  17
ATOM     17  C   UNL     1       6.839   5.317  16.550  0.00  0.00    +0.000 C 
ATOM     18  F   UNL     1       7.738   4.395  16.996  0.00  0.00    +0.000 F 
ATOM     19  F   UNL     1       6.986   5.356  15.196  0.00  0.00    +0.000 F 
ATOM     20  F   UNL     1       7.283   6.521  17.006  0.00  0.00    +0.000 F 
ENDBRANCH  15  17
ENDBRANCH   6  11
BRANCH   1  22
ATOM     21  C   UNL     1      -0.909  11.605  22.267  0.00  0.00    +0.000 C 
ATOM     22  O   UNL     1      -0.382  12.075  21.031  0.00  0.00    +0.000 OA
ENDBRANCH   1  22
TORSDOF 3
ENDMDL
MODEL 5
REMARK VINA RESULT:      -7.9      3.134      3.904
REMARK  Name = 
REMARK  4 active torsions:
REMARK  status: ('A' for Active; 'I' for Inactive)
REMARK    1  A    between atoms: C_1  and  O_2
REMARK    2  A    between atoms: O_2  and  C_3
REMARK    3  A    between atoms: C_8  and  C_9
REMARK    4  A    between atoms: C_13  and  C_14
REMARK                            x       y       z     vdW  Elec       q    Type
REMARK                         _______ _______ _______ _____ _____    ______ ____
ROOT
ATOM      1  C   UNL     1      -0.980  11.684  22.191  0.00  0.00    +0.000 A 
ATOM      2  C   UNL     1      -0.941  10.662  23.135  0.00  0.00    +0.000 A 
ATOM      3  C   UNL     1      -0.268   9.470  22.853  0.00  0.00    +0.000 A 
ATOM      4  C   UNL     1       0.374   9.279  21.620  0.00  0.00    +0.000 A 
ATOM      5  C   UNL     1       1.034   8.074  21.321  0.00  0.00    +0.000 A 
ATOM      6  C   UNL     1       1.650   7.846  20.077  0.00  0.00    +0.000 A 
ATOM      7  C   UNL     1       1.612   8.895  19.143  0.00  0.00    +0.000 A 
ATOM      8  C   UNL     1       0.978  10.110  19.432  0.00  0.00    +0.000 A 
ATOM      9  C   UNL     1       0.344  10.312  20.663  0.00  0.00    +0.000 A 
ATOM     10  C   UNL     1      -0.330  11.508  20.964  0.00  0.00    +0.000 A 
ENDROOT
BRANCH   6  11
ATOM     11  C   UNL     1       2.291   6.546  19.761  0.00  0.00    +0.000 A 
ATOM     12  C   UNL     1       3.298   6.436  18.787  0.00  0.00    +0.000 A 
ATOM     13  C   UNL     1       3.883   5.206  18.474  0.00  0.00    +0.000 A 
ATOM     14  C   UNL     1       3.483   4.050  19.142  0.00  0.00    +0.000 A 
ATOM     15  C   UNL     1       2.493   4.116  20.127  0.00  0.00    +0.000 A 
ATOM     16  C   UNL     1       1.905   5.362  20.420  0.00  0.00    +0.000 A 
BRANCH  15  17
ATOM     17  C   UNL     1       2.052   2.885  20.879  0.00  0.00    +0.000 C 
ATOM     18  F   UNL     1       2.956   2.455  21.804  0.00  0.00    +0.000 F 
ATOM     19  F   UNL     1       0.889   3.082  21.560  0.00  0.00    +0.000 F 
ATOM     20  F   UNL     1       1.827   1.824  20.057  0.00  0.00    +0.000 F 
ENDBRANCH  15  17
ENDBRANCH   6  11
BRANCH   1  22
ATOM     21  C   UNL     1      -1.082  13.982  21.602  0.00  0.00    +0.000 C 
ATOM     22  O   UNL     1      -1.612  12.888  22.342  0.00  0.00    +0.000 OA
ENDBRANCH   1  22
TORSDOF 3
ENDMDL
MODEL 6
REMARK VINA RESULT:      -7.9      4.773      6.310
REMARK  Name = 
REMARK  4 active torsions:
REMARK  status: ('A' for Active; 'I' for Inactive)
REMARK    1  A    between atoms: C_1  and  O_2
REMARK    2  A    between atoms: O_2  and  C_3
REMARK    3  A    between atoms: C_8  and  C_9
REMARK    4  A    between atoms: C_13  and  C_14
REMARK                            x       y       z     vdW  Elec       q    Type
REMARK                         _______ _______ _______ _____ _____    ______ ____
ROOT
ATOM      1  C   UNL     1       2.866   4.039  20.037  0.00  0.00    +0.000 A 
ATOM      2  C   UNL     1       3.120   2.762  19.541  0.00  0.00    +0.000 A 
ATOM      3  C   UNL     1       3.827   2.600  18.347  0.00  0.00    +0.000 A 
ATOM      4  C   UNL     1       4.291   3.711  17.627  0.00  0.00    +0.000 A 
ATOM      5  C   UNL     1       4.984   3.556  16.414  0.00  0.00    +0.000 A 
ATOM      6  C   UNL     1       5.423   4.656  15.655  0.00  0.00    +0.000 A 
ATOM      7  C   UNL     1       5.170   5.935  16.180  0.00  0.00    +0.000 A 
ATOM      8  C   UNL     1       4.500   6.109  17.397  0.00  0.00    +0.000 A 
ATOM      9  C   UNL     1       4.043   5.004  18.126  0.00  0.00    +0.000 A 
ATOM     10  C   UNL     1       3.337   5.152  19.333  0.00  0.00    +0.000 A 
ENDROOT
BRANCH   6  11
ATOM     11  C   UNL     1       6.103   4.471  14.350  0.00  0.00    +0.000 A 
ATOM     12  C   UNL     1       7.154   5.308  13.939  0.00  0.00    +0.000 A 
ATOM     13  C   UNL     1       7.776   5.146  12.697  0.00  0.00    +0.000 A 
ATOM     14  C   UNL     1       7.369   4.129  11.838  0.00  0.00    +0.000 A 
ATOM     15  C   UNL     1       6.335   3.266  12.212  0.00  0.00    +0.000 A 
ATOM     16  C   UNL     1       5.710   3.452  13.460  0.00  0.00    +0.000 A 
BRANCH  15  17
ATOM     17  C   UNL     1       5.884   2.144  11.309  0.00  0.00    +0.000 C 
ATOM     18  F   UNL     1       4.679   2.372  10.714  0.00  0.00    +0.000 F 
ATOM     19  F   UNL     1       6.762   1.909  10.295  0.00  0.00    +0.000 F 
ATOM     20  F   UNL     1       5.754   0.961  11.971  0.00  0.00    +0.000 F 
ENDBRANCH  15  17
ENDBRANCH   6  11
BRANCH   1  22
ATOM     21  C   UNL     1       1.586   3.229  21.865  0.00  0.00    +0.000 C 
ATOM     22  O   UNL     1       2.178   4.329  21.183  0.00  0.00    +0.000 OA
ENDBRANCH   1  22
TORSDOF 3
ENDMDL
MODEL 7
REMARK VINA RESULT:      -7.7      2.221      3.208
REMARK  Name = 
REMARK  4 active torsions:
REMARK  status: ('A' for Active; 'I' for Inactive)
REMARK    1  A    between atoms: C_1  and  O_2
REMARK    2  A    between atoms: O_2  and  C_3
REMARK    3  A    between atoms: C_8  and  C_9
REMARK    4  A    between atoms: C_13  and  C_14
REMARK                            x       y       z     vdW  Elec       q    Type
REMARK                         _______ _______ _______ _____ _____    ______ ____
ROOT
ATOM      1  C   UNL     1       0.191  11.494  20.270  0.00  0.00    +0.000 A 
ATOM      2  C   UNL     1       0.563  11.636  18.936  0.00  0.00    +0.000 A 
ATOM      3  C   UNL     1       1.189  10.582  18.265  0.00  0.00    +0.000 A 
ATOM      4  C   UNL     1       1.457   9.370  18.918  0.00  0.00    +0.000 A 
ATOM      5  C   UNL     1       2.107   8.313  18.257  0.00  0.00    +0.000 A 
ATOM      6  C   UNL     1       2.421   7.104  18.902  0.00  0.00    +0.000 A 
ATOM      7  C   UNL     1       2.025   6.975  20.245  0.00  0.00    +0.000 A 
ATOM      8  C   UNL     1       1.358   8.008  20.914  0.00  0.00    +0.000 A 
ATOM      9  C   UNL     1       1.078   9.218  20.266  0.00  0.00    +0.000 A 
ATOM     10  C   UNL     1       0.442  10.283  20.925  0.00  0.00    +0.000 A 
ENDROOT
BRANCH   6  11
ATOM     11  C   UNL     1       3.158   6.024  18.202  0.00  0.00    +0.000 A 
ATOM     12  C   UNL     1       4.187   6.305  17.287  0.00  0.00    +0.000 A 
ATOM     13  C   UNL     1       4.863   5.286  16.610  0.00  0.00    +0.000 A 
ATOM     14  C   UNL     1       4.535   3.953  16.843  0.00  0.00    +0.000 A 
ATOM     15  C   UNL     1       3.526   3.627  17.755  0.00  0.00    +0.000 A 
ATOM     16  C   UNL     1       2.846   4.667  18.417  0.00  0.00    +0.000 A 
BRANCH  15  17
ATOM     17  C   UNL     1       3.160   2.192  18.040  0.00  0.00    +0.000 C 
ATOM     18  F   UNL     1       3.023   1.917  19.368  0.00  0.00    +0.000 F 
ATOM     19  F   UNL     1       1.981   1.832  17.461  0.00  0.00    +0.000 F 
ATOM     20  F   UNL     1       4.089   1.313  17.572  0.00  0.00    +0.000 F 
ENDBRANCH  15  17
ENDBRANCH   6  11
BRANCH   1  22
ATOM     21  C   UNL     1      -1.642  12.085  21.659  0.00  0.00    +0.000 C 
ATOM     22  O   UNL     1      -0.416  12.451  21.037  0.00  0.00    +0.000 OA
ENDBRANCH   1  22
TORSDOF 3
ENDMDL
MODEL 8
REMARK VINA RESULT:      -7.7      2.394      3.294
REMARK  Name = 
REMARK  4 active torsions:
REMARK  status: ('A' for Active; 'I' for Inactive)
REMARK    1  A    between atoms: C_1  and  O_2
REMARK    2  A    between atoms: O_2  and  C_3
REMARK    3  A    between atoms: C_8  and  C_9
REMARK    4  A    between atoms: C_13  and  C_14
REMARK                            x       y       z     vdW  Elec       q    Type
REMARK                         _______ _______ _______ _____ _____    ______ ____
ROOT
ATOM      1  C   UNL     1       0.442  11.387  20.188  0.00  0.00    +0.000 A 
ATOM      2  C   UNL     1       0.927  11.495  18.887  0.00  0.00    +0.000 A 
ATOM      3  C   UNL     1       1.533  10.398  18.270  0.00  0.00    +0.000 A 
ATOM      4  C   UNL     1       1.668   9.176  18.944  0.00  0.00    +0.000 A 
ATOM      5  C   UNL     1       2.296   8.074  18.337  0.00  0.00    +0.000 A 
ATOM      6  C   UNL     1       2.478   6.851  19.008  0.00  0.00    +0.000 A 
ATOM      7  C   UNL     1       1.970   6.758  20.315  0.00  0.00    +0.000 A 
ATOM      8  C   UNL     1       1.322   7.837  20.928  0.00  0.00    +0.000 A 
ATOM      9  C   UNL     1       1.175   9.058  20.258  0.00  0.00    +0.000 A 
ATOM     10  C   UNL     1       0.560  10.167  20.863  0.00  0.00    +0.000 A 
ENDROOT
BRANCH   6  11
ATOM     11  C   UNL     1       3.195   5.720  18.369  0.00  0.00    +0.000 A 
ATOM     12  C   UNL     1       4.028   5.910  17.254  0.00  0.00    +0.000 A 
ATOM     13  C   UNL     1       4.683   4.838  16.639  0.00  0.00    +0.000 A 
ATOM     14  C   UNL     1       4.530   3.546  17.136  0.00  0.00    +0.000 A 
ATOM     15  C   UNL     1       3.720   3.314  18.251  0.00  0.00    +0.000 A 
ATOM     16  C   UNL     1       3.057   4.403  18.849  0.00  0.00    +0.000 A 
BRANCH  15  17
ATOM     17  C   UNL     1       3.549   1.929  18.822  0.00  0.00    +0.000 C 
ATOM     18  F   UNL     1       3.834   0.933  17.936  0.00  0.00    +0.000 F 
ATOM     19  F   UNL     1       4.352   1.709  19.900  0.00  0.00    +0.000 F 
ATOM     20  F   UNL     1       2.278   1.693  19.251  0.00  0.00    +0.000 F 
ENDBRANCH  15  17
ENDBRANCH   6  11
BRANCH   1  22
ATOM     21  C   UNL     1      -0.666  12.036  22.185  0.00  0.00    +0.000 C 
ATOM     22  O   UNL     1      -0.158  12.387  20.903  0.00  0.00    +0.000 OA
ENDBRANCH   1  22
TORSDOF 3
ENDMDL
MODEL 9
REMARK VINA RESULT:      -7.7      3.197      3.848
REMARK  Name = 
REMARK  4 active torsions:
REMARK  status: ('A' for Active; 'I' for Inactive)
REMARK    1  A    between atoms: C_1  and  O_2
REMARK    2  A    between atoms: O_2  and  C_3
REMARK    3  A    between atoms: C_8  and  C_9
REMARK    4  A    between atoms: C_13  and  C_14
REMARK                            x       y       z     vdW  Elec       q    Type
REMARK                         _______ _______ _______ _____ _____    ______ ____
ROOT
ATOM      1  C   UNL     1      -0.148  11.974  20.162  0.00  0.00    +0.000 A 
ATOM      2  C   UNL     1      -0.257  11.165  21.291  0.00  0.00    +0.000 A 
ATOM      3  C   UNL     1       0.320   9.892  21.301  0.00  0.00    +0.000 A 
ATOM      4  C   UNL     1       1.012   9.405  20.182  0.00  0.00    +0.000 A 
ATOM      5  C   UNL     1       1.575   8.118  20.176  0.00  0.00    +0.000 A 
ATOM      6  C   UNL     1       2.239   7.594  19.052  0.00  0.00    +0.000 A 
ATOM      7  C   UNL     1       2.350   8.431  17.929  0.00  0.00    +0.000 A 
ATOM      8  C   UNL     1       1.813   9.725  17.923  0.00  0.00    +0.000 A 
ATOM      9  C   UNL     1       1.130  10.221  19.040  0.00  0.00    +0.000 A 
ATOM     10  C   UNL     1       0.552  11.502  19.047  0.00  0.00    +0.000 A 
ENDROOT
BRANCH   6  11
ATOM     11  C   UNL     1       2.776   6.211  19.048  0.00  0.00    +0.000 A 
ATOM     12  C   UNL     1       3.874   5.848  18.250  0.00  0.00    +0.000 A 
ATOM     13  C   UNL     1       4.363   4.538  18.230  0.00  0.00    +0.000 A 
ATOM     14  C   UNL     1       3.771   3.558  19.023  0.00  0.00    +0.000 A 
ATOM     15  C   UNL     1       2.684   3.879  19.842  0.00  0.00    +0.000 A 
ATOM     16  C   UNL     1       2.196   5.200  19.839  0.00  0.00    +0.000 A 
BRANCH  15  17
ATOM     17  C   UNL     1       2.034   2.843  20.724  0.00  0.00    +0.000 C 
ATOM     18  F   UNL     1       2.790   2.489  21.801  0.00  0.00    +0.000 F 
ATOM     19  F   UNL     1       0.842   3.265  21.229  0.00  0.00    +0.000 F 
ATOM     20  F   UNL     1       1.767   1.684  20.060  0.00  0.00    +0.000 F 
ENDBRANCH  15  17
ENDBRANCH   6  11
BRANCH   1  22
ATOM     21  C   UNL     1       0.186  14.226  19.490  0.00  0.00    +0.000 C 
ATOM     22  O   UNL     1      -0.676  13.228  20.025  0.00  0.00    +0.000 OA
ENDBRANCH   1  22
TORSDOF 3
ENDMDL
