MODEL 1
REMARK VINA RESULT:      -7.5      0.000      0.000
REMARK  Name = 
REMARK  5 active torsions:
REMARK  status: ('A' for Active; 'I' for Inactive)
REMARK    1  A    between atoms: C_2  and  C_3
REMARK    2  A    between atoms: C_3  and  N_4
REMARK    3  A    between atoms: C_5  and  C_7
REMARK    4  A    between atoms: C_12  and  N_13
REMARK    5  A    between atoms: N_17  and  C_18
REMARK                            x       y       z     vdW  Elec       q    Type
REMARK                         _______ _______ _______ _____ _____    ______ ____
ROOT
ATOM      1  N   UNL     1       5.748   4.436  16.707  0.00  0.00    +0.000 N 
ATOM      2  C   UNL     1       5.609   4.436  18.076  0.00  0.00    +0.000 C 
ATOM      3  O   UNL     1       6.562   4.359  18.843  0.00  0.00    +0.000 OA
ATOM      4  H   UNL     1       4.980   4.655  16.082  0.00  0.00    +0.000 HD
ENDROOT
BRANCH   2   5
ATOM      5  C   UNL     1       4.232   4.566  18.621  0.00  0.00    +0.000 A 
ATOM      6  C   UNL     1       3.405   3.454  18.802  0.00  0.00    +0.000 A 
ATOM      7  C   UNL     1       2.123   3.621  19.327  0.00  0.00    +0.000 A 
ATOM      8 CL   UNL     1       1.111   2.247  19.545  0.00  0.00    +0.000 Cl
ATOM      9  C   UNL     1       1.651   4.884  19.680  0.00  0.00    +0.000 A 
ATOM     10  C   UNL     1       2.489   5.993  19.516  0.00  0.00    +0.000 A 
ATOM     11  C   UNL     1       3.781   5.842  18.995  0.00  0.00    +0.000 A 
BRANCH  10  12
ATOM     12  N   UNL     1       2.002   7.327  19.890  0.00  0.00    +0.000 N 
ATOM     13  O   UNL     1       2.135   8.238  19.062  0.00  0.00    +0.000 OA
ATOM     14  O   UNL     1       1.493   7.460  21.010  0.00  0.00    +0.000 OA
ENDBRANCH  10  12
ENDBRANCH   2   5
BRANCH   1  15
ATOM     15  C   UNL     1       7.069   4.355  16.113  0.00  0.00    +0.000 C 
BRANCH  15  17
ATOM     16  O   UNL     1       7.652   5.507  14.062  0.00  0.00    +0.000 OA
ATOM     17  C   UNL     1       7.043   4.584  14.600  0.00  0.00    +0.000 C 
ATOM     18  N   UNL     1       6.281   3.643  13.929  0.00  0.00    +0.000 N 
ATOM     19  H   UNL     1       5.842   2.902  14.466  0.00  0.00    +0.000 HD
BRANCH  18  20
ATOM     20  C   UNL     1       6.149   3.605  12.507  0.00  0.00    +0.000 C 
ATOM     21  C   UNL     1       5.886   2.297  11.811  0.00  0.00    +0.000 C 
ATOM     22  C   UNL     1       4.810   3.340  11.868  0.00  0.00    +0.000 C 
ENDBRANCH  18  20
ENDBRANCH  15  17
ENDBRANCH   1  15
TORSDOF 5
ENDMDL
MODEL 2
REMARK VINA RESULT:      -7.4      2.455      2.822
REMARK  Name = 
REMARK  5 active torsions:
REMARK  status: ('A' for Active; 'I' for Inactive)
REMARK    1  A    between atoms: C_2  and  C_3
REMARK    2  A    between atoms: C_3  and  N_4
REMARK    3  A    between atoms: C_5  and  C_7
REMARK    4  A    between atoms: C_12  and  N_13
REMARK    5  A    between atoms: N_17  and  C_18
REMARK                            x       y       z     vdW  Elec       q    Type
REMARK                         _______ _______ _______ _____ _____    ______ ____
ROOT
ATOM      1  N   UNL     1       5.734   4.283  16.420  0.00  0.00    +0.000 N 
ATOM      2  C   UNL     1       5.664   4.542  17.769  0.00  0.00    +0.000 C 
ATOM      3  O   UNL     1       6.656   4.729  18.464  0.00  0.00    +0.000 OA
ATOM      4  H   UNL     1       4.915   4.284  15.822  0.00  0.00    +0.000 HD
ENDROOT
BRANCH   2   5
ATOM      5  C   UNL     1       4.309   4.623  18.377  0.00  0.00    +0.000 A 
ATOM      6  C   UNL     1       3.835   5.801  18.962  0.00  0.00    +0.000 A 
ATOM      7  C   UNL     1       2.553   5.834  19.511  0.00  0.00    +0.000 A 
ATOM      8 CL   UNL     1       1.978   7.288  20.230  0.00  0.00    +0.000 Cl
ATOM      9  C   UNL     1       1.729   4.711  19.482  0.00  0.00    +0.000 A 
ATOM     10  C   UNL     1       2.200   3.539  18.877  0.00  0.00    +0.000 A 
ATOM     11  C   UNL     1       3.484   3.488  18.317  0.00  0.00    +0.000 A 
BRANCH  10  12
ATOM     12  N   UNL     1       1.338   2.351  18.839  0.00  0.00    +0.000 N 
ATOM     13  O   UNL     1       1.860   1.255  19.080  0.00  0.00    +0.000 OA
ATOM     14  O   UNL     1       0.143   2.516  18.561  0.00  0.00    +0.000 OA
ENDBRANCH  10  12
ENDBRANCH   2   5
BRANCH   1  15
ATOM     15  C   UNL     1       7.024   4.235  15.757  0.00  0.00    +0.000 C 
BRANCH  15  17
ATOM     16  O   UNL     1       7.462   5.401  13.679  0.00  0.00    +0.000 OA
ATOM     17  C   UNL     1       6.914   4.459  14.248  0.00  0.00    +0.000 C 
ATOM     18  N   UNL     1       6.151   3.491  13.617  0.00  0.00    +0.000 N 
ATOM     19  H   UNL     1       5.765   2.736  14.176  0.00  0.00    +0.000 HD
BRANCH  18  20
ATOM     20  C   UNL     1       5.948   3.445  12.203  0.00  0.00    +0.000 C 
ATOM     21  C   UNL     1       5.607   2.141  11.535  0.00  0.00    +0.000 C 
ATOM     22  C   UNL     1       4.572   3.221  11.633  0.00  0.00    +0.000 C 
ENDBRANCH  18  20
ENDBRANCH  15  17
ENDBRANCH   1  15
TORSDOF 5
ENDMDL
MODEL 3
REMARK VINA RESULT:      -7.4      0.655      1.002
REMARK  Name = 
REMARK  5 active torsions:
REMARK  status: ('A' for Active; 'I' for Inactive)
REMARK    1  A    between atoms: C_2  and  C_3
REMARK    2  A    between atoms: C_3  and  N_4
REMARK    3  A    between atoms: C_5  and  C_7
REMARK    4  A    between atoms: C_12  and  N_13
REMARK    5  A    between atoms: N_17  and  C_18
REMARK                            x       y       z     vdW  Elec       q    Type
REMARK                         _______ _______ _______ _____ _____    ______ ____
ROOT
ATOM      1  N   UNL     1       5.762   4.311  17.142  0.00  0.00    +0.000 N 
ATOM      2  C   UNL     1       5.731   4.516  18.502  0.00  0.00    +0.000 C 
ATOM      3  O   UNL     1       6.742   4.582  19.190  0.00  0.00    +0.000 OA
ATOM      4  H   UNL     1       4.941   4.412  16.556  0.00  0.00    +0.000 HD
ENDROOT
BRANCH   2   5
ATOM      5  C   UNL     1       4.395   4.690  19.133  0.00  0.00    +0.000 A 
ATOM      6  C   UNL     1       3.702   3.615  19.695  0.00  0.00    +0.000 A 
ATOM      7  C   UNL     1       2.455   3.827  20.286  0.00  0.00    +0.000 A 
ATOM      8 CL   UNL     1       1.608   2.497  20.975  0.00  0.00    +0.000 Cl
ATOM      9  C   UNL     1       1.889   5.099  20.332  0.00  0.00    +0.000 A 
ATOM     10  C   UNL     1       2.596   6.177  19.785  0.00  0.00    +0.000 A 
ATOM     11  C   UNL     1       3.850   5.983  19.191  0.00  0.00    +0.000 A 
BRANCH  10  12
ATOM     12  N   UNL     1       2.008   7.522  19.832  0.00  0.00    +0.000 N 
ATOM     13  O   UNL     1       1.449   7.867  20.881  0.00  0.00    +0.000 OA
ATOM     14  O   UNL     1       2.102   8.227  18.818  0.00  0.00    +0.000 OA
ENDBRANCH  10  12
ENDBRANCH   2   5
BRANCH   1  15
ATOM     15  C   UNL     1       7.036   4.176  16.460  0.00  0.00    +0.000 C 
BRANCH  15  17
ATOM     16  O   UNL     1       7.537   5.581  14.550  0.00  0.00    +0.000 OA
ATOM     17  C   UNL     1       6.956   4.591  14.989  0.00  0.00    +0.000 C 
ATOM     18  N   UNL     1       6.181   3.729  14.231  0.00  0.00    +0.000 N 
ATOM     19  H   UNL     1       5.768   2.921  14.686  0.00  0.00    +0.000 HD
BRANCH  18  20
ATOM     20  C   UNL     1       6.001   3.866  12.820  0.00  0.00    +0.000 C 
ATOM     21  C   UNL     1       7.026   3.303  11.873  0.00  0.00    +0.000 C 
ATOM     22  C   UNL     1       5.673   2.666  11.969  0.00  0.00    +0.000 C 
ENDBRANCH  18  20
ENDBRANCH  15  17
ENDBRANCH   1  15
TORSDOF 5
ENDMDL
MODEL 4
REMARK VINA RESULT:      -7.4      2.470      2.829
REMARK  Name = 
REMARK  5 active torsions:
REMARK  status: ('A' for Active; 'I' for Inactive)
REMARK    1  A    between atoms: C_2  and  C_3
REMARK    2  A    between atoms: C_3  and  N_4
REMARK    3  A    between atoms: C_5  and  C_7
REMARK    4  A    between atoms: C_12  and  N_13
REMARK    5  A    between atoms: N_17  and  C_18
REMARK                            x       y       z     vdW  Elec       q    Type
REMARK                         _______ _______ _______ _____ _____    ______ ____
ROOT
ATOM      1  N   UNL     1       5.859   4.718  16.395  0.00  0.00    +0.000 N 
ATOM      2  C   UNL     1       5.702   6.017  16.821  0.00  0.00    +0.000 C 
ATOM      3  O   UNL     1       6.554   6.882  16.653  0.00  0.00    +0.000 OA
ATOM      4  H   UNL     1       5.098   4.049  16.395  0.00  0.00    +0.000 HD
ENDROOT
BRANCH   2   5
ATOM      5  C   UNL     1       4.418   6.364  17.486  0.00  0.00    +0.000 A 
ATOM      6  C   UNL     1       3.844   7.632  17.359  0.00  0.00    +0.000 A 
ATOM      7  C   UNL     1       2.632   7.911  17.991  0.00  0.00    +0.000 A 
ATOM      8 CL   UNL     1       1.933   9.475  17.831  0.00  0.00    +0.000 Cl
ATOM      9  C   UNL     1       1.976   6.941  18.746  0.00  0.00    +0.000 A 
ATOM     10  C   UNL     1       2.544   5.666  18.854  0.00  0.00    +0.000 A 
ATOM     11  C   UNL     1       3.758   5.367  18.222  0.00  0.00    +0.000 A 
BRANCH  10  12
ATOM     12  N   UNL     1       1.858   4.636  19.645  0.00  0.00    +0.000 N 
ATOM     13  O   UNL     1       1.792   3.495  19.166  0.00  0.00    +0.000 OA
ATOM     14  O   UNL     1       1.382   4.970  20.738  0.00  0.00    +0.000 OA
ENDBRANCH  10  12
ENDBRANCH   2   5
BRANCH   1  15
ATOM     15  C   UNL     1       7.072   4.326  15.701  0.00  0.00    +0.000 C 
BRANCH  15  17
ATOM     16  O   UNL     1       7.487   5.435  13.586  0.00  0.00    +0.000 OA
ATOM     17  C   UNL     1       6.958   4.500  14.185  0.00  0.00    +0.000 C 
ATOM     18  N   UNL     1       6.217   3.496  13.585  0.00  0.00    +0.000 N 
ATOM     19  H   UNL     1       5.847   2.752  14.167  0.00  0.00    +0.000 HD
BRANCH  18  20
ATOM     20  C   UNL     1       6.017   3.401  12.173  0.00  0.00    +0.000 C 
ATOM     21  C   UNL     1       5.642   2.082  11.554  0.00  0.00    +0.000 C 
ATOM     22  C   UNL     1       4.636   3.193  11.606  0.00  0.00    +0.000 C 
ENDBRANCH  18  20
ENDBRANCH  15  17
ENDBRANCH   1  15
TORSDOF 5
ENDMDL
MODEL 5
REMARK VINA RESULT:      -7.3      2.280      2.654
REMARK  Name = 
REMARK  5 active torsions:
REMARK  status: ('A' for Active; 'I' for Inactive)
REMARK    1  A    between atoms: C_2  and  C_3
REMARK    2  A    between atoms: C_3  and  N_4
REMARK    3  A    between atoms: C_5  and  C_7
REMARK    4  A    between atoms: C_12  and  N_13
REMARK    5  A    between atoms: N_17  and  C_18
REMARK                            x       y       z     vdW  Elec       q    Type
REMARK                         _______ _______ _______ _____ _____    ______ ____
ROOT
ATOM      1  N   UNL     1       5.953   4.960  16.137  0.00  0.00    +0.000 N 
ATOM      2  C   UNL     1       5.808   4.732  17.486  0.00  0.00    +0.000 C 
ATOM      3  O   UNL     1       6.708   4.288  18.188  0.00  0.00    +0.000 OA
ATOM      4  H   UNL     1       5.265   5.469  15.593  0.00  0.00    +0.000 HD
ENDROOT
BRANCH   2   5
ATOM      5  C   UNL     1       4.497   5.079  18.097  0.00  0.00    +0.000 A 
ATOM      6  C   UNL     1       3.963   6.368  18.009  0.00  0.00    +0.000 A 
ATOM      7  C   UNL     1       2.724   6.646  18.588  0.00  0.00    +0.000 A 
ATOM      8 CL   UNL     1       2.075   8.235  18.477  0.00  0.00    +0.000 Cl
ATOM      9  C   UNL     1       2.003   5.655  19.251  0.00  0.00    +0.000 A 
ATOM     10  C   UNL     1       2.532   4.360  19.319  0.00  0.00    +0.000 A 
ATOM     11  C   UNL     1       3.773   4.062  18.740  0.00  0.00    +0.000 A 
BRANCH  10  12
ATOM     12  N   UNL     1       1.777   3.309  20.012  0.00  0.00    +0.000 N 
ATOM     13  O   UNL     1       0.955   3.662  20.868  0.00  0.00    +0.000 OA
ATOM     14  O   UNL     1       2.011   2.133  19.703  0.00  0.00    +0.000 OA
ENDBRANCH  10  12
ENDBRANCH   2   5
BRANCH   1  15
ATOM     15  C   UNL     1       7.222   4.683  15.488  0.00  0.00    +0.000 C 
BRANCH  15  17
ATOM     16  O   UNL     1       7.697   5.499  13.257  0.00  0.00    +0.000 OA
ATOM     17  C   UNL     1       7.108   4.682  13.962  0.00  0.00    +0.000 C 
ATOM     18  N   UNL     1       6.294   3.669  13.487  0.00  0.00    +0.000 N 
ATOM     19  H   UNL     1       5.876   3.028  14.154  0.00  0.00    +0.000 HD
BRANCH  18  20
ATOM     20  C   UNL     1       6.076   3.420  12.096  0.00  0.00    +0.000 C 
ATOM     21  C   UNL     1       5.693   2.042  11.630  0.00  0.00    +0.000 C 
ATOM     22  C   UNL     1       4.688   3.153  11.573  0.00  0.00    +0.000 C 
ENDBRANCH  18  20
ENDBRANCH  15  17
ENDBRANCH   1  15
TORSDOF 5
ENDMDL
MODEL 6
REMARK VINA RESULT:      -7.3      2.483      2.694
REMARK  Name = 
REMARK  5 active torsions:
REMARK  status: ('A' for Active; 'I' for Inactive)
REMARK    1  A    between atoms: C_2  and  C_3
REMARK    2  A    between atoms: C_3  and  N_4
REMARK    3  A    between atoms: C_5  and  C_7
REMARK    4  A    between atoms: C_12  and  N_13
REMARK    5  A    between atoms: N_17  and  C_18
REMARK                            x       y       z     vdW  Elec       q    Type
REMARK                         _______ _______ _______ _____ _____    ______ ____
ROOT
ATOM      1  N   UNL     1       6.054   4.668  17.130  0.00  0.00    +0.000 N 
ATOM      2  C   UNL     1       4.843   4.033  17.280  0.00  0.00    +0.000 C 
ATOM      3  O   UNL     1       4.546   3.010  16.674  0.00  0.00    +0.000 OA
ATOM      4  H   UNL     1       6.355   5.418  17.742  0.00  0.00    +0.000 HD
ENDROOT
BRANCH   2   5
ATOM      5  C   UNL     1       3.882   4.620  18.251  0.00  0.00    +0.000 A 
ATOM      6  C   UNL     1       3.483   5.958  18.172  0.00  0.00    +0.000 A 
ATOM      7  C   UNL     1       2.570   6.465  19.098  0.00  0.00    +0.000 A 
ATOM      8 CL   UNL     1       2.086   8.113  18.995  0.00  0.00    +0.000 Cl
ATOM      9  C   UNL     1       2.042   5.656  20.102  0.00  0.00    +0.000 A 
ATOM     10  C   UNL     1       2.429   4.312  20.166  0.00  0.00    +0.000 A 
ATOM     11  C   UNL     1       3.341   3.785  19.241  0.00  0.00    +0.000 A 
BRANCH  10  12
ATOM     12  N   UNL     1       1.874   3.451  21.218  0.00  0.00    +0.000 N 
ATOM     13  O   UNL     1       2.563   3.266  22.230  0.00  0.00    +0.000 OA
ATOM     14  O   UNL     1       0.754   2.958  21.028  0.00  0.00    +0.000 OA
ENDBRANCH  10  12
ENDBRANCH   2   5
BRANCH   1  15
ATOM     15  C   UNL     1       7.052   4.120  16.230  0.00  0.00    +0.000 C 
BRANCH  15  17
ATOM     16  O   UNL     1       7.044   5.674  14.370  0.00  0.00    +0.000 OA
ATOM     17  C   UNL     1       6.817   4.536  14.776  0.00  0.00    +0.000 C 
ATOM     18  N   UNL     1       6.342   3.498  13.993  0.00  0.00    +0.000 N 
ATOM     19  H   UNL     1       6.215   2.586  14.420  0.00  0.00    +0.000 HD
BRANCH  18  20
ATOM     20  C   UNL     1       6.100   3.617  12.589  0.00  0.00    +0.000 C 
ATOM     21  C   UNL     1       5.802   2.389  11.771  0.00  0.00    +0.000 C 
ATOM     22  C   UNL     1       4.721   3.395  12.026  0.00  0.00    +0.000 C 
ENDBRANCH  18  20
ENDBRANCH  15  17
ENDBRANCH   1  15
TORSDOF 5
ENDMDL
MODEL 7
REMARK VINA RESULT:      -7.3      2.423      2.677
REMARK  Name = 
REMARK  5 active torsions:
REMARK  status: ('A' for Active; 'I' for Inactive)
REMARK    1  A    between atoms: C_2  and  C_3
REMARK    2  A    between atoms: C_3  and  N_4
REMARK    3  A    between atoms: C_5  and  C_7
REMARK    4  A    between atoms: C_12  and  N_13
REMARK    5  A    between atoms: N_17  and  C_18
REMARK                            x       y       z     vdW  Elec       q    Type
REMARK                         _______ _______ _______ _____ _____    ______ ____
ROOT
ATOM      1  N   UNL     1       5.992   4.349  16.220  0.00  0.00    +0.000 N 
ATOM      2  C   UNL     1       5.921   4.262  17.591  0.00  0.00    +0.000 C 
ATOM      3  O   UNL     1       6.894   4.416  18.320  0.00  0.00    +0.000 OA
ATOM      4  H   UNL     1       5.165   4.375  15.632  0.00  0.00    +0.000 HD
ENDROOT
BRANCH   2   5
ATOM      5  C   UNL     1       4.586   3.996  18.188  0.00  0.00    +0.000 A 
ATOM      6  C   UNL     1       3.403   4.319  17.516  0.00  0.00    +0.000 A 
ATOM      7  C   UNL     1       2.171   4.042  18.110  0.00  0.00    +0.000 A 
ATOM      8 CL   UNL     1       0.720   4.444  17.277  0.00  0.00    +0.000 Cl
ATOM      9  C   UNL     1       2.097   3.441  19.365  0.00  0.00    +0.000 A 
ATOM     10  C   UNL     1       3.284   3.101  20.026  0.00  0.00    +0.000 A 
ATOM     11  C   UNL     1       4.530   3.368  19.443  0.00  0.00    +0.000 A 
BRANCH  10  12
ATOM     12  N   UNL     1       3.216   2.464  21.347  0.00  0.00    +0.000 N 
ATOM     13  O   UNL     1       2.225   2.704  22.050  0.00  0.00    +0.000 OA
ATOM     14  O   UNL     1       4.156   1.730  21.681  0.00  0.00    +0.000 OA
ENDBRANCH  10  12
ENDBRANCH   2   5
BRANCH   1  15
ATOM     15  C   UNL     1       7.258   4.648  15.577  0.00  0.00    +0.000 C 
BRANCH  15  17
ATOM     16  O   UNL     1       7.708   5.526  13.364  0.00  0.00    +0.000 OA
ATOM     17  C   UNL     1       7.145   4.677  14.051  0.00  0.00    +0.000 C 
ATOM     18  N   UNL     1       6.361   3.650  13.553  0.00  0.00    +0.000 N 
ATOM     19  H   UNL     1       5.964   2.982  14.206  0.00  0.00    +0.000 HD
BRANCH  18  20
ATOM     20  C   UNL     1       6.151   3.424  12.158  0.00  0.00    +0.000 C 
ATOM     21  C   UNL     1       5.670   2.082  11.677  0.00  0.00    +0.000 C 
ATOM     22  C   UNL     1       4.758   3.270  11.607  0.00  0.00    +0.000 C 
ENDBRANCH  18  20
ENDBRANCH  15  17
ENDBRANCH   1  15
TORSDOF 5
ENDMDL
MODEL 8
REMARK VINA RESULT:      -7.2      1.444      1.611
REMARK  Name = 
REMARK  5 active torsions:
REMARK  status: ('A' for Active; 'I' for Inactive)
REMARK    1  A    between atoms: C_2  and  C_3
REMARK    2  A    between atoms: C_3  and  N_4
REMARK    3  A    between atoms: C_5  and  C_7
REMARK    4  A    between atoms: C_12  and  N_13
REMARK    5  A    between atoms: N_17  and  C_18
REMARK                            x       y       z     vdW  Elec       q    Type
REMARK                         _______ _______ _______ _____ _____    ______ ____
ROOT
ATOM      1  N   UNL     1       5.679   4.491  16.785  0.00  0.00    +0.000 N 
ATOM      2  C   UNL     1       5.643   5.674  17.486  0.00  0.00    +0.000 C 
ATOM      3  O   UNL     1       6.571   6.474  17.493  0.00  0.00    +0.000 OA
ATOM      4  H   UNL     1       4.858   3.909  16.656  0.00  0.00    +0.000 HD
ENDROOT
BRANCH   2   5
ATOM      5  C   UNL     1       4.397   5.982  18.238  0.00  0.00    +0.000 A 
ATOM      6  C   UNL     1       3.916   5.137  19.241  0.00  0.00    +0.000 A 
ATOM      7  C   UNL     1       2.748   5.471  19.928  0.00  0.00    +0.000 A 
ATOM      8 CL   UNL     1       2.161   4.424  21.160  0.00  0.00    +0.000 Cl
ATOM      9  C   UNL     1       2.052   6.642  19.634  0.00  0.00    +0.000 A 
ATOM     10  C   UNL     1       2.549   7.497  18.643  0.00  0.00    +0.000 A 
ATOM     11  C   UNL     1       3.723   7.179  17.946  0.00  0.00    +0.000 A 
BRANCH  10  12
ATOM     12  N   UNL     1       1.825   8.735  18.329  0.00  0.00    +0.000 N 
ATOM     13  O   UNL     1       2.042   9.264  17.231  0.00  0.00    +0.000 OA
ATOM     14  O   UNL     1       1.046   9.178  19.183  0.00  0.00    +0.000 OA
ENDBRANCH  10  12
ENDBRANCH   2   5
BRANCH   1  15
ATOM     15  C   UNL     1       6.849   4.151  15.997  0.00  0.00    +0.000 C 
BRANCH  15  17
ATOM     16  O   UNL     1       6.932   5.606  14.061  0.00  0.00    +0.000 OA
ATOM     17  C   UNL     1       6.674   4.494  14.516  0.00  0.00    +0.000 C 
ATOM     18  N   UNL     1       6.214   3.422  13.770  0.00  0.00    +0.000 N 
ATOM     19  H   UNL     1       6.059   2.535  14.238  0.00  0.00    +0.000 HD
BRANCH  18  20
ATOM     20  C   UNL     1       6.027   3.470  12.354  0.00  0.00    +0.000 C 
ATOM     21  C   UNL     1       5.637   2.225  11.604  0.00  0.00    +0.000 C 
ATOM     22  C   UNL     1       4.650   3.343  11.757  0.00  0.00    +0.000 C 
ENDBRANCH  18  20
ENDBRANCH  15  17
ENDBRANCH   1  15
TORSDOF 5
ENDMDL
MODEL 9
REMARK VINA RESULT:      -7.1      2.496      2.857
REMARK  Name = 
REMARK  5 active torsions:
REMARK  status: ('A' for Active; 'I' for Inactive)
REMARK    1  A    between atoms: C_2  and  C_3
REMARK    2  A    between atoms: C_3  and  N_4
REMARK    3  A    between atoms: C_5  and  C_7
REMARK    4  A    between atoms: C_12  and  N_13
REMARK    5  A    between atoms: N_17  and  C_18
REMARK                            x       y       z     vdW  Elec       q    Type
REMARK                         _______ _______ _______ _____ _____    ______ ____
ROOT
ATOM      1  N   UNL     1       5.611   4.171  17.377  0.00  0.00    +0.000 N 
ATOM      2  C   UNL     1       5.284   5.303  18.086  0.00  0.00    +0.000 C 
ATOM      3  O   UNL     1       5.945   6.334  18.038  0.00  0.00    +0.000 OA
ATOM      4  H   UNL     1       4.983   3.378  17.296  0.00  0.00    +0.000 HD
ENDROOT
BRANCH   2   5
ATOM      5  C   UNL     1       4.052   5.254  18.917  0.00  0.00    +0.000 A 
ATOM      6  C   UNL     1       3.411   6.418  19.350  0.00  0.00    +0.000 A 
ATOM      7  C   UNL     1       2.250   6.325  20.119  0.00  0.00    +0.000 A 
ATOM      8 CL   UNL     1       1.468   7.763  20.650  0.00  0.00    +0.000 Cl
ATOM      9  C   UNL     1       1.711   5.086  20.460  0.00  0.00    +0.000 A 
ATOM     10  C   UNL     1       2.345   3.923  20.007  0.00  0.00    +0.000 A 
ATOM     11  C   UNL     1       3.509   3.997  19.230  0.00  0.00    +0.000 A 
BRANCH  10  12
ATOM     12  N   UNL     1       1.782   2.612  20.357  0.00  0.00    +0.000 N 
ATOM     13  O   UNL     1       1.695   1.766  19.457  0.00  0.00    +0.000 OA
ATOM     14  O   UNL     1       1.424   2.435  21.529  0.00  0.00    +0.000 OA
ENDBRANCH  10  12
ENDBRANCH   2   5
BRANCH   1  15
ATOM     15  C   UNL     1       6.777   4.168  16.514  0.00  0.00    +0.000 C 
BRANCH  15  17
ATOM     16  O   UNL     1       6.466   5.795  14.745  0.00  0.00    +0.000 OA
ATOM     17  C   UNL     1       6.448   4.614  15.087  0.00  0.00    +0.000 C 
ATOM     18  N   UNL     1       6.149   3.553  14.250  0.00  0.00    +0.000 N 
ATOM     19  H   UNL     1       6.192   2.611  14.626  0.00  0.00    +0.000 HD
BRANCH  18  20
ATOM     20  C   UNL     1       5.868   3.703  12.857  0.00  0.00    +0.000 C 
ATOM     21  C   UNL     1       6.992   3.692  11.857  0.00  0.00    +0.000 C 
ATOM     22  C   UNL     1       6.032   2.541  11.912  0.00  0.00    +0.000 C 
ENDBRANCH  18  20
ENDBRANCH  15  17
ENDBRANCH   1  15
TORSDOF 5
ENDMDL
