MODEL 1
REMARK VINA RESULT:      -8.7      0.000      0.000
REMARK  Name = 
REMARK  13 active torsions:
REMARK  status: ('A' for Active; 'I' for Inactive)
REMARK    1  A    between atoms: C_1  and  C_2
REMARK    2  A    between atoms: C_2  and  C_3
REMARK    3  A    between atoms: C_2  and  C_4
REMARK    4  A    between atoms: C_4  and  C_5
REMARK    5  A    between atoms: C_5  and  N_6
REMARK    6  A    between atoms: N_6  and  C_7
REMARK    7  A    between atoms: N_6  and  S_20
REMARK    8  A    between atoms: C_7  and  C_8
REMARK    9  A    between atoms: C_7  and  C_16
REMARK   10  A    between atoms: C_8  and  C_9
REMARK   11  A    between atoms: C_9  and  C_10
REMARK   12  A    between atoms: N_18  and  O_19
REMARK   13  A    between atoms: S_20  and  C_23
REMARK                            x       y       z     vdW  Elec       q    Type
REMARK                         _______ _______ _______ _____ _____    ______ ____
ROOT
ATOM      1  N   UNL     1       5.026   4.828  16.376  0.00  0.00    +0.000 NA
ENDROOT
BRANCH   1   2
ATOM      2  S   UNL     1       5.060   6.550  16.605  0.00  0.00    +0.000 S 
ATOM      3  O   UNL     1       6.291   6.855  17.307  0.00  0.00    +0.000 OA
ATOM      4  O   UNL     1       4.787   7.190  15.338  0.00  0.00    +0.000 OA
BRANCH   2   5
ATOM      5  C   UNL     1       3.716   6.938  17.726  0.00  0.00    +0.000 A 
ATOM      6  C   UNL     1       3.555   6.162  18.881  0.00  0.00    +0.000 A 
ATOM      7  C   UNL     1       2.660   6.579  19.870  0.00  0.00    +0.000 A 
ATOM      8  C   UNL     1       1.916   7.764  19.722  0.00  0.00    +0.000 A 
ATOM      9  C   UNL     1       1.057   8.221  20.737  0.00  0.00    +0.000 A 
ATOM     10  C   UNL     1       0.317   9.394  20.574  0.00  0.00    +0.000 A 
ATOM     11  C   UNL     1       0.411  10.114  19.387  0.00  0.00    +0.000 A 
ATOM     12  C   UNL     1       1.276   9.686  18.378  0.00  0.00    +0.000 A 
ATOM     13  C   UNL     1       2.049   8.518  18.537  0.00  0.00    +0.000 A 
ATOM     14  C   UNL     1       2.973   8.111  17.552  0.00  0.00    +0.000 A 
ENDBRANCH   2   5
ENDBRANCH   1   2
BRANCH   1  15
ATOM     15  C   UNL     1       4.866   4.493  14.883  0.00  0.00    +0.000 C 
BRANCH  15  16
ATOM     16  C   UNL     1       6.183   4.301  14.153  0.00  0.00    +0.000 C 
BRANCH  16  18
ATOM     17  C   UNL     1       4.840   3.534  12.248  0.00  0.00    +0.000 C 
ATOM     18  C   UNL     1       6.256   3.487  12.861  0.00  0.00    +0.000 C 
ATOM     19  C   UNL     1       7.262   4.073  11.876  0.00  0.00    +0.000 C 
ENDBRANCH  16  18
ENDBRANCH  15  16
ENDBRANCH   1  15
BRANCH   1  20
ATOM     20  C   UNL     1       5.981   3.960  17.200  0.00  0.00    +0.000 C 
BRANCH  20  21
ATOM     21  C   UNL     1       7.087   4.642  18.018  0.00  0.00    +0.000 C 
ATOM     22  O   UNL     1       8.240   4.758  17.597  0.00  0.00    +0.000 OA
ATOM     23  N   UNL     1       6.751   4.965  19.319  0.00  0.00    +0.000 N 
ATOM     24  H   UNL     1       5.822   5.340  19.501  0.00  0.00    +0.000 HD
BRANCH  23  25
ATOM     25  O   UNL     1       7.791   5.525  20.100  0.00  0.00    +0.000 OA
ATOM     26  H   UNL     1       8.538   5.566  19.468  0.00  0.00    +0.000 HD
ENDBRANCH  23  25
ENDBRANCH  20  21
BRANCH  20  27
ATOM     27  C   UNL     1       5.214   3.147  18.294  0.00  0.00    +0.000 C 
BRANCH  27  28
ATOM     28  C   UNL     1       3.758   2.795  17.933  0.00  0.00    +0.000 C 
BRANCH  28  29
ATOM     29  C   UNL     1       2.783   2.864  19.100  0.00  0.00    +0.000 A 
ATOM     30  C   UNL     1       3.269   2.703  20.407  0.00  0.00    +0.000 A 
ATOM     31  C   UNL     1       2.404   2.748  21.506  0.00  0.00    +0.000 A 
ATOM     32  C   UNL     1       1.039   2.958  21.316  0.00  0.00    +0.000 A 
ATOM     33  C   UNL     1       0.540   3.133  20.031  0.00  0.00    +0.000 A 
ATOM     34  C   UNL     1       1.408   3.103  18.936  0.00  0.00    +0.000 A 
ENDBRANCH  28  29
ENDBRANCH  27  28
ENDBRANCH  20  27
ENDBRANCH   1  20
TORSDOF 11
ENDMDL
MODEL 2
REMARK VINA RESULT:      -8.4      0.733      1.274
REMARK  Name = 
REMARK  13 active torsions:
REMARK  status: ('A' for Active; 'I' for Inactive)
REMARK    1  A    between atoms: C_1  and  C_2
REMARK    2  A    between atoms: C_2  and  C_3
REMARK    3  A    between atoms: C_2  and  C_4
REMARK    4  A    between atoms: C_4  and  C_5
REMARK    5  A    between atoms: C_5  and  N_6
REMARK    6  A    between atoms: N_6  and  C_7
REMARK    7  A    between atoms: N_6  and  S_20
REMARK    8  A    between atoms: C_7  and  C_8
REMARK    9  A    between atoms: C_7  and  C_16
REMARK   10  A    between atoms: C_8  and  C_9
REMARK   11  A    between atoms: C_9  and  C_10
REMARK   12  A    between atoms: N_18  and  O_19
REMARK   13  A    between atoms: S_20  and  C_23
REMARK                            x       y       z     vdW  Elec       q    Type
REMARK                         _______ _______ _______ _____ _____    ______ ____
ROOT
ATOM      1  N   UNL     1       4.883   4.727  17.060  0.00  0.00    +0.000 NA
ENDROOT
BRANCH   1   2
ATOM      2  S   UNL     1       4.892   6.461  16.977  0.00  0.00    +0.000 S 
ATOM      3  O   UNL     1       6.087   6.908  17.665  0.00  0.00    +0.000 OA
ATOM      4  O   UNL     1       4.670   6.860  15.606  0.00  0.00    +0.000 OA
BRANCH   2   5
ATOM      5  C   UNL     1       3.496   7.023  17.953  0.00  0.00    +0.000 A 
ATOM      6  C   UNL     1       3.156   6.316  19.114  0.00  0.00    +0.000 A 
ATOM      7  C   UNL     1       2.221   6.857  19.999  0.00  0.00    +0.000 A 
ATOM      8  C   UNL     1       1.612   8.099  19.740  0.00  0.00    +0.000 A 
ATOM      9  C   UNL     1       0.713   8.679  20.654  0.00  0.00    +0.000 A 
ATOM     10  C   UNL     1       0.108   9.907  20.380  0.00  0.00    +0.000 A 
ATOM     11  C   UNL     1       0.379  10.564  19.184  0.00  0.00    +0.000 A 
ATOM     12  C   UNL     1       1.286  10.013  18.276  0.00  0.00    +0.000 A 
ATOM     13  C   UNL     1       1.924   8.786  18.547  0.00  0.00    +0.000 A 
ATOM     14  C   UNL     1       2.889   8.251  17.669  0.00  0.00    +0.000 A 
ENDBRANCH   2   5
ENDBRANCH   1   2
BRANCH   1  15
ATOM     15  C   UNL     1       4.636   4.129  15.664  0.00  0.00    +0.000 C 
BRANCH  15  16
ATOM     16  C   UNL     1       5.909   3.793  14.908  0.00  0.00    +0.000 C 
BRANCH  16  18
ATOM     17  C   UNL     1       7.574   5.052  13.618  0.00  0.00    +0.000 C 
ATOM     18  C   UNL     1       6.184   4.386  13.526  0.00  0.00    +0.000 C 
ATOM     19  C   UNL     1       6.198   3.316  12.440  0.00  0.00    +0.000 C 
ENDBRANCH  16  18
ENDBRANCH  15  16
ENDBRANCH   1  15
BRANCH   1  20
ATOM     20  C   UNL     1       5.908   4.030  17.960  0.00  0.00    +0.000 C 
BRANCH  20  21
ATOM     21  C   UNL     1       7.273   4.693  18.184  0.00  0.00    +0.000 C 
ATOM     22  O   UNL     1       8.194   4.596  17.370  0.00  0.00    +0.000 OA
ATOM     23  N   UNL     1       7.460   5.266  19.429  0.00  0.00    +0.000 N 
ATOM     24  H   UNL     1       6.686   5.778  19.848  0.00  0.00    +0.000 HD
BRANCH  23  25
ATOM     25  O   UNL     1       8.744   5.812  19.666  0.00  0.00    +0.000 OA
ATOM     26  H   UNL     1       8.700   6.062  20.613  0.00  0.00    +0.000 HD
ENDBRANCH  23  25
ENDBRANCH  20  21
BRANCH  20  27
ATOM     27  C   UNL     1       5.372   3.875  19.421  0.00  0.00    +0.000 C 
BRANCH  27  28
ATOM     28  C   UNL     1       4.607   2.564  19.692  0.00  0.00    +0.000 C 
BRANCH  28  29
ATOM     29  C   UNL     1       3.095   2.721  19.774  0.00  0.00    +0.000 A 
ATOM     30  C   UNL     1       2.320   2.484  18.628  0.00  0.00    +0.000 A 
ATOM     31  C   UNL     1       0.928   2.628  18.659  0.00  0.00    +0.000 A 
ATOM     32  C   UNL     1       0.289   3.010  19.837  0.00  0.00    +0.000 A 
ATOM     33  C   UNL     1       1.037   3.237  20.986  0.00  0.00    +0.000 A 
ATOM     34  C   UNL     1       2.425   3.077  20.957  0.00  0.00    +0.000 A 
ENDBRANCH  28  29
ENDBRANCH  27  28
ENDBRANCH  20  27
ENDBRANCH   1  20
TORSDOF 11
ENDMDL
MODEL 3
REMARK VINA RESULT:      -8.4      0.565      1.084
REMARK  Name = 
REMARK  13 active torsions:
REMARK  status: ('A' for Active; 'I' for Inactive)
REMARK    1  A    between atoms: C_1  and  C_2
REMARK    2  A    between atoms: C_2  and  C_3
REMARK    3  A    between atoms: C_2  and  C_4
REMARK    4  A    between atoms: C_4  and  C_5
REMARK    5  A    between atoms: C_5  and  N_6
REMARK    6  A    between atoms: N_6  and  C_7
REMARK    7  A    between atoms: N_6  and  S_20
REMARK    8  A    between atoms: C_7  and  C_8
REMARK    9  A    between atoms: C_7  and  C_16
REMARK   10  A    between atoms: C_8  and  C_9
REMARK   11  A    between atoms: C_9  and  C_10
REMARK   12  A    between atoms: N_18  and  O_19
REMARK   13  A    between atoms: S_20  and  C_23
REMARK                            x       y       z     vdW  Elec       q    Type
REMARK                         _______ _______ _______ _____ _____    ______ ____
ROOT
ATOM      1  N   UNL     1       4.966   4.871  16.305  0.00  0.00    +0.000 NA
ENDROOT
BRANCH   1   2
ATOM      2  S   UNL     1       5.089   6.578  16.597  0.00  0.00    +0.000 S 
ATOM      3  O   UNL     1       6.301   6.786  17.365  0.00  0.00    +0.000 OA
ATOM      4  O   UNL     1       4.913   7.276  15.344  0.00  0.00    +0.000 OA
BRANCH   2   5
ATOM      5  C   UNL     1       3.718   7.008  17.671  0.00  0.00    +0.000 A 
ATOM      6  C   UNL     1       3.499   6.243  18.824  0.00  0.00    +0.000 A 
ATOM      7  C   UNL     1       2.582   6.689  19.780  0.00  0.00    +0.000 A 
ATOM      8  C   UNL     1       1.875   7.892  19.601  0.00  0.00    +0.000 A 
ATOM      9  C   UNL     1       0.995   8.377  20.585  0.00  0.00    +0.000 A 
ATOM     10  C   UNL     1       0.291   9.568  20.390  0.00  0.00    +0.000 A 
ATOM     11  C   UNL     1       0.444  10.279  19.204  0.00  0.00    +0.000 A 
ATOM     12  C   UNL     1       1.331   9.823  18.227  0.00  0.00    +0.000 A 
ATOM     13  C   UNL     1       2.067   8.636  18.417  0.00  0.00    +0.000 A 
ATOM     14  C   UNL     1       3.013   8.198  17.467  0.00  0.00    +0.000 A 
ENDBRANCH   2   5
ENDBRANCH   1   2
BRANCH   1  15
ATOM     15  C   UNL     1       4.918   4.592  14.793  0.00  0.00    +0.000 C 
BRANCH  15  16
ATOM     16  C   UNL     1       6.233   4.099  14.218  0.00  0.00    +0.000 C 
BRANCH  16  18
ATOM     17  C   UNL     1       4.862   3.539  12.261  0.00  0.00    +0.000 C 
ATOM     18  C   UNL     1       6.305   3.506  12.811  0.00  0.00    +0.000 C 
ATOM     19  C   UNL     1       7.220   4.316  11.898  0.00  0.00    +0.000 C 
ENDBRANCH  16  18
ENDBRANCH  15  16
ENDBRANCH   1  15
BRANCH   1  20
ATOM     20  C   UNL     1       5.787   3.916  17.177  0.00  0.00    +0.000 C 
BRANCH  20  21
ATOM     21  C   UNL     1       6.418   4.448  18.471  0.00  0.00    +0.000 C 
ATOM     22  O   UNL     1       5.752   4.677  19.483  0.00  0.00    +0.000 OA
ATOM     23  N   UNL     1       7.749   4.812  18.378  0.00  0.00    +0.000 N 
ATOM     24  H   UNL     1       8.376   4.222  17.832  0.00  0.00    +0.000 HD
BRANCH  23  25
ATOM     25  O   UNL     1       8.315   5.374  19.548  0.00  0.00    +0.000 OA
ATOM     26  H   UNL     1       8.201   6.336  19.402  0.00  0.00    +0.000 HD
ENDBRANCH  23  25
ENDBRANCH  20  21
BRANCH  20  27
ATOM     27  C   UNL     1       4.916   2.726  17.698  0.00  0.00    +0.000 C 
BRANCH  27  28
ATOM     28  C   UNL     1       3.394   2.945  17.589  0.00  0.00    +0.000 C 
BRANCH  28  29
ATOM     29  C   UNL     1       2.660   2.949  18.923  0.00  0.00    +0.000 A 
ATOM     30  C   UNL     1       1.293   3.269  18.949  0.00  0.00    +0.000 A 
ATOM     31  C   UNL     1       0.585   3.295  20.156  0.00  0.00    +0.000 A 
ATOM     32  C   UNL     1       1.230   3.002  21.355  0.00  0.00    +0.000 A 
ATOM     33  C   UNL     1       2.580   2.671  21.349  0.00  0.00    +0.000 A 
ATOM     34  C   UNL     1       3.282   2.629  20.141  0.00  0.00    +0.000 A 
ENDBRANCH  28  29
ENDBRANCH  27  28
ENDBRANCH  20  27
ENDBRANCH   1  20
TORSDOF 11
ENDMDL
MODEL 4
REMARK VINA RESULT:      -8.3      1.220      5.158
REMARK  Name = 
REMARK  13 active torsions:
REMARK  status: ('A' for Active; 'I' for Inactive)
REMARK    1  A    between atoms: C_1  and  C_2
REMARK    2  A    between atoms: C_2  and  C_3
REMARK    3  A    between atoms: C_2  and  C_4
REMARK    4  A    between atoms: C_4  and  C_5
REMARK    5  A    between atoms: C_5  and  N_6
REMARK    6  A    between atoms: N_6  and  C_7
REMARK    7  A    between atoms: N_6  and  S_20
REMARK    8  A    between atoms: C_7  and  C_8
REMARK    9  A    between atoms: C_7  and  C_16
REMARK   10  A    between atoms: C_8  and  C_9
REMARK   11  A    between atoms: C_9  and  C_10
REMARK   12  A    between atoms: N_18  and  O_19
REMARK   13  A    between atoms: S_20  and  C_23
REMARK                            x       y       z     vdW  Elec       q    Type
REMARK                         _______ _______ _______ _____ _____    ______ ____
ROOT
ATOM      1  N   UNL     1       5.076   4.984  18.300  0.00  0.00    +0.000 NA
ENDROOT
BRANCH   1   2
ATOM      2  S   UNL     1       3.774   5.603  17.331  0.00  0.00    +0.000 S 
ATOM      3  O   UNL     1       4.359   6.537  16.389  0.00  0.00    +0.000 OA
ATOM      4  O   UNL     1       2.995   4.491  16.838  0.00  0.00    +0.000 OA
BRANCH   2   5
ATOM      5  C   UNL     1       2.736   6.565  18.432  0.00  0.00    +0.000 A 
ATOM      6  C   UNL     1       2.448   6.055  19.705  0.00  0.00    +0.000 A 
ATOM      7  C   UNL     1       1.830   6.877  20.651  0.00  0.00    +0.000 A 
ATOM      8  C   UNL     1       1.489   8.207  20.344  0.00  0.00    +0.000 A 
ATOM      9  C   UNL     1       0.920   9.058  21.308  0.00  0.00    +0.000 A 
ATOM     10  C   UNL     1       0.577  10.374  20.987  0.00  0.00    +0.000 A 
ATOM     11  C   UNL     1       0.781  10.849  19.695  0.00  0.00    +0.000 A 
ATOM     12  C   UNL     1       1.366  10.023  18.733  0.00  0.00    +0.000 A 
ATOM     13  C   UNL     1       1.741   8.701  19.046  0.00  0.00    +0.000 A 
ATOM     14  C   UNL     1       2.389   7.879  18.102  0.00  0.00    +0.000 A 
ENDBRANCH   2   5
ENDBRANCH   1   2
BRANCH   1  15
ATOM     15  C   UNL     1       4.782   3.534  18.723  0.00  0.00    +0.000 C 
BRANCH  15  16
ATOM     16  C   UNL     1       4.197   3.409  20.118  0.00  0.00    +0.000 C 
BRANCH  16  18
ATOM     17  C   UNL     1       2.273   3.009  21.587  0.00  0.00    +0.000 C 
ATOM     18  C   UNL     1       3.081   2.408  20.417  0.00  0.00    +0.000 C 
ATOM     19  C   UNL     1       2.166   2.200  19.214  0.00  0.00    +0.000 C 
ENDBRANCH  16  18
ENDBRANCH  15  16
ENDBRANCH   1  15
BRANCH   1  20
ATOM     20  C   UNL     1       6.514   5.330  17.903  0.00  0.00    +0.000 C 
BRANCH  20  21
ATOM     21  C   UNL     1       7.650   5.038  18.893  0.00  0.00    +0.000 C 
ATOM     22  O   UNL     1       8.606   4.316  18.603  0.00  0.00    +0.000 OA
ATOM     23  N   UNL     1       7.449   5.499  20.181  0.00  0.00    +0.000 N 
ATOM     24  H   UNL     1       7.026   6.417  20.307  0.00  0.00    +0.000 HD
BRANCH  23  25
ATOM     25  O   UNL     1       8.459   5.167  21.116  0.00  0.00    +0.000 OA
ATOM     26  H   UNL     1       9.242   5.019  20.545  0.00  0.00    +0.000 HD
ENDBRANCH  23  25
ENDBRANCH  20  21
BRANCH  20  27
ATOM     27  C   UNL     1       6.965   4.530  16.637  0.00  0.00    +0.000 C 
BRANCH  27  28
ATOM     28  C   UNL     1       7.124   5.378  15.360  0.00  0.00    +0.000 C 
BRANCH  28  29
ATOM     29  C   UNL     1       6.694   4.678  14.078  0.00  0.00    +0.000 A 
ATOM     30  C   UNL     1       5.429   4.070  14.023  0.00  0.00    +0.000 A 
ATOM     31  C   UNL     1       5.002   3.406  12.867  0.00  0.00    +0.000 A 
ATOM     32  C   UNL     1       5.830   3.341  11.749  0.00  0.00    +0.000 A 
ATOM     33  C   UNL     1       7.080   3.948  11.779  0.00  0.00    +0.000 A 
ATOM     34  C   UNL     1       7.499   4.624  12.928  0.00  0.00    +0.000 A 
ENDBRANCH  28  29
ENDBRANCH  27  28
ENDBRANCH  20  27
ENDBRANCH   1  20
TORSDOF 11
ENDMDL
MODEL 5
REMARK VINA RESULT:      -8.3      2.570      5.448
REMARK  Name = 
REMARK  13 active torsions:
REMARK  status: ('A' for Active; 'I' for Inactive)
REMARK    1  A    between atoms: C_1  and  C_2
REMARK    2  A    between atoms: C_2  and  C_3
REMARK    3  A    between atoms: C_2  and  C_4
REMARK    4  A    between atoms: C_4  and  C_5
REMARK    5  A    between atoms: C_5  and  N_6
REMARK    6  A    between atoms: N_6  and  C_7
REMARK    7  A    between atoms: N_6  and  S_20
REMARK    8  A    between atoms: C_7  and  C_8
REMARK    9  A    between atoms: C_7  and  C_16
REMARK   10  A    between atoms: C_8  and  C_9
REMARK   11  A    between atoms: C_9  and  C_10
REMARK   12  A    between atoms: N_18  and  O_19
REMARK   13  A    between atoms: S_20  and  C_23
REMARK                            x       y       z     vdW  Elec       q    Type
REMARK                         _______ _______ _______ _____ _____    ______ ____
ROOT
ATOM      1  N   UNL     1       4.231   5.260  18.400  0.00  0.00    +0.000 NA
ENDROOT
BRANCH   1   2
ATOM      2  S   UNL     1       2.709   5.428  19.219  0.00  0.00    +0.000 S 
ATOM      3  O   UNL     1       1.723   4.726  18.420  0.00  0.00    +0.000 OA
ATOM      4  O   UNL     1       2.887   5.065  20.606  0.00  0.00    +0.000 OA
BRANCH   2   5
ATOM      5  C   UNL     1       2.285   7.169  19.148  0.00  0.00    +0.000 A 
ATOM      6  C   UNL     1       2.296   7.816  17.905  0.00  0.00    +0.000 A 
ATOM      7  C   UNL     1       1.762   9.102  17.795  0.00  0.00    +0.000 A 
ATOM      8  C   UNL     1       1.216   9.758  18.914  0.00  0.00    +0.000 A 
ATOM      9  C   UNL     1       0.624  11.029  18.801  0.00  0.00    +0.000 A 
ATOM     10  C   UNL     1       0.094  11.674  19.921  0.00  0.00    +0.000 A 
ATOM     11  C   UNL     1       0.166  11.066  21.170  0.00  0.00    +0.000 A 
ATOM     12  C   UNL     1       0.730   9.795  21.296  0.00  0.00    +0.000 A 
ATOM     13  C   UNL     1       1.247   9.120  20.172  0.00  0.00    +0.000 A 
ATOM     14  C   UNL     1       1.762   7.811  20.275  0.00  0.00    +0.000 A 
ENDBRANCH   2   5
ENDBRANCH   1   2
BRANCH   1  15
ATOM     15  C   UNL     1       5.233   6.306  18.919  0.00  0.00    +0.000 C 
BRANCH  15  16
ATOM     16  C   UNL     1       6.000   7.018  17.820  0.00  0.00    +0.000 C 
BRANCH  16  18
ATOM     17  C   UNL     1       8.018   8.408  17.690  0.00  0.00    +0.000 C 
ATOM     18  C   UNL     1       7.525   6.946  17.751  0.00  0.00    +0.000 C 
ATOM     19  C   UNL     1       8.118   6.255  18.975  0.00  0.00    +0.000 C 
ENDBRANCH  16  18
ENDBRANCH  15  16
ENDBRANCH   1  15
BRANCH   1  20
ATOM     20  C   UNL     1       4.759   3.850  18.116  0.00  0.00    +0.000 C 
BRANCH  20  21
ATOM     21  C   UNL     1       4.027   2.646  18.722  0.00  0.00    +0.000 C 
ATOM     22  O   UNL     1       4.476   2.018  19.683  0.00  0.00    +0.000 OA
ATOM     23  N   UNL     1       2.919   2.208  18.020  0.00  0.00    +0.000 N 
ATOM     24  H   UNL     1       2.293   2.904  17.618  0.00  0.00    +0.000 HD
BRANCH  23  25
ATOM     25  O   UNL     1       2.285   1.051  18.533  0.00  0.00    +0.000 OA
ATOM     26  H   UNL     1       1.634   1.423  19.164  0.00  0.00    +0.000 HD
ENDBRANCH  23  25
ENDBRANCH  20  21
BRANCH  20  27
ATOM     27  C   UNL     1       4.723   3.524  16.586  0.00  0.00    +0.000 C 
BRANCH  27  28
ATOM     28  C   UNL     1       4.832   4.753  15.662  0.00  0.00    +0.000 C 
BRANCH  28  29
ATOM     29  C   UNL     1       5.686   4.536  14.421  0.00  0.00    +0.000 A 
ATOM     30  C   UNL     1       5.207   3.700  13.400  0.00  0.00    +0.000 A 
ATOM     31  C   UNL     1       5.967   3.465  12.248  0.00  0.00    +0.000 A 
ATOM     32  C   UNL     1       7.216   4.064  12.098  0.00  0.00    +0.000 A 
ATOM     33  C   UNL     1       7.703   4.905  13.092  0.00  0.00    +0.000 A 
ATOM     34  C   UNL     1       6.936   5.151  14.234  0.00  0.00    +0.000 A 
ENDBRANCH  28  29
ENDBRANCH  27  28
ENDBRANCH  20  27
ENDBRANCH   1  20
TORSDOF 11
ENDMDL
MODEL 6
REMARK VINA RESULT:      -8.2      3.043      5.223
REMARK  Name = 
REMARK  13 active torsions:
REMARK  status: ('A' for Active; 'I' for Inactive)
REMARK    1  A    between atoms: C_1  and  C_2
REMARK    2  A    between atoms: C_2  and  C_3
REMARK    3  A    between atoms: C_2  and  C_4
REMARK    4  A    between atoms: C_4  and  C_5
REMARK    5  A    between atoms: C_5  and  N_6
REMARK    6  A    between atoms: N_6  and  C_7
REMARK    7  A    between atoms: N_6  and  S_20
REMARK    8  A    between atoms: C_7  and  C_8
REMARK    9  A    between atoms: C_7  and  C_16
REMARK   10  A    between atoms: C_8  and  C_9
REMARK   11  A    between atoms: C_9  and  C_10
REMARK   12  A    between atoms: N_18  and  O_19
REMARK   13  A    between atoms: S_20  and  C_23
REMARK                            x       y       z     vdW  Elec       q    Type
REMARK                         _______ _______ _______ _____ _____    ______ ____
ROOT
ATOM      1  N   UNL     1       5.697   5.170  17.354  0.00  0.00    +0.000 NA
ENDROOT
BRANCH   1   2
ATOM      2  S   UNL     1       4.131   4.787  18.000  0.00  0.00    +0.000 S 
ATOM      3  O   UNL     1       3.347   4.247  16.907  0.00  0.00    +0.000 OA
ATOM      4  O   UNL     1       4.306   4.005  19.203  0.00  0.00    +0.000 OA
BRANCH   2   5
ATOM      5  C   UNL     1       3.375   6.348  18.455  0.00  0.00    +0.000 A 
ATOM      6  C   UNL     1       3.359   7.388  17.518  0.00  0.00    +0.000 A 
ATOM      7  C   UNL     1       2.589   8.527  17.768  0.00  0.00    +0.000 A 
ATOM      8  C   UNL     1       1.833   8.646  18.949  0.00  0.00    +0.000 A 
ATOM      9  C   UNL     1       1.010   9.762  19.182  0.00  0.00    +0.000 A 
ATOM     10  C   UNL     1       0.273   9.873  20.363  0.00  0.00    +0.000 A 
ATOM     11  C   UNL     1       0.362   8.879  21.333  0.00  0.00    +0.000 A 
ATOM     12  C   UNL     1       1.157   7.754  21.107  0.00  0.00    +0.000 A 
ATOM     13  C   UNL     1       1.889   7.614  19.910  0.00  0.00    +0.000 A 
ATOM     14  C   UNL     1       2.644   6.454  19.643  0.00  0.00    +0.000 A 
ENDBRANCH   2   5
ENDBRANCH   1   2
BRANCH   1  15
ATOM     15  C   UNL     1       5.587   5.509  15.857  0.00  0.00    +0.000 C 
BRANCH  15  16
ATOM     16  C   UNL     1       6.569   4.751  14.983  0.00  0.00    +0.000 C 
BRANCH  16  18
ATOM     17  C   UNL     1       7.868   5.152  12.940  0.00  0.00    +0.000 C 
ATOM     18  C   UNL     1       6.460   4.790  13.459  0.00  0.00    +0.000 C 
ATOM     19  C   UNL     1       6.031   3.444  12.884  0.00  0.00    +0.000 C 
ENDBRANCH  16  18
ENDBRANCH  15  16
ENDBRANCH   1  15
BRANCH   1  20
ATOM     20  C   UNL     1       6.655   6.011  18.203  0.00  0.00    +0.000 C 
BRANCH  20  21
ATOM     21  C   UNL     1       7.754   5.302  19.007  0.00  0.00    +0.000 C 
ATOM     22  O   UNL     1       8.431   4.388  18.532  0.00  0.00    +0.000 OA
ATOM     23  N   UNL     1       7.824   5.640  20.346  0.00  0.00    +0.000 N 
ATOM     24  H   UNL     1       7.694   6.616  20.607  0.00  0.00    +0.000 HD
BRANCH  23  25
ATOM     25  O   UNL     1       8.785   4.934  21.107  0.00  0.00    +0.000 OA
ATOM     26  H   UNL     1       8.759   4.038  20.711  0.00  0.00    +0.000 HD
ENDBRANCH  23  25
ENDBRANCH  20  21
BRANCH  20  27
ATOM     27  C   UNL     1       7.479   7.005  17.320  0.00  0.00    +0.000 C 
BRANCH  27  28
ATOM     28  C   UNL     1       6.968   8.459  17.337  0.00  0.00    +0.000 C 
BRANCH  28  29
ATOM     29  C   UNL     1       7.949   9.466  17.922  0.00  0.00    +0.000 A 
ATOM     30  C   UNL     1       7.970  10.774  17.412  0.00  0.00    +0.000 A 
ATOM     31  C   UNL     1       8.865  11.726  17.914  0.00  0.00    +0.000 A 
ATOM     32  C   UNL     1       9.752  11.386  18.934  0.00  0.00    +0.000 A 
ATOM     33  C   UNL     1       9.738  10.100  19.460  0.00  0.00    +0.000 A 
ATOM     34  C   UNL     1       8.833   9.155  18.969  0.00  0.00    +0.000 A 
ENDBRANCH  28  29
ENDBRANCH  27  28
ENDBRANCH  20  27
ENDBRANCH   1  20
TORSDOF 11
ENDMDL
MODEL 7
REMARK VINA RESULT:      -8.2      2.625      5.553
REMARK  Name = 
REMARK  13 active torsions:
REMARK  status: ('A' for Active; 'I' for Inactive)
REMARK    1  A    between atoms: C_1  and  C_2
REMARK    2  A    between atoms: C_2  and  C_3
REMARK    3  A    between atoms: C_2  and  C_4
REMARK    4  A    between atoms: C_4  and  C_5
REMARK    5  A    between atoms: C_5  and  N_6
REMARK    6  A    between atoms: N_6  and  C_7
REMARK    7  A    between atoms: N_6  and  S_20
REMARK    8  A    between atoms: C_7  and  C_8
REMARK    9  A    between atoms: C_7  and  C_16
REMARK   10  A    between atoms: C_8  and  C_9
REMARK   11  A    between atoms: C_9  and  C_10
REMARK   12  A    between atoms: N_18  and  O_19
REMARK   13  A    between atoms: S_20  and  C_23
REMARK                            x       y       z     vdW  Elec       q    Type
REMARK                         _______ _______ _______ _____ _____    ______ ____
ROOT
ATOM      1  N   UNL     1       3.837   5.231  18.174  0.00  0.00    +0.000 NA
ENDROOT
BRANCH   1   2
ATOM      2  S   UNL     1       2.497   5.443  19.258  0.00  0.00    +0.000 S 
ATOM      3  O   UNL     1       1.357   4.789  18.649  0.00  0.00    +0.000 OA
ATOM      4  O   UNL     1       2.911   5.056  20.587  0.00  0.00    +0.000 OA
BRANCH   2   5
ATOM      5  C   UNL     1       2.135   7.199  19.278  0.00  0.00    +0.000 A 
ATOM      6  C   UNL     1       2.208   7.917  18.077  0.00  0.00    +0.000 A 
ATOM      7  C   UNL     1       1.721   9.226  18.027  0.00  0.00    +0.000 A 
ATOM      8  C   UNL     1       1.162   9.835  19.166  0.00  0.00    +0.000 A 
ATOM      9  C   UNL     1       0.617  11.130  19.110  0.00  0.00    +0.000 A 
ATOM     10  C   UNL     1       0.073  11.727  20.251  0.00  0.00    +0.000 A 
ATOM     11  C   UNL     1       0.084  11.045  21.463  0.00  0.00    +0.000 A 
ATOM     12  C   UNL     1       0.602   9.750  21.530  0.00  0.00    +0.000 A 
ATOM     13  C   UNL     1       1.131   9.123  20.384  0.00  0.00    +0.000 A 
ATOM     14  C   UNL     1       1.598   7.793  20.425  0.00  0.00    +0.000 A 
ENDBRANCH   2   5
ENDBRANCH   1   2
BRANCH   1  15
ATOM     15  C   UNL     1       5.014   6.127  18.601  0.00  0.00    +0.000 C 
BRANCH  15  16
ATOM     16  C   UNL     1       6.151   5.371  19.263  0.00  0.00    +0.000 C 
BRANCH  16  18
ATOM     17  C   UNL     1       7.874   4.478  17.761  0.00  0.00    +0.000 C 
ATOM     18  C   UNL     1       7.598   5.573  18.814  0.00  0.00    +0.000 C 
ATOM     19  C   UNL     1       7.813   6.949  18.192  0.00  0.00    +0.000 C 
ENDBRANCH  16  18
ENDBRANCH  15  16
ENDBRANCH   1  15
BRANCH   1  20
ATOM     20  C   UNL     1       4.163   3.819  17.679  0.00  0.00    +0.000 C 
BRANCH  20  21
ATOM     21  C   UNL     1       3.110   2.714  17.837  0.00  0.00    +0.000 C 
ATOM     22  O   UNL     1       2.331   2.413  16.930  0.00  0.00    +0.000 OA
ATOM     23  N   UNL     1       2.980   2.194  19.111  0.00  0.00    +0.000 N 
ATOM     24  H   UNL     1       3.824   2.032  19.658  0.00  0.00    +0.000 HD
BRANCH  23  25
ATOM     25  O   UNL     1       1.958   1.229  19.278  0.00  0.00    +0.000 OA
ATOM     26  H   UNL     1       1.209   1.619  18.781  0.00  0.00    +0.000 HD
ENDBRANCH  23  25
ENDBRANCH  20  21
BRANCH  20  27
ATOM     27  C   UNL     1       4.433   3.802  16.139  0.00  0.00    +0.000 C 
BRANCH  27  28
ATOM     28  C   UNL     1       5.392   4.901  15.639  0.00  0.00    +0.000 C 
BRANCH  28  29
ATOM     29  C   UNL     1       6.050   4.604  14.299  0.00  0.00    +0.000 A 
ATOM     30  C   UNL     1       5.492   3.620  13.467  0.00  0.00    +0.000 A 
ATOM     31  C   UNL     1       6.075   3.310  12.233  0.00  0.00    +0.000 A 
ATOM     32  C   UNL     1       7.221   3.978  11.810  0.00  0.00    +0.000 A 
ATOM     33  C   UNL     1       7.781   4.965  12.613  0.00  0.00    +0.000 A 
ATOM     34  C   UNL     1       7.190   5.285  13.838  0.00  0.00    +0.000 A 
ENDBRANCH  28  29
ENDBRANCH  27  28
ENDBRANCH  20  27
ENDBRANCH   1  20
TORSDOF 11
ENDMDL
MODEL 8
REMARK VINA RESULT:      -8.0      2.461      5.328
REMARK  Name = 
REMARK  13 active torsions:
REMARK  status: ('A' for Active; 'I' for Inactive)
REMARK    1  A    between atoms: C_1  and  C_2
REMARK    2  A    between atoms: C_2  and  C_3
REMARK    3  A    between atoms: C_2  and  C_4
REMARK    4  A    between atoms: C_4  and  C_5
REMARK    5  A    between atoms: C_5  and  N_6
REMARK    6  A    between atoms: N_6  and  C_7
REMARK    7  A    between atoms: N_6  and  S_20
REMARK    8  A    between atoms: C_7  and  C_8
REMARK    9  A    between atoms: C_7  and  C_16
REMARK   10  A    between atoms: C_8  and  C_9
REMARK   11  A    between atoms: C_9  and  C_10
REMARK   12  A    between atoms: N_18  and  O_19
REMARK   13  A    between atoms: S_20  and  C_23
REMARK                            x       y       z     vdW  Elec       q    Type
REMARK                         _______ _______ _______ _____ _____    ______ ____
ROOT
ATOM      1  N   UNL     1       4.226   5.337  18.345  0.00  0.00    +0.000 NA
ENDROOT
BRANCH   1   2
ATOM      2  S   UNL     1       2.719   5.471  19.199  0.00  0.00    +0.000 S 
ATOM      3  O   UNL     1       1.726   4.768  18.410  0.00  0.00    +0.000 OA
ATOM      4  O   UNL     1       2.932   5.089  20.576  0.00  0.00    +0.000 OA
BRANCH   2   5
ATOM      5  C   UNL     1       2.271   7.206  19.166  0.00  0.00    +0.000 A 
ATOM      6  C   UNL     1       2.306   7.889  17.943  0.00  0.00    +0.000 A 
ATOM      7  C   UNL     1       1.755   9.170  17.854  0.00  0.00    +0.000 A 
ATOM      8  C   UNL     1       1.169   9.786  18.976  0.00  0.00    +0.000 A 
ATOM      9  C   UNL     1       0.561  11.051  18.882  0.00  0.00    +0.000 A 
ATOM     10  C   UNL     1      -0.008  11.655  20.006  0.00  0.00    +0.000 A 
ATOM     11  C   UNL     1       0.039  11.013  21.239  0.00  0.00    +0.000 A 
ATOM     12  C   UNL     1       0.619   9.747  21.344  0.00  0.00    +0.000 A 
ATOM     13  C   UNL     1       1.177   9.112  20.216  0.00  0.00    +0.000 A 
ATOM     14  C   UNL     1       1.708   7.808  20.296  0.00  0.00    +0.000 A 
ENDBRANCH   2   5
ENDBRANCH   1   2
BRANCH   1  15
ATOM     15  C   UNL     1       5.205   6.424  18.820  0.00  0.00    +0.000 C 
BRANCH  15  16
ATOM     16  C   UNL     1       6.427   6.579  17.933  0.00  0.00    +0.000 C 
BRANCH  16  18
ATOM     17  C   UNL     1       7.720   5.710  19.829  0.00  0.00    +0.000 C 
ATOM     18  C   UNL     1       7.755   5.916  18.299  0.00  0.00    +0.000 C 
ATOM     19  C   UNL     1       7.929   4.570  17.603  0.00  0.00    +0.000 C 
ENDBRANCH  16  18
ENDBRANCH  15  16
ENDBRANCH   1  15
BRANCH   1  20
ATOM     20  C   UNL     1       4.793   3.940  18.074  0.00  0.00    +0.000 C 
BRANCH  20  21
ATOM     21  C   UNL     1       4.175   2.733  18.793  0.00  0.00    +0.000 C 
ATOM     22  O   UNL     1       4.684   2.234  19.797  0.00  0.00    +0.000 OA
ATOM     23  N   UNL     1       3.105   2.141  18.147  0.00  0.00    +0.000 N 
ATOM     24  H   UNL     1       2.417   2.742  17.696  0.00  0.00    +0.000 HD
BRANCH  23  25
ATOM     25  O   UNL     1       2.579   0.982  18.768  0.00  0.00    +0.000 OA
ATOM     26  H   UNL     1       2.502   0.353  18.020  0.00  0.00    +0.000 HD
ENDBRANCH  23  25
ENDBRANCH  20  21
BRANCH  20  27
ATOM     27  C   UNL     1       4.638   3.544  16.569  0.00  0.00    +0.000 C 
BRANCH  27  28
ATOM     28  C   UNL     1       4.763   4.717  15.576  0.00  0.00    +0.000 C 
BRANCH  28  29
ATOM     29  C   UNL     1       5.567   4.401  14.323  0.00  0.00    +0.000 A 
ATOM     30  C   UNL     1       6.827   4.995  14.152  0.00  0.00    +0.000 A 
ATOM     31  C   UNL     1       7.592   4.740  13.008  0.00  0.00    +0.000 A 
ATOM     32  C   UNL     1       7.111   3.886  12.018  0.00  0.00    +0.000 A 
ATOM     33  C   UNL     1       5.871   3.277  12.174  0.00  0.00    +0.000 A 
ATOM     34  C   UNL     1       5.115   3.521  13.325  0.00  0.00    +0.000 A 
ENDBRANCH  28  29
ENDBRANCH  27  28
ENDBRANCH  20  27
ENDBRANCH   1  20
TORSDOF 11
ENDMDL
MODEL 9
REMARK VINA RESULT:      -7.7      3.029      5.003
REMARK  Name = 
REMARK  13 active torsions:
REMARK  status: ('A' for Active; 'I' for Inactive)
REMARK    1  A    between atoms: C_1  and  C_2
REMARK    2  A    between atoms: C_2  and  C_3
REMARK    3  A    between atoms: C_2  and  C_4
REMARK    4  A    between atoms: C_4  and  C_5
REMARK    5  A    between atoms: C_5  and  N_6
REMARK    6  A    between atoms: N_6  and  C_7
REMARK    7  A    between atoms: N_6  and  S_20
REMARK    8  A    between atoms: C_7  and  C_8
REMARK    9  A    between atoms: C_7  and  C_16
REMARK   10  A    between atoms: C_8  and  C_9
REMARK   11  A    between atoms: C_9  and  C_10
REMARK   12  A    between atoms: N_18  and  O_19
REMARK   13  A    between atoms: S_20  and  C_23
REMARK                            x       y       z     vdW  Elec       q    Type
REMARK                         _______ _______ _______ _____ _____    ______ ____
ROOT
ATOM      1  N   UNL     1       5.637   4.959  17.211  0.00  0.00    +0.000 NA
ENDROOT
BRANCH   1   2
ATOM      2  S   UNL     1       4.117   4.208  17.591  0.00  0.00    +0.000 S 
ATOM      3  O   UNL     1       3.487   3.876  16.328  0.00  0.00    +0.000 OA
ATOM      4  O   UNL     1       4.347   3.167  18.566  0.00  0.00    +0.000 OA
BRANCH   2   5
ATOM      5  C   UNL     1       3.104   5.474  18.356  0.00  0.00    +0.000 A 
ATOM      6  C   UNL     1       2.711   5.308  19.690  0.00  0.00    +0.000 A 
ATOM      7  C   UNL     1       2.112   6.373  20.368  0.00  0.00    +0.000 A 
ATOM      8  C   UNL     1       1.895   7.608  19.730  0.00  0.00    +0.000 A 
ATOM      9  C   UNL     1       1.347   8.703  20.421  0.00  0.00    +0.000 A 
ATOM     10  C   UNL     1       1.127   9.921  19.773  0.00  0.00    +0.000 A 
ATOM     11  C   UNL     1       1.435  10.054  18.423  0.00  0.00    +0.000 A 
ATOM     12  C   UNL     1       2.001   8.984  17.728  0.00  0.00    +0.000 A 
ATOM     13  C   UNL     1       2.252   7.756  18.372  0.00  0.00    +0.000 A 
ATOM     14  C   UNL     1       2.881   6.688  17.699  0.00  0.00    +0.000 A 
ENDBRANCH   2   5
ENDBRANCH   1   2
BRANCH   1  15
ATOM     15  C   UNL     1       5.625   5.482  15.764  0.00  0.00    +0.000 C 
BRANCH  15  16
ATOM     16  C   UNL     1       6.889   5.164  14.986  0.00  0.00    +0.000 C 
BRANCH  16  18
ATOM     17  C   UNL     1       5.355   3.979  13.481  0.00  0.00    +0.000 C 
ATOM     18  C   UNL     1       6.848   4.259  13.755  0.00  0.00    +0.000 C 
ATOM     19  C   UNL     1       7.478   4.927  12.537  0.00  0.00    +0.000 C 
ENDBRANCH  16  18
ENDBRANCH  15  16
ENDBRANCH   1  15
BRANCH   1  20
ATOM     20  C   UNL     1       6.310   5.831  18.275  0.00  0.00    +0.000 C 
BRANCH  20  21
ATOM     21  C   UNL     1       7.539   5.285  19.015  0.00  0.00    +0.000 C 
ATOM     22  O   UNL     1       8.344   4.521  18.479  0.00  0.00    +0.000 OA
ATOM     23  N   UNL     1       7.595   5.571  20.367  0.00  0.00    +0.000 N 
ATOM     24  H   UNL     1       7.312   6.498  20.678  0.00  0.00    +0.000 HD
BRANCH  23  25
ATOM     25  O   UNL     1       8.688   5.006  21.068  0.00  0.00    +0.000 OA
ATOM     26  H   UNL     1       9.084   4.405  20.403  0.00  0.00    +0.000 HD
ENDBRANCH  23  25
ENDBRANCH  20  21
BRANCH  20  27
ATOM     27  C   UNL     1       6.857   7.161  17.661  0.00  0.00    +0.000 C 
BRANCH  27  28
ATOM     28  C   UNL     1       8.236   7.598  18.193  0.00  0.00    +0.000 C 
BRANCH  28  29
ATOM     29  C   UNL     1       8.439   9.105  18.261  0.00  0.00    +0.000 A 
ATOM     30  C   UNL     1       9.293   9.636  19.240  0.00  0.00    +0.000 A 
ATOM     31  C   UNL     1       9.497  11.017  19.343  0.00  0.00    +0.000 A 
ATOM     32  C   UNL     1       8.851  11.889  18.469  0.00  0.00    +0.000 A 
ATOM     33  C   UNL     1       8.011  11.382  17.485  0.00  0.00    +0.000 A 
ATOM     34  C   UNL     1       7.821  10.002  17.372  0.00  0.00    +0.000 A 
ENDBRANCH  28  29
ENDBRANCH  27  28
ENDBRANCH  20  27
ENDBRANCH   1  20
TORSDOF 11
ENDMDL
