MODEL 1
REMARK VINA RESULT:      -7.1      0.000      0.000
REMARK  Name = 
REMARK  13 active torsions:
REMARK  status: ('A' for Active; 'I' for Inactive)
REMARK    1  A    between atoms: C_1  and  C_2
REMARK    2  A    between atoms: C_2  and  O_3
REMARK    3  A    between atoms: O_3  and  C_4
REMARK    4  A    between atoms: C_7  and  N_8
REMARK    5  A    between atoms: N_8  and  S_9
REMARK    6  A    between atoms: S_9  and  C_12
REMARK    7  A    between atoms: C_13  and  C_14
REMARK    8  A    between atoms: C_15  and  O_16
REMARK    9  A    between atoms: O_16  and  C_17
REMARK   10  A    between atoms: C_19  and  O_20
REMARK   11  A    between atoms: O_20  and  C_21
REMARK   12  A    between atoms: C_23  and  O_24
REMARK   13  A    between atoms: O_24  and  C_25
REMARK                            x       y       z     vdW  Elec       q    Type
REMARK                         _______ _______ _______ _____ _____    ______ ____
ROOT
ATOM      1  S   UNL     1       6.498   6.670  16.519  0.00  0.00    +0.000 S 
ATOM      2  O   UNL     1       7.407   7.481  17.305  0.00  0.00    +0.000 OA
ATOM      3  O   UNL     1       5.637   7.279  15.528  0.00  0.00    +0.000 OA
ENDROOT
BRANCH   1   4
ATOM      4  N   UNL     1       7.517   5.524  15.773  0.00  0.00    +0.000 N 
ATOM      5  H   UNL     1       8.369   6.034  15.524  0.00  0.00    +0.000 HD
BRANCH   4   9
ATOM      6  C   UNL     1       5.880   3.636  12.366  0.00  0.00    +0.000 A 
ATOM      7  C   UNL     1       5.256   3.501  13.608  0.00  0.00    +0.000 A 
ATOM      8  C   UNL     1       5.797   4.102  14.747  0.00  0.00    +0.000 A 
ATOM      9  C   UNL     1       6.976   4.839  14.639  0.00  0.00    +0.000 A 
ATOM     10  C   UNL     1       7.650   4.908  13.422  0.00  0.00    +0.000 A 
ATOM     11  C   UNL     1       7.102   4.309  12.283  0.00  0.00    +0.000 A 
BRANCH   6  12
ATOM     12  O   UNL     1       5.216   3.069  11.315  0.00  0.00    +0.000 OA
BRANCH  12  14
ATOM     13  C   UNL     1       3.346   3.822  10.034  0.00  0.00    +0.000 C 
ATOM     14  C   UNL     1       3.792   3.181  11.336  0.00  0.00    +0.000 C 
ENDBRANCH  12  14
ENDBRANCH   6  12
ENDBRANCH   4   9
ENDBRANCH   1   4
BRANCH   1  15
ATOM     15  C   UNL     1       5.531   5.745  17.624  0.00  0.00    +0.000 C 
ATOM     16  C   UNL     1       4.194   5.838  17.566  0.00  0.00    +0.000 C 
BRANCH  16  17
ATOM     17  C   UNL     1       3.318   5.184  18.548  0.00  0.00    +0.000 A 
ATOM     18  C   UNL     1       3.289   3.773  18.652  0.00  0.00    +0.000 A 
ATOM     19  C   UNL     1       2.444   3.150  19.585  0.00  0.00    +0.000 A 
ATOM     20  C   UNL     1       1.651   3.893  20.454  0.00  0.00    +0.000 A 
ATOM     21  C   UNL     1       1.677   5.278  20.366  0.00  0.00    +0.000 A 
ATOM     22  C   UNL     1       2.494   5.931  19.423  0.00  0.00    +0.000 A 
BRANCH  18  23
ATOM     23  O   UNL     1       3.957   2.862  17.873  0.00  0.00    +0.000 OA
ATOM     24  C   UNL     1       3.634   1.484  18.018  0.00  0.00    +0.000 C 
ENDBRANCH  18  23
BRANCH  20  25
ATOM     25  O   UNL     1       0.881   3.162  21.314  0.00  0.00    +0.000 OA
ATOM     26  C   UNL     1       1.578   2.285  22.192  0.00  0.00    +0.000 C 
ENDBRANCH  20  25
BRANCH  22  27
ATOM     27  O   UNL     1       2.442   7.297  19.562  0.00  0.00    +0.000 OA
ATOM     28  C   UNL     1       1.580   7.836  20.554  0.00  0.00    +0.000 C 
ENDBRANCH  22  27
ENDBRANCH  16  17
ENDBRANCH   1  15
TORSDOF 9
ENDMDL
MODEL 2
REMARK VINA RESULT:      -6.7      3.061      5.431
REMARK  Name = 
REMARK  13 active torsions:
REMARK  status: ('A' for Active; 'I' for Inactive)
REMARK    1  A    between atoms: C_1  and  C_2
REMARK    2  A    between atoms: C_2  and  O_3
REMARK    3  A    between atoms: O_3  and  C_4
REMARK    4  A    between atoms: C_7  and  N_8
REMARK    5  A    between atoms: N_8  and  S_9
REMARK    6  A    between atoms: S_9  and  C_12
REMARK    7  A    between atoms: C_13  and  C_14
REMARK    8  A    between atoms: C_15  and  O_16
REMARK    9  A    between atoms: O_16  and  C_17
REMARK   10  A    between atoms: C_19  and  O_20
REMARK   11  A    between atoms: O_20  and  C_21
REMARK   12  A    between atoms: C_23  and  O_24
REMARK   13  A    between atoms: O_24  and  C_25
REMARK                            x       y       z     vdW  Elec       q    Type
REMARK                         _______ _______ _______ _____ _____    ______ ____
ROOT
ATOM      1  S   UNL     1       5.798   6.770  16.557  0.00  0.00    +0.000 S 
ATOM      2  O   UNL     1       6.982   7.587  16.737  0.00  0.00    +0.000 OA
ATOM      3  O   UNL     1       5.070   6.792  15.307  0.00  0.00    +0.000 OA
ENDROOT
BRANCH   1   4
ATOM      4  N   UNL     1       6.343   5.187  16.881  0.00  0.00    +0.000 N 
ATOM      5  H   UNL     1       6.672   4.820  15.983  0.00  0.00    +0.000 HD
BRANCH   4   9
ATOM      6  C   UNL     1       3.440   2.685  18.659  0.00  0.00    +0.000 A 
ATOM      7  C   UNL     1       4.537   3.123  19.404  0.00  0.00    +0.000 A 
ATOM      8  C   UNL     1       5.515   3.933  18.824  0.00  0.00    +0.000 A 
ATOM      9  C   UNL     1       5.395   4.301  17.484  0.00  0.00    +0.000 A 
ATOM     10  C   UNL     1       4.349   3.801  16.711  0.00  0.00    +0.000 A 
ATOM     11  C   UNL     1       3.369   2.994  17.298  0.00  0.00    +0.000 A 
BRANCH   6  12
ATOM     12  O   UNL     1       2.512   1.964  19.356  0.00  0.00    +0.000 OA
BRANCH  12  14
ATOM     13  C   UNL     1       0.391   3.058  19.449  0.00  0.00    +0.000 C 
ATOM     14  C   UNL     1       1.193   1.939  18.808  0.00  0.00    +0.000 C 
ENDBRANCH  12  14
ENDBRANCH   6  12
ENDBRANCH   4   9
ENDBRANCH   1   4
BRANCH   1  15
ATOM     15  C   UNL     1       4.708   7.134  17.858  0.00  0.00    +0.000 C 
ATOM     16  C   UNL     1       3.446   7.493  17.579  0.00  0.00    +0.000 C 
BRANCH  16  17
ATOM     17  C   UNL     1       2.508   7.936  18.619  0.00  0.00    +0.000 A 
ATOM     18  C   UNL     1       1.890   9.207  18.531  0.00  0.00    +0.000 A 
ATOM     19  C   UNL     1       1.002   9.632  19.531  0.00  0.00    +0.000 A 
ATOM     20  C   UNL     1       0.671   8.811  20.604  0.00  0.00    +0.000 A 
ATOM     21  C   UNL     1       1.265   7.560  20.699  0.00  0.00    +0.000 A 
ATOM     22  C   UNL     1       2.181   7.116  19.725  0.00  0.00    +0.000 A 
BRANCH  18  23
ATOM     23  O   UNL     1       2.103  10.177  17.583  0.00  0.00    +0.000 OA
ATOM     24  C   UNL     1       2.230  11.527  18.016  0.00  0.00    +0.000 C 
ENDBRANCH  18  23
BRANCH  20  25
ATOM     25  O   UNL     1      -0.209   9.346  21.503  0.00  0.00    +0.000 OA
ATOM     26  C   UNL     1       0.243   9.436  22.849  0.00  0.00    +0.000 C 
ENDBRANCH  20  25
BRANCH  22  27
ATOM     27  O   UNL     1       2.580   5.821  19.953  0.00  0.00    +0.000 OA
ATOM     28  C   UNL     1       2.167   5.197  21.160  0.00  0.00    +0.000 C 
ENDBRANCH  22  27
ENDBRANCH  16  17
ENDBRANCH   1  15
TORSDOF 9
ENDMDL
MODEL 3
REMARK VINA RESULT:      -6.6      2.841      5.683
REMARK  Name = 
REMARK  13 active torsions:
REMARK  status: ('A' for Active; 'I' for Inactive)
REMARK    1  A    between atoms: C_1  and  C_2
REMARK    2  A    between atoms: C_2  and  O_3
REMARK    3  A    between atoms: O_3  and  C_4
REMARK    4  A    between atoms: C_7  and  N_8
REMARK    5  A    between atoms: N_8  and  S_9
REMARK    6  A    between atoms: S_9  and  C_12
REMARK    7  A    between atoms: C_13  and  C_14
REMARK    8  A    between atoms: C_15  and  O_16
REMARK    9  A    between atoms: O_16  and  C_17
REMARK   10  A    between atoms: C_19  and  O_20
REMARK   11  A    between atoms: O_20  and  C_21
REMARK   12  A    between atoms: C_23  and  O_24
REMARK   13  A    between atoms: O_24  and  C_25
REMARK                            x       y       z     vdW  Elec       q    Type
REMARK                         _______ _______ _______ _____ _____    ______ ____
ROOT
ATOM      1  S   UNL     1       2.084   3.384  20.879  0.00  0.00    +0.000 S 
ATOM      2  O   UNL     1       1.091   2.451  20.381  0.00  0.00    +0.000 OA
ATOM      3  O   UNL     1       2.223   3.625  22.299  0.00  0.00    +0.000 OA
ENDROOT
BRANCH   1   4
ATOM      4  N   UNL     1       3.552   2.791  20.246  0.00  0.00    +0.000 N 
ATOM      5  H   UNL     1       4.253   2.956  20.975  0.00  0.00    +0.000 HD
BRANCH   4   9
ATOM      6  C   UNL     1       4.819   4.275  16.499  0.00  0.00    +0.000 A 
ATOM      7  C   UNL     1       5.593   4.503  17.639  0.00  0.00    +0.000 A 
ATOM      8  C   UNL     1       5.176   4.037  18.888  0.00  0.00    +0.000 A 
ATOM      9  C   UNL     1       3.971   3.342  18.994  0.00  0.00    +0.000 A 
ATOM     10  C   UNL     1       3.154   3.183  17.877  0.00  0.00    +0.000 A 
ATOM     11  C   UNL     1       3.578   3.647  16.628  0.00  0.00    +0.000 A 
BRANCH   6  12
ATOM     12  O   UNL     1       5.368   4.711  15.326  0.00  0.00    +0.000 OA
BRANCH  12  14
ATOM     13  C   UNL     1       6.120   3.742  13.276  0.00  0.00    +0.000 C 
ATOM     14  C   UNL     1       6.389   3.885  14.764  0.00  0.00    +0.000 C 
ENDBRANCH  12  14
ENDBRANCH   6  12
ENDBRANCH   4   9
ENDBRANCH   1   4
BRANCH   1  15
ATOM     15  C   UNL     1       1.834   4.897  20.065  0.00  0.00    +0.000 C 
ATOM     16  C   UNL     1       2.153   6.041  20.690  0.00  0.00    +0.000 C 
BRANCH  16  17
ATOM     17  C   UNL     1       1.853   7.359  20.114  0.00  0.00    +0.000 A 
ATOM     18  C   UNL     1       2.305   7.692  18.815  0.00  0.00    +0.000 A 
ATOM     19  C   UNL     1       2.026   8.956  18.271  0.00  0.00    +0.000 A 
ATOM     20  C   UNL     1       1.270   9.893  18.966  0.00  0.00    +0.000 A 
ATOM     21  C   UNL     1       0.815   9.576  20.240  0.00  0.00    +0.000 A 
ATOM     22  C   UNL     1       1.101   8.326  20.822  0.00  0.00    +0.000 A 
BRANCH  18  23
ATOM     23  O   UNL     1       3.090   6.933  17.982  0.00  0.00    +0.000 OA
ATOM     24  C   UNL     1       4.033   7.601  17.151  0.00  0.00    +0.000 C 
ENDBRANCH  18  23
BRANCH  20  25
ATOM     25  O   UNL     1       1.068  11.080  18.320  0.00  0.00    +0.000 OA
ATOM     26  C   UNL     1       1.472  12.253  19.018  0.00  0.00    +0.000 C 
ENDBRANCH  20  25
BRANCH  22  27
ATOM     27  O   UNL     1       0.485   8.180  22.041  0.00  0.00    +0.000 OA
ATOM     28  C   UNL     1       0.341   9.330  22.861  0.00  0.00    +0.000 C 
ENDBRANCH  22  27
ENDBRANCH  16  17
ENDBRANCH   1  15
TORSDOF 9
ENDMDL
MODEL 4
REMARK VINA RESULT:      -6.5      3.075      6.199
REMARK  Name = 
REMARK  13 active torsions:
REMARK  status: ('A' for Active; 'I' for Inactive)
REMARK    1  A    between atoms: C_1  and  C_2
REMARK    2  A    between atoms: C_2  and  O_3
REMARK    3  A    between atoms: O_3  and  C_4
REMARK    4  A    between atoms: C_7  and  N_8
REMARK    5  A    between atoms: N_8  and  S_9
REMARK    6  A    between atoms: S_9  and  C_12
REMARK    7  A    between atoms: C_13  and  C_14
REMARK    8  A    between atoms: C_15  and  O_16
REMARK    9  A    between atoms: O_16  and  C_17
REMARK   10  A    between atoms: C_19  and  O_20
REMARK   11  A    between atoms: O_20  and  C_21
REMARK   12  A    between atoms: C_23  and  O_24
REMARK   13  A    between atoms: O_24  and  C_25
REMARK                            x       y       z     vdW  Elec       q    Type
REMARK                         _______ _______ _______ _____ _____    ______ ____
ROOT
ATOM      1  S   UNL     1       1.816   3.378  21.016  0.00  0.00    +0.000 S 
ATOM      2  O   UNL     1       0.528   2.725  21.149  0.00  0.00    +0.000 OA
ATOM      3  O   UNL     1       2.638   3.629  22.181  0.00  0.00    +0.000 OA
ENDROOT
BRANCH   1   4
ATOM      4  N   UNL     1       2.662   2.390  19.914  0.00  0.00    +0.000 N 
ATOM      5  H   UNL     1       3.178   1.717  20.487  0.00  0.00    +0.000 HD
BRANCH   4   9
ATOM      6  C   UNL     1       5.270   4.241  17.152  0.00  0.00    +0.000 A 
ATOM      7  C   UNL     1       5.589   4.223  18.512  0.00  0.00    +0.000 A 
ATOM      8  C   UNL     1       4.726   3.634  19.439  0.00  0.00    +0.000 A 
ATOM      9  C   UNL     1       3.532   3.063  18.999  0.00  0.00    +0.000 A 
ATOM     10  C   UNL     1       3.167   3.150  17.657  0.00  0.00    +0.000 A 
ATOM     11  C   UNL     1       4.036   3.737  16.732  0.00  0.00    +0.000 A 
BRANCH   6  12
ATOM     12  O   UNL     1       6.226   4.775  16.336  0.00  0.00    +0.000 OA
BRANCH  12  14
ATOM     13  C   UNL     1       6.735   4.798  14.002  0.00  0.00    +0.000 C 
ATOM     14  C   UNL     1       6.668   3.947  15.258  0.00  0.00    +0.000 C 
ENDBRANCH  12  14
ENDBRANCH   6  12
ENDBRANCH   4   9
ENDBRANCH   1   4
BRANCH   1  15
ATOM     15  C   UNL     1       1.561   4.869  20.165  0.00  0.00    +0.000 C 
ATOM     16  C   UNL     1       2.155   5.989  20.605  0.00  0.00    +0.000 C 
BRANCH  16  17
ATOM     17  C   UNL     1       1.886   7.305  20.011  0.00  0.00    +0.000 A 
ATOM     18  C   UNL     1       1.197   8.295  20.751  0.00  0.00    +0.000 A 
ATOM     19  C   UNL     1       0.931   9.550  20.179  0.00  0.00    +0.000 A 
ATOM     20  C   UNL     1       1.370   9.869  18.899  0.00  0.00    +0.000 A 
ATOM     21  C   UNL     1       2.054   8.909  18.165  0.00  0.00    +0.000 A 
ATOM     22  C   UNL     1       2.311   7.633  18.703  0.00  0.00    +0.000 A 
BRANCH  18  23
ATOM     23  O   UNL     1       0.650   8.175  22.005  0.00  0.00    +0.000 OA
ATOM     24  C   UNL     1       0.345   9.364  22.725  0.00  0.00    +0.000 C 
ENDBRANCH  18  23
BRANCH  20  25
ATOM     25  O   UNL     1       1.049  11.126  18.465  0.00  0.00    +0.000 OA
ATOM     26  C   UNL     1       0.267  11.916  19.354  0.00  0.00    +0.000 C 
ENDBRANCH  20  25
BRANCH  22  27
ATOM     27  O   UNL     1       3.076   6.868  17.855  0.00  0.00    +0.000 OA
ATOM     28  C   UNL     1       4.205   7.474  17.242  0.00  0.00    +0.000 C 
ENDBRANCH  22  27
ENDBRANCH  16  17
ENDBRANCH   1  15
TORSDOF 9
ENDMDL
MODEL 5
REMARK VINA RESULT:      -6.5      3.117      5.537
REMARK  Name = 
REMARK  13 active torsions:
REMARK  status: ('A' for Active; 'I' for Inactive)
REMARK    1  A    between atoms: C_1  and  C_2
REMARK    2  A    between atoms: C_2  and  O_3
REMARK    3  A    between atoms: O_3  and  C_4
REMARK    4  A    between atoms: C_7  and  N_8
REMARK    5  A    between atoms: N_8  and  S_9
REMARK    6  A    between atoms: S_9  and  C_12
REMARK    7  A    between atoms: C_13  and  C_14
REMARK    8  A    between atoms: C_15  and  O_16
REMARK    9  A    between atoms: O_16  and  C_17
REMARK   10  A    between atoms: C_19  and  O_20
REMARK   11  A    between atoms: O_20  and  C_21
REMARK   12  A    between atoms: C_23  and  O_24
REMARK   13  A    between atoms: O_24  and  C_25
REMARK                            x       y       z     vdW  Elec       q    Type
REMARK                         _______ _______ _______ _____ _____    ______ ____
ROOT
ATOM      1  S   UNL     1       5.658   6.644  16.528  0.00  0.00    +0.000 S 
ATOM      2  O   UNL     1       6.914   7.300  16.837  0.00  0.00    +0.000 OA
ATOM      3  O   UNL     1       5.035   6.816  15.234  0.00  0.00    +0.000 OA
ENDROOT
BRANCH   1   4
ATOM      4  N   UNL     1       5.986   4.992  16.796  0.00  0.00    +0.000 N 
ATOM      5  H   UNL     1       6.162   4.592  15.871  0.00  0.00    +0.000 HD
BRANCH   4   9
ATOM      6  C   UNL     1       3.106   2.681  18.850  0.00  0.00    +0.000 A 
ATOM      7  C   UNL     1       2.855   3.113  17.546  0.00  0.00    +0.000 A 
ATOM      8  C   UNL     1       3.789   3.895  16.862  0.00  0.00    +0.000 A 
ATOM      9  C   UNL     1       4.980   4.251  17.494  0.00  0.00    +0.000 A 
ATOM     10  C   UNL     1       5.201   3.896  18.823  0.00  0.00    +0.000 A 
ATOM     11  C   UNL     1       4.266   3.108  19.502  0.00  0.00    +0.000 A 
BRANCH   6  12
ATOM     12  O   UNL     1       2.155   1.859  19.385  0.00  0.00    +0.000 OA
BRANCH  12  14
ATOM     13  C   UNL     1       1.356   2.438  21.561  0.00  0.00    +0.000 C 
ATOM     14  C   UNL     1       1.079   2.504  20.069  0.00  0.00    +0.000 C 
ENDBRANCH  12  14
ENDBRANCH   6  12
ENDBRANCH   4   9
ENDBRANCH   1   4
BRANCH   1  15
ATOM     15  C   UNL     1       4.524   7.074  17.770  0.00  0.00    +0.000 C 
ATOM     16  C   UNL     1       3.419   7.762  17.443  0.00  0.00    +0.000 C 
BRANCH  16  17
ATOM     17  C   UNL     1       2.482   8.268  18.455  0.00  0.00    +0.000 A 
ATOM     18  C   UNL     1       2.102   7.454  19.549  0.00  0.00    +0.000 A 
ATOM     19  C   UNL     1       1.198   7.935  20.509  0.00  0.00    +0.000 A 
ATOM     20  C   UNL     1       0.687   9.227  20.440  0.00  0.00    +0.000 A 
ATOM     21  C   UNL     1       1.057  10.038  19.375  0.00  0.00    +0.000 A 
ATOM     22  C   UNL     1       1.941   9.573  18.382  0.00  0.00    +0.000 A 
BRANCH  18  23
ATOM     23  O   UNL     1       2.458   6.148  19.784  0.00  0.00    +0.000 OA
ATOM     24  C   UNL     1       2.286   5.629  21.098  0.00  0.00    +0.000 C 
ENDBRANCH  18  23
BRANCH  20  25
ATOM     25  O   UNL     1      -0.178   9.570  21.441  0.00  0.00    +0.000 OA
ATOM     26  C   UNL     1      -0.518  10.949  21.532  0.00  0.00    +0.000 C 
ENDBRANCH  20  25
BRANCH  22  27
ATOM     27  O   UNL     1       2.248  10.556  17.473  0.00  0.00    +0.000 OA
ATOM     28  C   UNL     1       2.414  11.883  17.952  0.00  0.00    +0.000 C 
ENDBRANCH  22  27
ENDBRANCH  16  17
ENDBRANCH   1  15
TORSDOF 9
ENDMDL
MODEL 6
REMARK VINA RESULT:      -6.4      4.351      8.346
REMARK  Name = 
REMARK  13 active torsions:
REMARK  status: ('A' for Active; 'I' for Inactive)
REMARK    1  A    between atoms: C_1  and  C_2
REMARK    2  A    between atoms: C_2  and  O_3
REMARK    3  A    between atoms: O_3  and  C_4
REMARK    4  A    between atoms: C_7  and  N_8
REMARK    5  A    between atoms: N_8  and  S_9
REMARK    6  A    between atoms: S_9  and  C_12
REMARK    7  A    between atoms: C_13  and  C_14
REMARK    8  A    between atoms: C_15  and  O_16
REMARK    9  A    between atoms: O_16  and  C_17
REMARK   10  A    between atoms: C_19  and  O_20
REMARK   11  A    between atoms: O_20  and  C_21
REMARK   12  A    between atoms: C_23  and  O_24
REMARK   13  A    between atoms: O_24  and  C_25
REMARK                            x       y       z     vdW  Elec       q    Type
REMARK                         _______ _______ _______ _____ _____    ______ ____
ROOT
ATOM      1  S   UNL     1       0.867   9.006  21.381  0.00  0.00    +0.000 S 
ATOM      2  O   UNL     1       1.676   9.578  22.440  0.00  0.00    +0.000 OA
ATOM      3  O   UNL     1      -0.552   8.791  21.572  0.00  0.00    +0.000 OA
ENDROOT
BRANCH   1   4
ATOM      4  N   UNL     1       1.119  10.058  20.063  0.00  0.00    +0.000 N 
ATOM      5  H   UNL     1       1.660  10.843  20.437  0.00  0.00    +0.000 HD
BRANCH   4   9
ATOM      6  C   UNL     1      -2.430  11.355  18.174  0.00  0.00    +0.000 A 
ATOM      7  C   UNL     1      -1.677  10.322  17.613  0.00  0.00    +0.000 A 
ATOM      8  C   UNL     1      -0.490   9.897  18.215  0.00  0.00    +0.000 A 
ATOM      9  C   UNL     1      -0.054  10.518  19.385  0.00  0.00    +0.000 A 
ATOM     10  C   UNL     1      -0.754  11.604  19.905  0.00  0.00    +0.000 A 
ATOM     11  C   UNL     1      -1.945  12.023  19.302  0.00  0.00    +0.000 A 
BRANCH   6  12
ATOM     12  O   UNL     1      -3.608  11.629  17.539  0.00  0.00    +0.000 OA
BRANCH  12  14
ATOM     13  C   UNL     1      -5.648  11.748  18.777  0.00  0.00    +0.000 C 
ATOM     14  C   UNL     1      -4.739  10.857  17.948  0.00  0.00    +0.000 C 
ENDBRANCH  12  14
ENDBRANCH   6  12
ENDBRANCH   4   9
ENDBRANCH   1   4
BRANCH   1  15
ATOM     15  C   UNL     1       1.612   7.514  20.901  0.00  0.00    +0.000 C 
ATOM     16  C   UNL     1       2.027   7.363  19.633  0.00  0.00    +0.000 C 
BRANCH  16  17
ATOM     17  C   UNL     1       2.549   6.088  19.125  0.00  0.00    +0.000 A 
ATOM     18  C   UNL     1       3.501   6.072  18.077  0.00  0.00    +0.000 A 
ATOM     19  C   UNL     1       3.991   4.851  17.586  0.00  0.00    +0.000 A 
ATOM     20  C   UNL     1       3.595   3.637  18.136  0.00  0.00    +0.000 A 
ATOM     21  C   UNL     1       2.668   3.640  19.170  0.00  0.00    +0.000 A 
ATOM     22  C   UNL     1       2.138   4.847  19.665  0.00  0.00    +0.000 A 
BRANCH  18  23
ATOM     23  O   UNL     1       3.992   7.145  17.376  0.00  0.00    +0.000 OA
ATOM     24  C   UNL     1       4.993   6.907  16.392  0.00  0.00    +0.000 C 
ENDBRANCH  18  23
BRANCH  20  25
ATOM     25  O   UNL     1       4.154   2.526  17.568  0.00  0.00    +0.000 OA
ATOM     26  C   UNL     1       3.741   1.273  18.101  0.00  0.00    +0.000 C 
ENDBRANCH  20  25
BRANCH  22  27
ATOM     27  O   UNL     1       1.311   4.636  20.742  0.00  0.00    +0.000 OA
ATOM     28  C   UNL     1       1.329   3.356  21.359  0.00  0.00    +0.000 C 
ENDBRANCH  22  27
ENDBRANCH  16  17
ENDBRANCH   1  15
TORSDOF 9
ENDMDL
MODEL 7
REMARK VINA RESULT:      -6.3      2.958      5.635
REMARK  Name = 
REMARK  13 active torsions:
REMARK  status: ('A' for Active; 'I' for Inactive)
REMARK    1  A    between atoms: C_1  and  C_2
REMARK    2  A    between atoms: C_2  and  O_3
REMARK    3  A    between atoms: O_3  and  C_4
REMARK    4  A    between atoms: C_7  and  N_8
REMARK    5  A    between atoms: N_8  and  S_9
REMARK    6  A    between atoms: S_9  and  C_12
REMARK    7  A    between atoms: C_13  and  C_14
REMARK    8  A    between atoms: C_15  and  O_16
REMARK    9  A    between atoms: O_16  and  C_17
REMARK   10  A    between atoms: C_19  and  O_20
REMARK   11  A    between atoms: O_20  and  C_21
REMARK   12  A    between atoms: C_23  and  O_24
REMARK   13  A    between atoms: O_24  and  C_25
REMARK                            x       y       z     vdW  Elec       q    Type
REMARK                         _______ _______ _______ _____ _____    ______ ____
ROOT
ATOM      1  S   UNL     1       2.117   3.383  20.836  0.00  0.00    +0.000 S 
ATOM      2  O   UNL     1       1.233   2.412  20.219  0.00  0.00    +0.000 OA
ATOM      3  O   UNL     1       2.083   3.607  22.265  0.00  0.00    +0.000 OA
ENDROOT
BRANCH   1   4
ATOM      4  N   UNL     1       3.674   2.868  20.368  0.00  0.00    +0.000 N 
ATOM      5  H   UNL     1       4.311   3.232  21.083  0.00  0.00    +0.000 HD
BRANCH   4   9
ATOM      6  C   UNL     1       4.887   4.135  16.525  0.00  0.00    +0.000 A 
ATOM      7  C   UNL     1       3.775   3.303  16.668  0.00  0.00    +0.000 A 
ATOM      8  C   UNL     1       3.375   2.859  17.931  0.00  0.00    +0.000 A 
ATOM      9  C   UNL     1       4.100   3.248  19.056  0.00  0.00    +0.000 A 
ATOM     10  C   UNL     1       5.259   4.008  18.915  0.00  0.00    +0.000 A 
ATOM     11  C   UNL     1       5.653   4.455  17.649  0.00  0.00    +0.000 A 
BRANCH   6  12
ATOM     12  O   UNL     1       5.134   4.565  15.251  0.00  0.00    +0.000 OA
BRANCH  12  14
ATOM     13  C   UNL     1       7.135   4.860  13.981  0.00  0.00    +0.000 C 
ATOM     14  C   UNL     1       6.140   3.852  14.530  0.00  0.00    +0.000 C 
ENDBRANCH  12  14
ENDBRANCH   6  12
ENDBRANCH   4   9
ENDBRANCH   1   4
BRANCH   1  15
ATOM     15  C   UNL     1       1.889   4.894  20.015  0.00  0.00    +0.000 C 
ATOM     16  C   UNL     1       2.186   6.039  20.649  0.00  0.00    +0.000 C 
BRANCH  16  17
ATOM     17  C   UNL     1       1.901   7.357  20.064  0.00  0.00    +0.000 A 
ATOM     18  C   UNL     1       2.277   7.644  18.730  0.00  0.00    +0.000 A 
ATOM     19  C   UNL     1       2.012   8.907  18.177  0.00  0.00    +0.000 A 
ATOM     20  C   UNL     1       1.343   9.889  18.900  0.00  0.00    +0.000 A 
ATOM     21  C   UNL     1       0.963   9.617  20.208  0.00  0.00    +0.000 A 
ATOM     22  C   UNL     1       1.239   8.369  20.798  0.00  0.00    +0.000 A 
BRANCH  18  23
ATOM     23  O   UNL     1       2.972   6.837  17.864  0.00  0.00    +0.000 OA
ATOM     24  C   UNL     1       4.173   7.340  17.290  0.00  0.00    +0.000 C 
ENDBRANCH  18  23
BRANCH  20  25
ATOM     25  O   UNL     1       1.146  11.070  18.241  0.00  0.00    +0.000 OA
ATOM     26  C   UNL     1       0.365  12.046  18.921  0.00  0.00    +0.000 C 
ENDBRANCH  20  25
BRANCH  22  27
ATOM     27  O   UNL     1       0.701   8.272  22.059  0.00  0.00    +0.000 OA
ATOM     28  C   UNL     1      -0.424   9.081  22.371  0.00  0.00    +0.000 C 
ENDBRANCH  22  27
ENDBRANCH  16  17
ENDBRANCH   1  15
TORSDOF 9
ENDMDL
MODEL 8
REMARK VINA RESULT:      -6.3      4.443      8.437
REMARK  Name = 
REMARK  13 active torsions:
REMARK  status: ('A' for Active; 'I' for Inactive)
REMARK    1  A    between atoms: C_1  and  C_2
REMARK    2  A    between atoms: C_2  and  O_3
REMARK    3  A    between atoms: O_3  and  C_4
REMARK    4  A    between atoms: C_7  and  N_8
REMARK    5  A    between atoms: N_8  and  S_9
REMARK    6  A    between atoms: S_9  and  C_12
REMARK    7  A    between atoms: C_13  and  C_14
REMARK    8  A    between atoms: C_15  and  O_16
REMARK    9  A    between atoms: O_16  and  C_17
REMARK   10  A    between atoms: C_19  and  O_20
REMARK   11  A    between atoms: O_20  and  C_21
REMARK   12  A    between atoms: C_23  and  O_24
REMARK   13  A    between atoms: O_24  and  C_25
REMARK                            x       y       z     vdW  Elec       q    Type
REMARK                         _______ _______ _______ _____ _____    ______ ____
ROOT
ATOM      1  S   UNL     1       0.731   8.968  21.433  0.00  0.00    +0.000 S 
ATOM      2  O   UNL     1       1.770   9.302  22.387  0.00  0.00    +0.000 OA
ATOM      3  O   UNL     1      -0.661   8.962  21.830  0.00  0.00    +0.000 OA
ENDROOT
BRANCH   1   4
ATOM      4  N   UNL     1       0.965  10.088  20.168  0.00  0.00    +0.000 N 
ATOM      5  H   UNL     1       1.494  10.862  20.580  0.00  0.00    +0.000 HD
BRANCH   4   9
ATOM      6  C   UNL     1      -2.606  11.427  18.351  0.00  0.00    +0.000 A 
ATOM      7  C   UNL     1      -1.882  10.379  17.780  0.00  0.00    +0.000 A 
ATOM      8  C   UNL     1      -0.689   9.939  18.358  0.00  0.00    +0.000 A 
ATOM      9  C   UNL     1      -0.216  10.561  19.514  0.00  0.00    +0.000 A 
ATOM     10  C   UNL     1      -0.888  11.661  20.042  0.00  0.00    +0.000 A 
ATOM     11  C   UNL     1      -2.085  12.095  19.463  0.00  0.00    +0.000 A 
BRANCH   6  12
ATOM     12  O   UNL     1      -3.794  11.716  17.741  0.00  0.00    +0.000 OA
BRANCH  12  14
ATOM     13  C   UNL     1      -6.028  10.976  18.151  0.00  0.00    +0.000 C 
ATOM     14  C   UNL     1      -4.916  11.905  18.605  0.00  0.00    +0.000 C 
ENDBRANCH  12  14
ENDBRANCH   6  12
ENDBRANCH   4   9
ENDBRANCH   1   4
BRANCH   1  15
ATOM     15  C   UNL     1       1.133   7.430  20.737  0.00  0.00    +0.000 C 
ATOM     16  C   UNL     1       2.355   7.243  20.214  0.00  0.00    +0.000 C 
BRANCH  16  17
ATOM     17  C   UNL     1       2.723   6.014  19.498  0.00  0.00    +0.000 A 
ATOM     18  C   UNL     1       2.419   4.747  20.051  0.00  0.00    +0.000 A 
ATOM     19  C   UNL     1       2.781   3.573  19.370  0.00  0.00    +0.000 A 
ATOM     20  C   UNL     1       3.402   3.619  18.127  0.00  0.00    +0.000 A 
ATOM     21  C   UNL     1       3.699   4.856  17.571  0.00  0.00    +0.000 A 
ATOM     22  C   UNL     1       3.373   6.050  18.242  0.00  0.00    +0.000 A 
BRANCH  18  23
ATOM     23  O   UNL     1       1.848   4.480  21.271  0.00  0.00    +0.000 OA
ATOM     24  C   UNL     1       1.734   3.122  21.680  0.00  0.00    +0.000 C 
ENDBRANCH  18  23
BRANCH  20  25
ATOM     25  O   UNL     1       3.695   2.404  17.573  0.00  0.00    +0.000 OA
ATOM     26  C   UNL     1       3.685   1.290  18.459  0.00  0.00    +0.000 C 
ENDBRANCH  20  25
BRANCH  22  27
ATOM     27  O   UNL     1       3.667   7.158  17.484  0.00  0.00    +0.000 OA
ATOM     28  C   UNL     1       4.747   7.072  16.565  0.00  0.00    +0.000 C 
ENDBRANCH  22  27
ENDBRANCH  16  17
ENDBRANCH   1  15
TORSDOF 9
ENDMDL
MODEL 9
REMARK VINA RESULT:      -6.3      4.450      8.237
REMARK  Name = 
REMARK  13 active torsions:
REMARK  status: ('A' for Active; 'I' for Inactive)
REMARK    1  A    between atoms: C_1  and  C_2
REMARK    2  A    between atoms: C_2  and  O_3
REMARK    3  A    between atoms: O_3  and  C_4
REMARK    4  A    between atoms: C_7  and  N_8
REMARK    5  A    between atoms: N_8  and  S_9
REMARK    6  A    between atoms: S_9  and  C_12
REMARK    7  A    between atoms: C_13  and  C_14
REMARK    8  A    between atoms: C_15  and  O_16
REMARK    9  A    between atoms: O_16  and  C_17
REMARK   10  A    between atoms: C_19  and  O_20
REMARK   11  A    between atoms: O_20  and  C_21
REMARK   12  A    between atoms: C_23  and  O_24
REMARK   13  A    between atoms: O_24  and  C_25
REMARK                            x       y       z     vdW  Elec       q    Type
REMARK                         _______ _______ _______ _____ _____    ______ ____
ROOT
ATOM      1  S   UNL     1       0.652   9.230  22.006  0.00  0.00    +0.000 S 
ATOM      2  O   UNL     1       1.530   9.334  23.155  0.00  0.00    +0.000 OA
ATOM      3  O   UNL     1      -0.710   8.764  22.159  0.00  0.00    +0.000 OA
ENDROOT
BRANCH   1   4
ATOM      4  N   UNL     1       0.653  10.804  21.350  0.00  0.00    +0.000 N 
ATOM      5  H   UNL     1       0.496  11.433  22.142  0.00  0.00    +0.000 HD
BRANCH   4   9
ATOM      6  C   UNL     1      -2.219  11.447  18.319  0.00  0.00    +0.000 A 
ATOM      7  C   UNL     1      -1.062  10.716  18.042  0.00  0.00    +0.000 A 
ATOM      8  C   UNL     1      -0.094  10.513  19.028  0.00  0.00    +0.000 A 
ATOM      9  C   UNL     1      -0.286  11.054  20.300  0.00  0.00    +0.000 A 
ATOM     10  C   UNL     1      -1.396  11.854  20.560  0.00  0.00    +0.000 A 
ATOM     11  C   UNL     1      -2.365  12.051  19.571  0.00  0.00    +0.000 A 
BRANCH   6  12
ATOM     12  O   UNL     1      -3.126  11.512  17.299  0.00  0.00    +0.000 OA
BRANCH  12  14
ATOM     13  C   UNL     1      -3.219  10.505  15.135  0.00  0.00    +0.000 C 
ATOM     14  C   UNL     1      -3.404  10.283  16.626  0.00  0.00    +0.000 C 
ENDBRANCH  12  14
ENDBRANCH   6  12
ENDBRANCH   4   9
ENDBRANCH   1   4
BRANCH   1  15
ATOM     15  C   UNL     1       1.459   8.258  20.816  0.00  0.00    +0.000 C 
ATOM     16  C   UNL     1       1.304   6.925  20.840  0.00  0.00    +0.000 C 
BRANCH  16  17
ATOM     17  C   UNL     1       2.053   6.032  19.946  0.00  0.00    +0.000 A 
ATOM     18  C   UNL     1       1.954   4.627  20.092  0.00  0.00    +0.000 A 
ATOM     19  C   UNL     1       2.679   3.775  19.244  0.00  0.00    +0.000 A 
ATOM     20  C   UNL     1       3.473   4.278  18.219  0.00  0.00    +0.000 A 
ATOM     21  C   UNL     1       3.573   5.654  18.061  0.00  0.00    +0.000 A 
ATOM     22  C   UNL     1       2.879   6.534  18.914  0.00  0.00    +0.000 A 
BRANCH  18  23
ATOM     23  O   UNL     1       1.262   3.932  21.053  0.00  0.00    +0.000 OA
ATOM     24  C   UNL     1       1.795   2.692  21.503  0.00  0.00    +0.000 C 
ENDBRANCH  18  23
BRANCH  20  25
ATOM     25  O   UNL     1       4.120   3.339  17.464  0.00  0.00    +0.000 OA
ATOM     26  C   UNL     1       5.100   3.830  16.556  0.00  0.00    +0.000 C 
ENDBRANCH  20  25
BRANCH  22  27
ATOM     27  O   UNL     1       3.039   7.844  18.533  0.00  0.00    +0.000 OA
ATOM     28  C   UNL     1       2.260   8.326  17.448  0.00  0.00    +0.000 C 
ENDBRANCH  22  27
ENDBRANCH  16  17
ENDBRANCH   1  15
TORSDOF 9
ENDMDL
