MODEL 1
REMARK VINA RESULT:      -7.8      0.000      0.000
REMARK  Name = 
REMARK  5 active torsions:
REMARK  status: ('A' for Active; 'I' for Inactive)
REMARK    1  A    between atoms: C_2  and  C_11
REMARK    2  A    between atoms: N_3  and  C_4
REMARK    3  A    between atoms: N_14  and  C_15
REMARK    4  A    between atoms: C_15  and  N_16
REMARK    5  A    between atoms: C_18  and  N_19
REMARK                            x       y       z     vdW  Elec       q    Type
REMARK                         _______ _______ _______ _____ _____    ______ ____
ROOT
ATOM      1  C   UNL     1       2.307   5.938  19.936  0.00  0.00    +0.000 A 
ATOM      2  C   UNL     1       1.518   4.798  20.254  0.00  0.00    +0.000 A 
ATOM      3  C   UNL     1       2.326   3.713  20.043  0.00  0.00    +0.000 A 
ATOM      4  N   UNL     1       3.529   4.216  19.647  0.00  0.00    +0.000 N 
ATOM      5  N   UNL     1       3.534   5.570  19.502  0.00  0.00    +0.000 NA
ENDROOT
BRANCH   1   7
ATOM      6  O   UNL     1       2.260   8.188  19.319  0.00  0.00    +0.000 OA
ATOM      7  C   UNL     1       1.844   7.328  20.087  0.00  0.00    +0.000 C 
ATOM      8  N   UNL     1       0.974   7.552  21.145  0.00  0.00    +0.000 N 
ATOM      9  H   UNL     1       0.869   6.779  21.791  0.00  0.00    +0.000 HD
BRANCH   8  10
ATOM     10  C   UNL     1       0.378   8.798  21.451  0.00  0.00    +0.000 A 
ATOM     11  C   UNL     1       0.104   9.197  22.765  0.00  0.00    +0.000 A 
ATOM     12  C   UNL     1      -0.542  10.405  23.036  0.00  0.00    +0.000 A 
ATOM     13  C   UNL     1      -0.910  11.236  21.986  0.00  0.00    +0.000 A 
ATOM     14 BR   UNL     1      -1.828  12.847  22.350  0.00  0.00    +0.000 Br
ATOM     15  C   UNL     1      -0.610  10.879  20.672  0.00  0.00    +0.000 A 
ATOM     16  C   UNL     1       0.047   9.668  20.405  0.00  0.00    +0.000 A 
ENDBRANCH   8  10
ENDBRANCH   1   7
BRANCH   4  17
ATOM     17  C   UNL     1       4.727   3.435  19.407  0.00  0.00    +0.000 C 
BRANCH  17  18
ATOM     18  N   UNL     1       5.547   4.027  18.362  0.00  0.00    +0.000 N 
ATOM     19  C   UNL     1       5.300   4.006  17.016  0.00  0.00    +0.000 A 
ATOM     20  C   UNL     1       6.392   4.601  16.420  0.00  0.00    +0.000 A 
ATOM     21  C   UNL     1       7.237   4.959  17.484  0.00  0.00    +0.000 A 
ATOM     22  N   UNL     1       6.732   4.607  18.673  0.00  0.00    +0.000 NA
BRANCH  20  23
ATOM     23  N   UNL     1       6.613   4.791  15.022  0.00  0.00    +0.000 N 
ATOM     24  O   UNL     1       7.599   5.461  14.692  0.00  0.00    +0.000 OA
ATOM     25  O   UNL     1       5.791   4.278  14.254  0.00  0.00    +0.000 OA
ENDBRANCH  20  23
ENDBRANCH  17  18
ENDBRANCH   4  17
TORSDOF 5
ENDMDL
MODEL 2
REMARK VINA RESULT:      -7.7      1.453      2.220
REMARK  Name = 
REMARK  5 active torsions:
REMARK  status: ('A' for Active; 'I' for Inactive)
REMARK    1  A    between atoms: C_2  and  C_11
REMARK    2  A    between atoms: N_3  and  C_4
REMARK    3  A    between atoms: N_14  and  C_15
REMARK    4  A    between atoms: C_15  and  N_16
REMARK    5  A    between atoms: C_18  and  N_19
REMARK                            x       y       z     vdW  Elec       q    Type
REMARK                         _______ _______ _______ _____ _____    ______ ____
ROOT
ATOM      1  C   UNL     1       3.188   5.215  19.697  0.00  0.00    +0.000 A 
ATOM      2  C   UNL     1       3.235   3.801  19.841  0.00  0.00    +0.000 A 
ATOM      3  C   UNL     1       4.416   3.406  19.272  0.00  0.00    +0.000 A 
ATOM      4  N   UNL     1       5.024   4.549  18.847  0.00  0.00    +0.000 N 
ATOM      5  N   UNL     1       4.270   5.669  19.027  0.00  0.00    +0.000 NA
ENDROOT
BRANCH   1   7
ATOM      6  O   UNL     1       1.107   5.533  20.706  0.00  0.00    +0.000 OA
ATOM      7  C   UNL     1       2.109   6.062  20.235  0.00  0.00    +0.000 C 
ATOM      8  N   UNL     1       2.316   7.429  20.124  0.00  0.00    +0.000 N 
ATOM      9  H   UNL     1       3.107   7.703  19.552  0.00  0.00    +0.000 HD
BRANCH   8  10
ATOM     10  C   UNL     1       1.432   8.422  20.607  0.00  0.00    +0.000 A 
ATOM     11  C   UNL     1       0.758   9.307  19.755  0.00  0.00    +0.000 A 
ATOM     12  C   UNL     1      -0.061  10.318  20.261  0.00  0.00    +0.000 A 
ATOM     13  C   UNL     1      -0.223  10.446  21.634  0.00  0.00    +0.000 A 
ATOM     14 BR   UNL     1      -1.292  11.845  22.320  0.00  0.00    +0.000 Br
ATOM     15  C   UNL     1       0.404   9.551  22.500  0.00  0.00    +0.000 A 
ATOM     16  C   UNL     1       1.219   8.531  21.986  0.00  0.00    +0.000 A 
ENDBRANCH   8  10
ENDBRANCH   1   7
BRANCH   4  17
ATOM     17  C   UNL     1       6.352   4.628  18.269  0.00  0.00    +0.000 C 
BRANCH  17  18
ATOM     18  N   UNL     1       6.309   4.514  16.820  0.00  0.00    +0.000 N 
ATOM     19  C   UNL     1       7.294   4.875  15.941  0.00  0.00    +0.000 A 
ATOM     20  C   UNL     1       6.769   4.678  14.681  0.00  0.00    +0.000 A 
ATOM     21  C   UNL     1       5.471   4.185  14.901  0.00  0.00    +0.000 A 
ATOM     22  N   UNL     1       5.180   4.088  16.204  0.00  0.00    +0.000 NA
BRANCH  20  23
ATOM     23  N   UNL     1       7.409   4.938  13.430  0.00  0.00    +0.000 N 
ATOM     24  O   UNL     1       7.027   4.282  12.454  0.00  0.00    +0.000 OA
ATOM     25  O   UNL     1       8.303   5.793  13.430  0.00  0.00    +0.000 OA
ENDBRANCH  20  23
ENDBRANCH  17  18
ENDBRANCH   4  17
TORSDOF 5
ENDMDL
MODEL 3
REMARK VINA RESULT:      -7.7      0.526      1.079
REMARK  Name = 
REMARK  5 active torsions:
REMARK  status: ('A' for Active; 'I' for Inactive)
REMARK    1  A    between atoms: C_2  and  C_11
REMARK    2  A    between atoms: N_3  and  C_4
REMARK    3  A    between atoms: N_14  and  C_15
REMARK    4  A    between atoms: C_15  and  N_16
REMARK    5  A    between atoms: C_18  and  N_19
REMARK                            x       y       z     vdW  Elec       q    Type
REMARK                         _______ _______ _______ _____ _____    ______ ____
ROOT
ATOM      1  C   UNL     1       2.384   5.798  20.026  0.00  0.00    +0.000 A 
ATOM      2  C   UNL     1       1.907   4.822  20.944  0.00  0.00    +0.000 A 
ATOM      3  C   UNL     1       2.580   3.667  20.646  0.00  0.00    +0.000 A 
ATOM      4  N   UNL     1       3.422   3.982  19.621  0.00  0.00    +0.000 N 
ATOM      5  N   UNL     1       3.278   5.258  19.169  0.00  0.00    +0.000 NA
ENDROOT
BRANCH   1   7
ATOM      6  O   UNL     1       2.295   7.942  19.108  0.00  0.00    +0.000 OA
ATOM      7  C   UNL     1       1.967   7.211  20.037  0.00  0.00    +0.000 C 
ATOM      8  N   UNL     1       1.246   7.608  21.154  0.00  0.00    +0.000 N 
ATOM      9  H   UNL     1       1.212   6.936  21.910  0.00  0.00    +0.000 HD
BRANCH   8  10
ATOM     10  C   UNL     1       0.715   8.904  21.352  0.00  0.00    +0.000 A 
ATOM     11  C   UNL     1       0.866   9.931  20.411  0.00  0.00    +0.000 A 
ATOM     12  C   UNL     1       0.387  11.219  20.659  0.00  0.00    +0.000 A 
ATOM     13  C   UNL     1      -0.262  11.490  21.856  0.00  0.00    +0.000 A 
ATOM     14 BR   UNL     1      -0.866  13.244  22.211  0.00  0.00    +0.000 Br
ATOM     15  C   UNL     1      -0.462  10.474  22.790  0.00  0.00    +0.000 A 
ATOM     16  C   UNL     1       0.014   9.179  22.532  0.00  0.00    +0.000 A 
ENDBRANCH   8  10
ENDBRANCH   1   7
BRANCH   4  17
ATOM     17  C   UNL     1       4.407   3.090  19.041  0.00  0.00    +0.000 C 
BRANCH  17  18
ATOM     18  N   UNL     1       5.327   3.806  18.172  0.00  0.00    +0.000 N 
ATOM     19  C   UNL     1       5.310   3.831  16.804  0.00  0.00    +0.000 A 
ATOM     20  C   UNL     1       6.421   4.553  16.423  0.00  0.00    +0.000 A 
ATOM     21  C   UNL     1       7.038   4.932  17.627  0.00  0.00    +0.000 A 
ATOM     22  N   UNL     1       6.380   4.476  18.699  0.00  0.00    +0.000 NA
BRANCH  20  23
ATOM     23  N   UNL     1       6.852   4.833  15.090  0.00  0.00    +0.000 N 
ATOM     24  O   UNL     1       7.708   5.713  14.946  0.00  0.00    +0.000 OA
ATOM     25  O   UNL     1       6.321   4.178  14.185  0.00  0.00    +0.000 OA
ENDBRANCH  20  23
ENDBRANCH  17  18
ENDBRANCH   4  17
TORSDOF 5
ENDMDL
MODEL 4
REMARK VINA RESULT:      -7.7      1.387      1.742
REMARK  Name = 
REMARK  5 active torsions:
REMARK  status: ('A' for Active; 'I' for Inactive)
REMARK    1  A    between atoms: C_2  and  C_11
REMARK    2  A    between atoms: N_3  and  C_4
REMARK    3  A    between atoms: N_14  and  C_15
REMARK    4  A    between atoms: C_15  and  N_16
REMARK    5  A    between atoms: C_18  and  N_19
REMARK                            x       y       z     vdW  Elec       q    Type
REMARK                         _______ _______ _______ _____ _____    ______ ____
ROOT
ATOM      1  C   UNL     1       2.512   6.507  19.482  0.00  0.00    +0.000 A 
ATOM      2  C   UNL     1       1.862   5.721  20.471  0.00  0.00    +0.000 A 
ATOM      3  C   UNL     1       2.522   4.521  20.490  0.00  0.00    +0.000 A 
ATOM      4  N   UNL     1       3.521   4.633  19.569  0.00  0.00    +0.000 N 
ATOM      5  N   UNL     1       3.502   5.809  18.882  0.00  0.00    +0.000 NA
ENDROOT
BRANCH   1   7
ATOM      6  O   UNL     1       2.666   8.457  18.207  0.00  0.00    +0.000 OA
ATOM      7  C   UNL     1       2.160   7.905  19.179  0.00  0.00    +0.000 C 
ATOM      8  N   UNL     1       1.282   8.503  20.072  0.00  0.00    +0.000 N 
ATOM      9  H   UNL     1       1.096   7.975  20.916  0.00  0.00    +0.000 HD
BRANCH   8  10
ATOM     10  C   UNL     1       0.781   9.820  19.952  0.00  0.00    +0.000 A 
ATOM     11  C   UNL     1      -0.022  10.225  18.877  0.00  0.00    +0.000 A 
ATOM     12  C   UNL     1      -0.451  11.547  18.750  0.00  0.00    +0.000 A 
ATOM     13  C   UNL     1      -0.088  12.481  19.711  0.00  0.00    +0.000 A 
ATOM     14 BR   UNL     1      -0.629  14.280  19.512  0.00  0.00    +0.000 Br
ATOM     15  C   UNL     1       0.675  12.093  20.811  0.00  0.00    +0.000 A 
ATOM     16  C   UNL     1       1.097  10.761  20.940  0.00  0.00    +0.000 A 
ENDBRANCH   8  10
ENDBRANCH   1   7
BRANCH   4  17
ATOM     17  C   UNL     1       4.544   3.636  19.316  0.00  0.00    +0.000 C 
BRANCH  17  18
ATOM     18  N   UNL     1       5.499   4.095  18.320  0.00  0.00    +0.000 N 
ATOM     19  C   UNL     1       5.359   4.029  16.960  0.00  0.00    +0.000 A 
ATOM     20  C   UNL     1       6.548   4.488  16.434  0.00  0.00    +0.000 A 
ATOM     21  C   UNL     1       7.335   4.821  17.549  0.00  0.00    +0.000 A 
ATOM     22  N   UNL     1       6.705   4.578  18.705  0.00  0.00    +0.000 NA
BRANCH  20  23
ATOM     23  N   UNL     1       6.898   4.585  15.052  0.00  0.00    +0.000 N 
ATOM     24  O   UNL     1       7.707   5.465  14.735  0.00  0.00    +0.000 OA
ATOM     25  O   UNL     1       6.352   3.786  14.282  0.00  0.00    +0.000 OA
ENDBRANCH  20  23
ENDBRANCH  17  18
ENDBRANCH   4  17
TORSDOF 5
ENDMDL
MODEL 5
REMARK VINA RESULT:      -7.6      1.735      2.297
REMARK  Name = 
REMARK  5 active torsions:
REMARK  status: ('A' for Active; 'I' for Inactive)
REMARK    1  A    between atoms: C_2  and  C_11
REMARK    2  A    between atoms: N_3  and  C_4
REMARK    3  A    between atoms: N_14  and  C_15
REMARK    4  A    between atoms: C_15  and  N_16
REMARK    5  A    between atoms: C_18  and  N_19
REMARK                            x       y       z     vdW  Elec       q    Type
REMARK                         _______ _______ _______ _____ _____    ______ ____
ROOT
ATOM      1  C   UNL     1       3.296   6.302  18.330  0.00  0.00    +0.000 A 
ATOM      2  C   UNL     1       2.800   4.972  18.407  0.00  0.00    +0.000 A 
ATOM      3  C   UNL     1       3.828   4.165  17.999  0.00  0.00    +0.000 A 
ATOM      4  N   UNL     1       4.871   5.000  17.727  0.00  0.00    +0.000 N 
ATOM      5  N   UNL     1       4.560   6.320  17.851  0.00  0.00    +0.000 NA
ENDROOT
BRANCH   1   7
ATOM      6  O   UNL     1       2.335   8.392  17.937  0.00  0.00    +0.000 OA
ATOM      7  C   UNL     1       2.532   7.491  18.745  0.00  0.00    +0.000 C 
ATOM      8  N   UNL     1       2.118   7.498  20.070  0.00  0.00    +0.000 N 
ATOM      9  H   UNL     1       2.512   6.768  20.651  0.00  0.00    +0.000 HD
BRANCH   8  10
ATOM     10  C   UNL     1       1.342   8.518  20.668  0.00  0.00    +0.000 A 
ATOM     11  C   UNL     1       1.195   8.636  22.056  0.00  0.00    +0.000 A 
ATOM     12  C   UNL     1       0.372   9.614  22.618  0.00  0.00    +0.000 A 
ATOM     13  C   UNL     1      -0.307  10.497  21.790  0.00  0.00    +0.000 A 
ATOM     14 BR   UNL     1      -1.459  11.788  22.550  0.00  0.00    +0.000 Br
ATOM     15  C   UNL     1      -0.144  10.427  20.407  0.00  0.00    +0.000 A 
ATOM     16  C   UNL     1       0.691   9.447  19.847  0.00  0.00    +0.000 A 
ENDBRANCH   8  10
ENDBRANCH   1   7
BRANCH   4  17
ATOM     17  C   UNL     1       6.208   4.579  17.356  0.00  0.00    +0.000 C 
BRANCH  17  18
ATOM     18  N   UNL     1       6.383   4.574  15.913  0.00  0.00    +0.000 N 
ATOM     19  C   UNL     1       5.725   3.784  15.010  0.00  0.00    +0.000 A 
ATOM     20  C   UNL     1       6.287   4.060  13.782  0.00  0.00    +0.000 A 
ATOM     21  C   UNL     1       7.264   5.036  14.041  0.00  0.00    +0.000 A 
ATOM     22  N   UNL     1       7.334   5.351  15.340  0.00  0.00    +0.000 NA
BRANCH  20  23
ATOM     23  N   UNL     1       5.953   3.464  12.528  0.00  0.00    +0.000 N 
ATOM     24  O   UNL     1       4.762   3.483  12.193  0.00  0.00    +0.000 OA
ATOM     25  O   UNL     1       6.883   2.966  11.883  0.00  0.00    +0.000 OA
ENDBRANCH  20  23
ENDBRANCH  17  18
ENDBRANCH   4  17
TORSDOF 5
ENDMDL
MODEL 6
REMARK VINA RESULT:      -7.6      0.768      1.133
REMARK  Name = 
REMARK  5 active torsions:
REMARK  status: ('A' for Active; 'I' for Inactive)
REMARK    1  A    between atoms: C_2  and  C_11
REMARK    2  A    between atoms: N_3  and  C_4
REMARK    3  A    between atoms: N_14  and  C_15
REMARK    4  A    between atoms: C_15  and  N_16
REMARK    5  A    between atoms: C_18  and  N_19
REMARK                            x       y       z     vdW  Elec       q    Type
REMARK                         _______ _______ _______ _____ _____    ______ ____
ROOT
ATOM      1  C   UNL     1       2.168   6.028  20.138  0.00  0.00    +0.000 A 
ATOM      2  C   UNL     1       1.442   4.917  20.649  0.00  0.00    +0.000 A 
ATOM      3  C   UNL     1       2.226   3.819  20.415  0.00  0.00    +0.000 A 
ATOM      4  N   UNL     1       3.358   4.290  19.820  0.00  0.00    +0.000 N 
ATOM      5  N   UNL     1       3.328   5.628  19.571  0.00  0.00    +0.000 NA
ENDROOT
BRANCH   1   7
ATOM      6  O   UNL     1       2.044   8.232  19.379  0.00  0.00    +0.000 OA
ATOM      7  C   UNL     1       1.715   7.426  20.243  0.00  0.00    +0.000 C 
ATOM      8  N   UNL     1       0.957   7.721  21.367  0.00  0.00    +0.000 N 
ATOM      9  H   UNL     1       0.923   6.994  22.071  0.00  0.00    +0.000 HD
BRANCH   8  10
ATOM     10  C   UNL     1       0.388   8.986  21.647  0.00  0.00    +0.000 A 
ATOM     11  C   UNL     1      -0.181   9.295  22.890  0.00  0.00    +0.000 A 
ATOM     12  C   UNL     1      -0.791  10.530  23.121  0.00  0.00    +0.000 A 
ATOM     13  C   UNL     1      -0.828  11.476  22.106  0.00  0.00    +0.000 A 
ATOM     14 BR   UNL     1      -1.698  13.127  22.403  0.00  0.00    +0.000 Br
ATOM     15  C   UNL     1      -0.233  11.207  20.874  0.00  0.00    +0.000 A 
ATOM     16  C   UNL     1       0.388   9.968  20.650  0.00  0.00    +0.000 A 
ENDBRANCH   8  10
ENDBRANCH   1   7
BRANCH   4  17
ATOM     17  C   UNL     1       4.521   3.493  19.481  0.00  0.00    +0.000 C 
BRANCH  17  18
ATOM     18  N   UNL     1       5.076   3.883  18.195  0.00  0.00    +0.000 N 
ATOM     19  C   UNL     1       6.170   4.677  17.982  0.00  0.00    +0.000 A 
ATOM     20  C   UNL     1       6.255   4.848  16.616  0.00  0.00    +0.000 A 
ATOM     21  C   UNL     1       5.182   4.110  16.090  0.00  0.00    +0.000 A 
ATOM     22  N   UNL     1       4.453   3.523  17.047  0.00  0.00    +0.000 NA
BRANCH  20  23
ATOM     23  N   UNL     1       7.221   5.623  15.903  0.00  0.00    +0.000 N 
ATOM     24  O   UNL     1       7.636   6.651  16.452  0.00  0.00    +0.000 OA
ATOM     25  O   UNL     1       7.553   5.208  14.787  0.00  0.00    +0.000 OA
ENDBRANCH  20  23
ENDBRANCH  17  18
ENDBRANCH   4  17
TORSDOF 5
ENDMDL
MODEL 7
REMARK VINA RESULT:      -7.6      2.162      3.226
REMARK  Name = 
REMARK  5 active torsions:
REMARK  status: ('A' for Active; 'I' for Inactive)
REMARK    1  A    between atoms: C_2  and  C_11
REMARK    2  A    between atoms: N_3  and  C_4
REMARK    3  A    between atoms: N_14  and  C_15
REMARK    4  A    between atoms: C_15  and  N_16
REMARK    5  A    between atoms: C_18  and  N_19
REMARK                            x       y       z     vdW  Elec       q    Type
REMARK                         _______ _______ _______ _____ _____    ______ ____
ROOT
ATOM      1  C   UNL     1       3.988   5.435  18.266  0.00  0.00    +0.000 A 
ATOM      2  C   UNL     1       4.357   4.482  19.255  0.00  0.00    +0.000 A 
ATOM      3  C   UNL     1       5.590   4.016  18.882  0.00  0.00    +0.000 A 
ATOM      4  N   UNL     1       5.916   4.694  17.745  0.00  0.00    +0.000 N 
ATOM      5  N   UNL     1       4.929   5.520  17.300  0.00  0.00    +0.000 NA
ENDROOT
BRANCH   1   7
ATOM      6  O   UNL     1       1.712   5.765  17.867  0.00  0.00    +0.000 OA
ATOM      7  C   UNL     1       2.751   6.235  18.316  0.00  0.00    +0.000 C 
ATOM      8  N   UNL     1       2.888   7.507  18.855  0.00  0.00    +0.000 N 
ATOM      9  H   UNL     1       3.842   7.810  19.015  0.00  0.00    +0.000 HD
BRANCH   8  10
ATOM     10  C   UNL     1       1.828   8.426  19.034  0.00  0.00    +0.000 A 
ATOM     11  C   UNL     1       1.329   9.211  17.987  0.00  0.00    +0.000 A 
ATOM     12  C   UNL     1       0.325  10.156  18.204  0.00  0.00    +0.000 A 
ATOM     13  C   UNL     1      -0.202  10.316  19.479  0.00  0.00    +0.000 A 
ATOM     14 BR   UNL     1      -1.527  11.629  19.782  0.00  0.00    +0.000 Br
ATOM     15  C   UNL     1       0.249   9.516  20.528  0.00  0.00    +0.000 A 
ATOM     16  C   UNL     1       1.253   8.562  20.303  0.00  0.00    +0.000 A 
ENDBRANCH   8  10
ENDBRANCH   1   7
BRANCH   4  17
ATOM     17  C   UNL     1       7.183   4.599  17.046  0.00  0.00    +0.000 C 
BRANCH  17  18
ATOM     18  N   UNL     1       6.994   4.570  15.604  0.00  0.00    +0.000 N 
ATOM     19  C   UNL     1       6.225   3.686  14.897  0.00  0.00    +0.000 A 
ATOM     20  C   UNL     1       6.431   3.984  13.566  0.00  0.00    +0.000 A 
ATOM     21  C   UNL     1       7.325   5.068  13.571  0.00  0.00    +0.000 A 
ATOM     22  N   UNL     1       7.679   5.428  14.810  0.00  0.00    +0.000 NA
BRANCH  20  23
ATOM     23  N   UNL     1       5.865   3.318  12.436  0.00  0.00    +0.000 N 
ATOM     24  O   UNL     1       4.669   3.524  12.200  0.00  0.00    +0.000 OA
ATOM     25  O   UNL     1       6.618   2.578  11.793  0.00  0.00    +0.000 OA
ENDBRANCH  20  23
ENDBRANCH  17  18
ENDBRANCH   4  17
TORSDOF 5
ENDMDL
MODEL 8
REMARK VINA RESULT:      -7.6      1.610      2.394
REMARK  Name = 
REMARK  5 active torsions:
REMARK  status: ('A' for Active; 'I' for Inactive)
REMARK    1  A    between atoms: C_2  and  C_11
REMARK    2  A    between atoms: N_3  and  C_4
REMARK    3  A    between atoms: N_14  and  C_15
REMARK    4  A    between atoms: C_15  and  N_16
REMARK    5  A    between atoms: C_18  and  N_19
REMARK                            x       y       z     vdW  Elec       q    Type
REMARK                         _______ _______ _______ _____ _____    ______ ____
ROOT
ATOM      1  C   UNL     1       3.508   5.970  18.652  0.00  0.00    +0.000 A 
ATOM      2  C   UNL     1       3.341   4.665  19.193  0.00  0.00    +0.000 A 
ATOM      3  C   UNL     1       4.455   3.961  18.821  0.00  0.00    +0.000 A 
ATOM      4  N   UNL     1       5.232   4.836  18.121  0.00  0.00    +0.000 N 
ATOM      5  N   UNL     1       4.653   6.054  17.938  0.00  0.00    +0.000 NA
ENDROOT
BRANCH   1   7
ATOM      6  O   UNL     1       2.097   7.672  17.904  0.00  0.00    +0.000 OA
ATOM      7  C   UNL     1       2.563   7.079  18.871  0.00  0.00    +0.000 C 
ATOM      8  N   UNL     1       2.304   7.384  20.199  0.00  0.00    +0.000 N 
ATOM      9  H   UNL     1       2.901   6.923  20.875  0.00  0.00    +0.000 HD
BRANCH   8  10
ATOM     10  C   UNL     1       1.402   8.382  20.637  0.00  0.00    +0.000 A 
ATOM     11  C   UNL     1       1.286   9.623  19.997  0.00  0.00    +0.000 A 
ATOM     12  C   UNL     1       0.433  10.614  20.486  0.00  0.00    +0.000 A 
ATOM     13  C   UNL     1      -0.325  10.366  21.623  0.00  0.00    +0.000 A 
ATOM     14 BR   UNL     1      -1.441  11.726  22.313  0.00  0.00    +0.000 Br
ATOM     15  C   UNL     1      -0.258   9.124  22.252  0.00  0.00    +0.000 A 
ATOM     16  C   UNL     1       0.594   8.128  21.752  0.00  0.00    +0.000 A 
ENDBRANCH   8  10
ENDBRANCH   1   7
BRANCH   4  17
ATOM     17  C   UNL     1       6.562   4.556  17.614  0.00  0.00    +0.000 C 
BRANCH  17  18
ATOM     18  N   UNL     1       6.597   4.601  16.162  0.00  0.00    +0.000 N 
ATOM     19  C   UNL     1       5.894   3.804  15.300  0.00  0.00    +0.000 A 
ATOM     20  C   UNL     1       6.322   4.143  14.034  0.00  0.00    +0.000 A 
ATOM     21  C   UNL     1       7.272   5.159  14.231  0.00  0.00    +0.000 A 
ATOM     22  N   UNL     1       7.451   5.441  15.527  0.00  0.00    +0.000 NA
BRANCH  20  23
ATOM     23  N   UNL     1       5.897   3.566  12.798  0.00  0.00    +0.000 N 
ATOM     24  O   UNL     1       4.682   3.546  12.572  0.00  0.00    +0.000 OA
ATOM     25  O   UNL     1       6.783   3.121  12.058  0.00  0.00    +0.000 OA
ENDBRANCH  20  23
ENDBRANCH  17  18
ENDBRANCH   4  17
TORSDOF 5
ENDMDL
MODEL 9
REMARK VINA RESULT:      -7.6      1.863      2.313
REMARK  Name = 
REMARK  5 active torsions:
REMARK  status: ('A' for Active; 'I' for Inactive)
REMARK    1  A    between atoms: C_2  and  C_11
REMARK    2  A    between atoms: N_3  and  C_4
REMARK    3  A    between atoms: N_14  and  C_15
REMARK    4  A    between atoms: C_15  and  N_16
REMARK    5  A    between atoms: C_18  and  N_19
REMARK                            x       y       z     vdW  Elec       q    Type
REMARK                         _______ _______ _______ _____ _____    ______ ____
ROOT
ATOM      1  C   UNL     1       2.421   6.212  19.640  0.00  0.00    +0.000 A 
ATOM      2  C   UNL     1       1.561   5.080  19.690  0.00  0.00    +0.000 A 
ATOM      3  C   UNL     1       2.371   3.988  19.528  0.00  0.00    +0.000 A 
ATOM      4  N   UNL     1       3.639   4.478  19.417  0.00  0.00    +0.000 N 
ATOM      5  N   UNL     1       3.699   5.838  19.411  0.00  0.00    +0.000 NA
ENDROOT
BRANCH   1   7
ATOM      6  O   UNL     1       1.740   8.001  20.976  0.00  0.00    +0.000 OA
ATOM      7  C   UNL     1       1.967   7.599  19.840  0.00  0.00    +0.000 C 
ATOM      8  N   UNL     1       1.800   8.341  18.679  0.00  0.00    +0.000 N 
ATOM      9  H   UNL     1       1.856   7.815  17.816  0.00  0.00    +0.000 HD
BRANCH   8  10
ATOM     10  C   UNL     1       1.411   9.701  18.639  0.00  0.00    +0.000 A 
ATOM     11  C   UNL     1       2.292  10.724  18.265  0.00  0.00    +0.000 A 
ATOM     12  C   UNL     1       1.901  12.064  18.294  0.00  0.00    +0.000 A 
ATOM     13  C   UNL     1       0.611  12.393  18.691  0.00  0.00    +0.000 A 
ATOM     14 BR   UNL     1       0.099  14.210  18.777  0.00  0.00    +0.000 Br
ATOM     15  C   UNL     1      -0.296  11.390  19.027  0.00  0.00    +0.000 A 
ATOM     16  C   UNL     1       0.099  10.043  18.988  0.00  0.00    +0.000 A 
ENDBRANCH   8  10
ENDBRANCH   1   7
BRANCH   4  17
ATOM     17  C   UNL     1       4.844   3.676  19.330  0.00  0.00    +0.000 C 
BRANCH  17  18
ATOM     18  N   UNL     1       5.713   4.135  18.259  0.00  0.00    +0.000 N 
ATOM     19  C   UNL     1       5.449   4.093  16.916  0.00  0.00    +0.000 A 
ATOM     20  C   UNL     1       6.593   4.542  16.291  0.00  0.00    +0.000 A 
ATOM     21  C   UNL     1       7.485   4.842  17.335  0.00  0.00    +0.000 A 
ATOM     22  N   UNL     1       6.957   4.591  18.540  0.00  0.00    +0.000 NA
BRANCH  20  23
ATOM     23  N   UNL     1       6.819   4.656  14.885  0.00  0.00    +0.000 N 
ATOM     24  O   UNL     1       6.177   3.899  14.147  0.00  0.00    +0.000 OA
ATOM     25  O   UNL     1       7.649   5.497  14.521  0.00  0.00    +0.000 OA
ENDBRANCH  20  23
ENDBRANCH  17  18
ENDBRANCH   4  17
TORSDOF 5
ENDMDL
