MODEL 1
REMARK VINA RESULT:      -8.3      0.000      0.000
REMARK  Name = 
REMARK  7 active torsions:
REMARK  status: ('A' for Active; 'I' for Inactive)
REMARK    1  A    between atoms: C_1  and  N_2
REMARK    2  A    between atoms: C_3  and  C_5
REMARK    3  A    between atoms: C_9  and  N_10
REMARK    4  A    between atoms: C_15  and  N_16
REMARK    5  A    between atoms: C_18  and  O_19
REMARK    6  A    between atoms: O_19  and  C_20
REMARK    7  A    between atoms: C_23  and  C_24
REMARK                            x       y       z     vdW  Elec       q    Type
REMARK                         _______ _______ _______ _____ _____    ______ ____
ROOT
ATOM      1  N   UNL     1       3.886   5.412  18.680  0.00  0.00    +0.000 N 
ATOM      2  C   UNL     1       3.180   6.625  18.768  0.00  0.00    +0.000 A 
ATOM      3  N   UNL     1       3.321   7.515  17.772  0.00  0.00    +0.000 NA
ATOM      4  C   UNL     1       2.634   8.657  17.865  0.00  0.00    +0.000 A 
ATOM      5  C   UNL     1       1.786   8.933  18.903  0.00  0.00    +0.000 A 
ATOM      6  C   UNL     1       1.681   7.970  19.889  0.00  0.00    +0.000 A 
ATOM      7  N   UNL     1       2.389   6.819  19.839  0.00  0.00    +0.000 NA
ATOM      8  H   UNL     1       3.828   4.965  19.589  0.00  0.00    +0.000 HD
ENDROOT
BRANCH   1  13
ATOM      9  C   UNL     1       6.446   4.861  16.028  0.00  0.00    +0.000 A 
ATOM     10  C   UNL     1       7.621   4.815  16.787  0.00  0.00    +0.000 A 
ATOM     11  C   UNL     1       7.563   4.976  18.168  0.00  0.00    +0.000 A 
ATOM     12  C   UNL     1       6.333   5.180  18.791  0.00  0.00    +0.000 A 
ATOM     13  C   UNL     1       5.142   5.247  18.050  0.00  0.00    +0.000 A 
ATOM     14  C   UNL     1       5.207   5.056  16.661  0.00  0.00    +0.000 A 
BRANCH   9  17
ATOM     15  C   UNL     1       5.906   3.342  12.603  0.00  0.00    +0.000 C 
ATOM     16  N   UNL     1       5.859   3.600  14.020  0.00  0.00    +0.000 N 
ATOM     17  C   UNL     1       6.568   4.652  14.560  0.00  0.00    +0.000 C 
ATOM     18  O   UNL     1       7.252   5.417  13.886  0.00  0.00    +0.000 OA
ATOM     19  H   UNL     1       5.181   3.106  14.585  0.00  0.00    +0.000 HD
ENDBRANCH   9  17
ENDBRANCH   1  13
BRANCH   6  20
ATOM     20  N   UNL     1       0.810   8.259  20.980  0.00  0.00    +0.000 N 
ATOM     21  C   UNL     1      -0.394   9.030  20.901  0.00  0.00    +0.000 C 
ATOM     22  C   UNL     1       0.048   9.831  22.130  0.00  0.00    +0.000 C 
ATOM     23  C   UNL     1       1.262   8.896  22.186  0.00  0.00    +0.000 C 
BRANCH  22  24
ATOM     24  O   UNL     1       0.298  11.239  21.891  0.00  0.00    +0.000 OA
BRANCH  24  25
ATOM     25  C   UNL     1      -0.621  12.151  22.344  0.00  0.00    +0.000 A 
ATOM     26  C   UNL     1      -1.748  11.625  22.974  0.00  0.00    +0.000 A 
ATOM     27  C   UNL     1      -2.733  12.474  23.486  0.00  0.00    +0.000 A 
ATOM     28  C   UNL     1      -2.591  13.862  23.379  0.00  0.00    +0.000 A 
ATOM     29  C   UNL     1      -3.638  14.794  23.913  0.00  0.00    +0.000 C 
ATOM     30  C   UNL     1      -1.446  14.382  22.766  0.00  0.00    +0.000 A 
ATOM     31  C   UNL     1      -0.463  13.532  22.250  0.00  0.00    +0.000 A 
ENDBRANCH  24  25
ENDBRANCH  22  24
ENDBRANCH   6  20
TORSDOF 5
ENDMDL
MODEL 2
REMARK VINA RESULT:      -7.8      0.948      1.299
REMARK  Name = 
REMARK  7 active torsions:
REMARK  status: ('A' for Active; 'I' for Inactive)
REMARK    1  A    between atoms: C_1  and  N_2
REMARK    2  A    between atoms: C_3  and  C_5
REMARK    3  A    between atoms: C_9  and  N_10
REMARK    4  A    between atoms: C_15  and  N_16
REMARK    5  A    between atoms: C_18  and  O_19
REMARK    6  A    between atoms: O_19  and  C_20
REMARK    7  A    between atoms: C_23  and  C_24
REMARK                            x       y       z     vdW  Elec       q    Type
REMARK                         _______ _______ _______ _____ _____    ______ ____
ROOT
ATOM      1  N   UNL     1       3.760   5.608  18.921  0.00  0.00    +0.000 N 
ATOM      2  C   UNL     1       3.027   6.808  18.890  0.00  0.00    +0.000 A 
ATOM      3  N   UNL     1       3.132   7.588  17.802  0.00  0.00    +0.000 NA
ATOM      4  C   UNL     1       2.420   8.718  17.782  0.00  0.00    +0.000 A 
ATOM      5  C   UNL     1       1.581   9.086  18.799  0.00  0.00    +0.000 A 
ATOM      6  C   UNL     1       1.512   8.233  19.885  0.00  0.00    +0.000 A 
ATOM      7  N   UNL     1       2.246   7.099  19.947  0.00  0.00    +0.000 NA
ATOM      8  H   UNL     1       3.726   5.261  19.873  0.00  0.00    +0.000 HD
ENDROOT
BRANCH   1  13
ATOM      9  C   UNL     1       6.301   4.979  16.269  0.00  0.00    +0.000 A 
ATOM     10  C   UNL     1       7.474   4.893  17.028  0.00  0.00    +0.000 A 
ATOM     11  C   UNL     1       7.421   5.053  18.409  0.00  0.00    +0.000 A 
ATOM     12  C   UNL     1       6.197   5.296  19.033  0.00  0.00    +0.000 A 
ATOM     13  C   UNL     1       5.009   5.404  18.291  0.00  0.00    +0.000 A 
ATOM     14  C   UNL     1       5.069   5.212  16.902  0.00  0.00    +0.000 A 
BRANCH   9  17
ATOM     15  C   UNL     1       7.736   5.109  12.769  0.00  0.00    +0.000 C 
ATOM     16  N   UNL     1       7.536   5.288  14.185  0.00  0.00    +0.000 N 
ATOM     17  C   UNL     1       6.417   4.768  14.800  0.00  0.00    +0.000 C 
ATOM     18  O   UNL     1       5.557   4.130  14.201  0.00  0.00    +0.000 OA
ATOM     19  H   UNL     1       8.295   5.655  14.744  0.00  0.00    +0.000 HD
ENDBRANCH   9  17
ENDBRANCH   1  13
BRANCH   6  20
ATOM     20  N   UNL     1       0.651   8.619  20.953  0.00  0.00    +0.000 N 
ATOM     21  C   UNL     1      -0.455   9.520  20.844  0.00  0.00    +0.000 C 
ATOM     22  C   UNL     1       0.041  10.267  22.087  0.00  0.00    +0.000 C 
ATOM     23  C   UNL     1       1.140   9.202  22.172  0.00  0.00    +0.000 C 
BRANCH  22  24
ATOM     24  O   UNL     1       0.454  11.638  21.857  0.00  0.00    +0.000 OA
BRANCH  24  25
ATOM     25  C   UNL     1      -0.426  12.645  22.162  0.00  0.00    +0.000 A 
ATOM     26  C   UNL     1      -0.304  13.814  21.411  0.00  0.00    +0.000 A 
ATOM     27  C   UNL     1      -1.166  14.890  21.635  0.00  0.00    +0.000 A 
ATOM     28  C   UNL     1      -2.167  14.801  22.609  0.00  0.00    +0.000 A 
ATOM     29  C   UNL     1      -3.099  15.946  22.874  0.00  0.00    +0.000 C 
ATOM     30  C   UNL     1      -2.297  13.617  23.342  0.00  0.00    +0.000 A 
ATOM     31  C   UNL     1      -1.431  12.541  23.121  0.00  0.00    +0.000 A 
ENDBRANCH  24  25
ENDBRANCH  22  24
ENDBRANCH   6  20
TORSDOF 5
ENDMDL
MODEL 3
REMARK VINA RESULT:      -7.8      2.355      9.676
REMARK  Name = 
REMARK  7 active torsions:
REMARK  status: ('A' for Active; 'I' for Inactive)
REMARK    1  A    between atoms: C_1  and  N_2
REMARK    2  A    between atoms: C_3  and  C_5
REMARK    3  A    between atoms: C_9  and  N_10
REMARK    4  A    between atoms: C_15  and  N_16
REMARK    5  A    between atoms: C_18  and  O_19
REMARK    6  A    between atoms: O_19  and  C_20
REMARK    7  A    between atoms: C_23  and  C_24
REMARK                            x       y       z     vdW  Elec       q    Type
REMARK                         _______ _______ _______ _____ _____    ______ ____
ROOT
ATOM      1  N   UNL     1       1.595   8.312  21.629  0.00  0.00    +0.000 N 
ATOM      2  C   UNL     1       1.855   7.753  20.366  0.00  0.00    +0.000 A 
ATOM      3  N   UNL     1       1.821   8.561  19.294  0.00  0.00    +0.000 NA
ATOM      4  C   UNL     1       2.082   8.017  18.102  0.00  0.00    +0.000 A 
ATOM      5  C   UNL     1       2.406   6.698  17.942  0.00  0.00    +0.000 A 
ATOM      6  C   UNL     1       2.434   5.924  19.087  0.00  0.00    +0.000 A 
ATOM      7  N   UNL     1       2.141   6.439  20.303  0.00  0.00    +0.000 NA
ATOM      8  H   UNL     1       1.461   7.543  22.276  0.00  0.00    +0.000 HD
ENDROOT
BRANCH   1  13
ATOM      9  C   UNL     1       0.053  11.696  21.382  0.00  0.00    +0.000 A 
ATOM     10  C   UNL     1      -0.903  11.637  22.403  0.00  0.00    +0.000 A 
ATOM     11  C   UNL     1      -1.039  10.478  23.160  0.00  0.00    +0.000 A 
ATOM     12  C   UNL     1      -0.221   9.379  22.900  0.00  0.00    +0.000 A 
ATOM     13  C   UNL     1       0.733   9.408  21.870  0.00  0.00    +0.000 A 
ATOM     14  C   UNL     1       0.883  10.591  21.131  0.00  0.00    +0.000 A 
BRANCH   9  17
ATOM     15  C   UNL     1       1.454  14.309  19.030  0.00  0.00    +0.000 C 
ATOM     16  N   UNL     1       1.275  13.112  19.812  0.00  0.00    +0.000 N 
ATOM     17  C   UNL     1       0.172  12.973  20.628  0.00  0.00    +0.000 C 
ATOM     18  O   UNL     1      -0.703  13.828  20.725  0.00  0.00    +0.000 OA
ATOM     19  H   UNL     1       1.875  12.318  19.635  0.00  0.00    +0.000 HD
ENDBRANCH   9  17
ENDBRANCH   1  13
BRANCH   6  20
ATOM     20  N   UNL     1       2.758   4.545  18.925  0.00  0.00    +0.000 N 
ATOM     21  C   UNL     1       4.043   3.961  19.160  0.00  0.00    +0.000 C 
ATOM     22  C   UNL     1       3.952   3.237  17.812  0.00  0.00    +0.000 C 
ATOM     23  C   UNL     1       2.547   3.839  17.691  0.00  0.00    +0.000 C 
BRANCH  22  24
ATOM     24  O   UNL     1       4.939   3.638  16.829  0.00  0.00    +0.000 OA
BRANCH  24  25
ATOM     25  C   UNL     1       5.746   4.710  17.114  0.00  0.00    +0.000 A 
ATOM     26  C   UNL     1       5.375   5.926  16.540  0.00  0.00    +0.000 A 
ATOM     27  C   UNL     1       6.123   7.080  16.785  0.00  0.00    +0.000 A 
ATOM     28  C   UNL     1       7.247   7.028  17.617  0.00  0.00    +0.000 A 
ATOM     29  C   UNL     1       8.071   8.252  17.889  0.00  0.00    +0.000 C 
ATOM     30  C   UNL     1       7.599   5.810  18.207  0.00  0.00    +0.000 A 
ATOM     31  C   UNL     1       6.852   4.653  17.959  0.00  0.00    +0.000 A 
ENDBRANCH  24  25
ENDBRANCH  22  24
ENDBRANCH   6  20
TORSDOF 5
ENDMDL
MODEL 4
REMARK VINA RESULT:      -7.8      2.875     10.561
REMARK  Name = 
REMARK  7 active torsions:
REMARK  status: ('A' for Active; 'I' for Inactive)
REMARK    1  A    between atoms: C_1  and  N_2
REMARK    2  A    between atoms: C_3  and  C_5
REMARK    3  A    between atoms: C_9  and  N_10
REMARK    4  A    between atoms: C_15  and  N_16
REMARK    5  A    between atoms: C_18  and  O_19
REMARK    6  A    between atoms: O_19  and  C_20
REMARK    7  A    between atoms: C_23  and  C_24
REMARK                            x       y       z     vdW  Elec       q    Type
REMARK                         _______ _______ _______ _____ _____    ______ ____
ROOT
ATOM      1  N   UNL     1       2.183   8.324  17.839  0.00  0.00    +0.000 N 
ATOM      2  C   UNL     1       2.794   7.208  18.438  0.00  0.00    +0.000 A 
ATOM      3  N   UNL     1       2.077   6.485  19.314  0.00  0.00    +0.000 NA
ATOM      4  C   UNL     1       2.667   5.421  19.866  0.00  0.00    +0.000 A 
ATOM      5  C   UNL     1       3.941   5.032  19.552  0.00  0.00    +0.000 A 
ATOM      6  C   UNL     1       4.620   5.814  18.636  0.00  0.00    +0.000 A 
ATOM      7  N   UNL     1       4.060   6.915  18.086  0.00  0.00    +0.000 NA
ATOM      8  H   UNL     1       2.915   8.855  17.380  0.00  0.00    +0.000 HD
ENDROOT
BRANCH   1  13
ATOM      9  C   UNL     1      -0.903  10.363  18.296  0.00  0.00    +0.000 A 
ATOM     10  C   UNL     1      -0.733  10.827  19.606  0.00  0.00    +0.000 A 
ATOM     11  C   UNL     1       0.394  10.456  20.333  0.00  0.00    +0.000 A 
ATOM     12  C   UNL     1       1.352   9.625  19.754  0.00  0.00    +0.000 A 
ATOM     13  C   UNL     1       1.195   9.133  18.447  0.00  0.00    +0.000 A 
ATOM     14  C   UNL     1       0.070   9.535  17.712  0.00  0.00    +0.000 A 
BRANCH   9  17
ATOM     15  C   UNL     1      -3.303  10.930  15.425  0.00  0.00    +0.000 C 
ATOM     16  N   UNL     1      -2.157  10.543  16.209  0.00  0.00    +0.000 N 
ATOM     17  C   UNL     1      -2.112  10.818  17.558  0.00  0.00    +0.000 C 
ATOM     18  O   UNL     1      -3.022  11.381  18.160  0.00  0.00    +0.000 OA
ATOM     19  H   UNL     1      -1.466   9.931  15.795  0.00  0.00    +0.000 HD
ENDBRANCH   9  17
ENDBRANCH   1  13
BRANCH   6  20
ATOM     20  N   UNL     1       5.952   5.421  18.316  0.00  0.00    +0.000 N 
ATOM     21  C   UNL     1       7.004   6.304  17.914  0.00  0.00    +0.000 C 
ATOM     22  C   UNL     1       7.339   5.363  16.751  0.00  0.00    +0.000 C 
ATOM     23  C   UNL     1       6.250   4.439  17.309  0.00  0.00    +0.000 C 
BRANCH  22  24
ATOM     24  O   UNL     1       7.131   5.920  15.429  0.00  0.00    +0.000 OA
BRANCH  24  25
ATOM     25  C   UNL     1       6.800   5.069  14.406  0.00  0.00    +0.000 A 
ATOM     26  C   UNL     1       5.558   4.442  14.508  0.00  0.00    +0.000 A 
ATOM     27  C   UNL     1       5.122   3.570  13.507  0.00  0.00    +0.000 A 
ATOM     28  C   UNL     1       5.924   3.325  12.387  0.00  0.00    +0.000 A 
ATOM     29  C   UNL     1       5.482   2.387  11.303  0.00  0.00    +0.000 C 
ATOM     30  C   UNL     1       7.158   3.976  12.281  0.00  0.00    +0.000 A 
ATOM     31  C   UNL     1       7.596   4.846  13.285  0.00  0.00    +0.000 A 
ENDBRANCH  24  25
ENDBRANCH  22  24
ENDBRANCH   6  20
TORSDOF 5
ENDMDL
MODEL 5
REMARK VINA RESULT:      -7.8      1.230      1.435
REMARK  Name = 
REMARK  7 active torsions:
REMARK  status: ('A' for Active; 'I' for Inactive)
REMARK    1  A    between atoms: C_1  and  N_2
REMARK    2  A    between atoms: C_3  and  C_5
REMARK    3  A    between atoms: C_9  and  N_10
REMARK    4  A    between atoms: C_15  and  N_16
REMARK    5  A    between atoms: C_18  and  O_19
REMARK    6  A    between atoms: O_19  and  C_20
REMARK    7  A    between atoms: C_23  and  C_24
REMARK                            x       y       z     vdW  Elec       q    Type
REMARK                         _______ _______ _______ _____ _____    ______ ____
ROOT
ATOM      1  N   UNL     1       3.769   5.683  18.492  0.00  0.00    +0.000 N 
ATOM      2  C   UNL     1       3.005   6.840  18.726  0.00  0.00    +0.000 A 
ATOM      3  N   UNL     1       2.917   7.752  17.744  0.00  0.00    +0.000 NA
ATOM      4  C   UNL     1       2.177   8.840  17.978  0.00  0.00    +0.000 A 
ATOM      5  C   UNL     1       1.495   9.038  19.147  0.00  0.00    +0.000 A 
ATOM      6  C   UNL     1       1.620   8.056  20.112  0.00  0.00    +0.000 A 
ATOM      7  N   UNL     1       2.389   6.960  19.916  0.00  0.00    +0.000 NA
ATOM      8  H   UNL     1       3.893   5.220  19.385  0.00  0.00    +0.000 HD
ENDROOT
BRANCH   1  13
ATOM      9  C   UNL     1       5.942   4.983  15.546  0.00  0.00    +0.000 A 
ATOM     10  C   UNL     1       7.193   5.388  16.027  0.00  0.00    +0.000 A 
ATOM     11  C   UNL     1       7.311   5.899  17.315  0.00  0.00    +0.000 A 
ATOM     12  C   UNL     1       6.181   6.004  18.126  0.00  0.00    +0.000 A 
ATOM     13  C   UNL     1       4.912   5.620  17.661  0.00  0.00    +0.000 A 
ATOM     14  C   UNL     1       4.809   5.079  16.370  0.00  0.00    +0.000 A 
BRANCH   9  17
ATOM     15  C   UNL     1       7.079   3.935  12.092  0.00  0.00    +0.000 C 
ATOM     16  N   UNL     1       7.043   4.481  13.425  0.00  0.00    +0.000 N 
ATOM     17  C   UNL     1       5.886   4.417  14.172  0.00  0.00    +0.000 C 
ATOM     18  O   UNL     1       4.852   3.895  13.765  0.00  0.00    +0.000 OA
ATOM     19  H   UNL     1       7.910   4.765  13.861  0.00  0.00    +0.000 HD
ENDBRANCH   9  17
ENDBRANCH   1  13
BRANCH   6  20
ATOM     20  N   UNL     1       0.923   8.264  21.337  0.00  0.00    +0.000 N 
ATOM     21  C   UNL     1      -0.403   8.788  21.460  0.00  0.00    +0.000 C 
ATOM     22  C   UNL     1       0.088   9.755  22.544  0.00  0.00    +0.000 C 
ATOM     23  C   UNL     1       1.452   9.070  22.404  0.00  0.00    +0.000 C 
BRANCH  22  24
ATOM     24  O   UNL     1       0.005  11.160  22.199  0.00  0.00    +0.000 OA
BRANCH  24  25
ATOM     25  C   UNL     1      -1.232  11.751  22.159  0.00  0.00    +0.000 A 
ATOM     26  C   UNL     1      -1.632  12.255  20.921  0.00  0.00    +0.000 A 
ATOM     27  C   UNL     1      -2.883  12.859  20.775  0.00  0.00    +0.000 A 
ATOM     28  C   UNL     1      -3.751  12.956  21.868  0.00  0.00    +0.000 A 
ATOM     29  C   UNL     1      -5.096  13.608  21.739  0.00  0.00    +0.000 C 
ATOM     30  C   UNL     1      -3.352  12.428  23.101  0.00  0.00    +0.000 A 
ATOM     31  C   UNL     1      -2.098  11.827  23.248  0.00  0.00    +0.000 A 
ENDBRANCH  24  25
ENDBRANCH  22  24
ENDBRANCH   6  20
TORSDOF 5
ENDMDL
MODEL 6
REMARK VINA RESULT:      -7.7      5.825      9.027
REMARK  Name = 
REMARK  7 active torsions:
REMARK  status: ('A' for Active; 'I' for Inactive)
REMARK    1  A    between atoms: C_1  and  N_2
REMARK    2  A    between atoms: C_3  and  C_5
REMARK    3  A    between atoms: C_9  and  N_10
REMARK    4  A    between atoms: C_15  and  N_16
REMARK    5  A    between atoms: C_18  and  O_19
REMARK    6  A    between atoms: O_19  and  C_20
REMARK    7  A    between atoms: C_23  and  C_24
REMARK                            x       y       z     vdW  Elec       q    Type
REMARK                         _______ _______ _______ _____ _____    ______ ____
ROOT
ATOM      1  N   UNL     1       4.076  14.416  17.665  0.00  0.00    +0.000 N 
ATOM      2  C   UNL     1       3.257  13.721  18.572  0.00  0.00    +0.000 A 
ATOM      3  N   UNL     1       3.114  14.219  19.811  0.00  0.00    +0.000 NA
ATOM      4  C   UNL     1       2.324  13.553  20.657  0.00  0.00    +0.000 A 
ATOM      5  C   UNL     1       1.643  12.420  20.302  0.00  0.00    +0.000 A 
ATOM      6  C   UNL     1       1.826  11.966  19.009  0.00  0.00    +0.000 A 
ATOM      7  N   UNL     1       2.647  12.601  18.141  0.00  0.00    +0.000 NA
ATOM      8  H   UNL     1       4.231  13.805  16.871  0.00  0.00    +0.000 HD
ENDROOT
BRANCH   1  13
ATOM      9  C   UNL     1       7.628  15.355  18.292  0.00  0.00    +0.000 A 
ATOM     10  C   UNL     1       7.481  16.645  18.815  0.00  0.00    +0.000 A 
ATOM     11  C   UNL     1       6.213  17.202  18.948  0.00  0.00    +0.000 A 
ATOM     12  C   UNL     1       5.091  16.470  18.562  0.00  0.00    +0.000 A 
ATOM     13  C   UNL     1       5.212  15.180  18.019  0.00  0.00    +0.000 A 
ATOM     14  C   UNL     1       6.494  14.617  17.915  0.00  0.00    +0.000 A 
BRANCH   9  17
ATOM     15  C   UNL     1      10.476  13.067  17.303  0.00  0.00    +0.000 C 
ATOM     16  N   UNL     1       9.169  13.654  17.459  0.00  0.00    +0.000 N 
ATOM     17  C   UNL     1       9.006  14.803  18.202  0.00  0.00    +0.000 C 
ATOM     18  O   UNL     1       9.937  15.386  18.750  0.00  0.00    +0.000 OA
ATOM     19  H   UNL     1       8.407  13.309  16.890  0.00  0.00    +0.000 HD
ENDBRANCH   9  17
ENDBRANCH   1  13
BRANCH   6  20
ATOM     20  N   UNL     1       1.131  10.778  18.639  0.00  0.00    +0.000 N 
ATOM     21  C   UNL     1       0.559   9.833  19.549  0.00  0.00    +0.000 C 
ATOM     22  C   UNL     1       1.217   8.692  18.765  0.00  0.00    +0.000 C 
ATOM     23  C   UNL     1       1.712   9.770  17.794  0.00  0.00    +0.000 C 
BRANCH  22  24
ATOM     24  O   UNL     1       2.218   7.940  19.496  0.00  0.00    +0.000 OA
BRANCH  24  25
ATOM     25  C   UNL     1       2.120   6.572  19.518  0.00  0.00    +0.000 A 
ATOM     26  C   UNL     1       2.385   5.919  18.314  0.00  0.00    +0.000 A 
ATOM     27  C   UNL     1       2.328   4.526  18.238  0.00  0.00    +0.000 A 
ATOM     28  C   UNL     1       2.014   3.770  19.373  0.00  0.00    +0.000 A 
ATOM     29  C   UNL     1       1.940   2.273  19.316  0.00  0.00    +0.000 C 
ATOM     30  C   UNL     1       1.773   4.431  20.582  0.00  0.00    +0.000 A 
ATOM     31  C   UNL     1       1.826   5.827  20.657  0.00  0.00    +0.000 A 
ENDBRANCH  24  25
ENDBRANCH  22  24
ENDBRANCH   6  20
TORSDOF 5
ENDMDL
MODEL 7
REMARK VINA RESULT:      -7.7      1.745      2.359
REMARK  Name = 
REMARK  7 active torsions:
REMARK  status: ('A' for Active; 'I' for Inactive)
REMARK    1  A    between atoms: C_1  and  N_2
REMARK    2  A    between atoms: C_3  and  C_5
REMARK    3  A    between atoms: C_9  and  N_10
REMARK    4  A    between atoms: C_15  and  N_16
REMARK    5  A    between atoms: C_18  and  O_19
REMARK    6  A    between atoms: O_19  and  C_20
REMARK    7  A    between atoms: C_23  and  C_24
REMARK                            x       y       z     vdW  Elec       q    Type
REMARK                         _______ _______ _______ _____ _____    ______ ____
ROOT
ATOM      1  N   UNL     1       3.783   7.764  17.358  0.00  0.00    +0.000 N 
ATOM      2  C   UNL     1       2.811   8.068  18.327  0.00  0.00    +0.000 A 
ATOM      3  N   UNL     1       2.693   7.252  19.387  0.00  0.00    +0.000 NA
ATOM      4  C   UNL     1       1.773   7.562  20.305  0.00  0.00    +0.000 A 
ATOM      5  C   UNL     1       0.983   8.676  20.219  0.00  0.00    +0.000 A 
ATOM      6  C   UNL     1       1.162   9.478  19.108  0.00  0.00    +0.000 A 
ATOM      7  N   UNL     1       2.062   9.172  18.146  0.00  0.00    +0.000 NA
ATOM      8  H   UNL     1       3.595   8.349  16.551  0.00  0.00    +0.000 HD
ENDROOT
BRANCH   1  13
ATOM      9  C   UNL     1       5.498   4.975  15.578  0.00  0.00    +0.000 A 
ATOM     10  C   UNL     1       5.000   3.863  16.268  0.00  0.00    +0.000 A 
ATOM     11  C   UNL     1       4.110   4.041  17.322  0.00  0.00    +0.000 A 
ATOM     12  C   UNL     1       3.714   5.327  17.687  0.00  0.00    +0.000 A 
ATOM     13  C   UNL     1       4.213   6.459  17.021  0.00  0.00    +0.000 A 
ATOM     14  C   UNL     1       5.088   6.268  15.941  0.00  0.00    +0.000 A 
BRANCH   9  17
ATOM     15  C   UNL     1       6.780   3.625  12.283  0.00  0.00    +0.000 C 
ATOM     16  N   UNL     1       5.956   3.905  13.431  0.00  0.00    +0.000 N 
ATOM     17  C   UNL     1       6.422   4.719  14.441  0.00  0.00    +0.000 C 
ATOM     18  O   UNL     1       7.529   5.249  14.418  0.00  0.00    +0.000 OA
ATOM     19  H   UNL     1       4.982   3.632  13.413  0.00  0.00    +0.000 HD
ENDBRANCH   9  17
ENDBRANCH   1  13
BRANCH   6  20
ATOM     20  N   UNL     1       0.331  10.632  19.007  0.00  0.00    +0.000 N 
ATOM     21  C   UNL     1       0.510  11.850  19.737  0.00  0.00    +0.000 C 
ATOM     22  C   UNL     1      -0.979  11.840  20.102  0.00  0.00    +0.000 C 
ATOM     23  C   UNL     1      -1.089  10.588  19.225  0.00  0.00    +0.000 C 
BRANCH  22  24
ATOM     24  O   UNL     1      -1.265  11.695  21.515  0.00  0.00    +0.000 OA
BRANCH  24  25
ATOM     25  C   UNL     1      -2.442  12.206  21.999  0.00  0.00    +0.000 A 
ATOM     26  C   UNL     1      -2.650  12.074  23.372  0.00  0.00    +0.000 A 
ATOM     27  C   UNL     1      -3.811  12.579  23.963  0.00  0.00    +0.000 A 
ATOM     28  C   UNL     1      -4.773  13.231  23.183  0.00  0.00    +0.000 A 
ATOM     29  C   UNL     1      -6.031  13.775  23.792  0.00  0.00    +0.000 C 
ATOM     30  C   UNL     1      -4.545  13.381  21.811  0.00  0.00    +0.000 A 
ATOM     31  C   UNL     1      -3.385  12.872  21.218  0.00  0.00    +0.000 A 
ENDBRANCH  24  25
ENDBRANCH  22  24
ENDBRANCH   6  20
TORSDOF 5
ENDMDL
MODEL 8
REMARK VINA RESULT:      -7.7      2.391      9.583
REMARK  Name = 
REMARK  7 active torsions:
REMARK  status: ('A' for Active; 'I' for Inactive)
REMARK    1  A    between atoms: C_1  and  N_2
REMARK    2  A    between atoms: C_3  and  C_5
REMARK    3  A    between atoms: C_9  and  N_10
REMARK    4  A    between atoms: C_15  and  N_16
REMARK    5  A    between atoms: C_18  and  O_19
REMARK    6  A    between atoms: O_19  and  C_20
REMARK    7  A    between atoms: C_23  and  C_24
REMARK                            x       y       z     vdW  Elec       q    Type
REMARK                         _______ _______ _______ _____ _____    ______ ____
ROOT
ATOM      1  N   UNL     1       1.323   7.991  21.564  0.00  0.00    +0.000 N 
ATOM      2  C   UNL     1       1.775   7.498  20.327  0.00  0.00    +0.000 A 
ATOM      3  N   UNL     1       1.909   8.364  19.309  0.00  0.00    +0.000 NA
ATOM      4  C   UNL     1       2.350   7.883  18.144  0.00  0.00    +0.000 A 
ATOM      5  C   UNL     1       2.692   6.570  17.963  0.00  0.00    +0.000 A 
ATOM      6  C   UNL     1       2.540   5.735  19.054  0.00  0.00    +0.000 A 
ATOM      7  N   UNL     1       2.064   6.187  20.236  0.00  0.00    +0.000 NA
ATOM      8  H   UNL     1       1.088   7.189  22.138  0.00  0.00    +0.000 HD
ENDROOT
BRANCH   1  13
ATOM      9  C   UNL     1      -0.900  10.871  20.757  0.00  0.00    +0.000 A 
ATOM     10  C   UNL     1      -1.244  11.318  22.038  0.00  0.00    +0.000 A 
ATOM     11  C   UNL     1      -0.750  10.661  23.160  0.00  0.00    +0.000 A 
ATOM     12  C   UNL     1       0.091   9.559  23.004  0.00  0.00    +0.000 A 
ATOM     13  C   UNL     1       0.437   9.081  21.729  0.00  0.00    +0.000 A 
ATOM     14  C   UNL     1      -0.044   9.768  20.604  0.00  0.00    +0.000 A 
BRANCH   9  17
ATOM     15  C   UNL     1      -2.554  11.561  17.424  0.00  0.00    +0.000 C 
ATOM     16  N   UNL     1      -1.992  10.899  18.573  0.00  0.00    +0.000 N 
ATOM     17  C   UNL     1      -1.435  11.634  19.597  0.00  0.00    +0.000 C 
ATOM     18  O   UNL     1      -1.396  12.861  19.598  0.00  0.00    +0.000 OA
ATOM     19  H   UNL     1      -2.155   9.907  18.694  0.00  0.00    +0.000 HD
ENDBRANCH   9  17
ENDBRANCH   1  13
BRANCH   6  20
ATOM     20  N   UNL     1       2.882   4.364  18.867  0.00  0.00    +0.000 N 
ATOM     21  C   UNL     1       4.169   3.788  19.112  0.00  0.00    +0.000 C 
ATOM     22  C   UNL     1       4.109   3.092  17.747  0.00  0.00    +0.000 C 
ATOM     23  C   UNL     1       2.700   3.682  17.615  0.00  0.00    +0.000 C 
BRANCH  22  24
ATOM     24  O   UNL     1       5.109   3.525  16.791  0.00  0.00    +0.000 OA
BRANCH  24  25
ATOM     25  C   UNL     1       5.770   4.704  17.026  0.00  0.00    +0.000 A 
ATOM     26  C   UNL     1       6.865   4.631  17.887  0.00  0.00    +0.000 A 
ATOM     27  C   UNL     1       7.614   5.775  18.175  0.00  0.00    +0.000 A 
ATOM     28  C   UNL     1       7.278   7.003  17.593  0.00  0.00    +0.000 A 
ATOM     29  C   UNL     1       8.062   8.246  17.893  0.00  0.00    +0.000 C 
ATOM     30  C   UNL     1       6.193   7.062  16.713  0.00  0.00    +0.000 A 
ATOM     31  C   UNL     1       5.440   5.918  16.427  0.00  0.00    +0.000 A 
ENDBRANCH  24  25
ENDBRANCH  22  24
ENDBRANCH   6  20
TORSDOF 5
ENDMDL
MODEL 9
REMARK VINA RESULT:      -7.7      3.434      9.511
REMARK  Name = 
REMARK  7 active torsions:
REMARK  status: ('A' for Active; 'I' for Inactive)
REMARK    1  A    between atoms: C_1  and  N_2
REMARK    2  A    between atoms: C_3  and  C_5
REMARK    3  A    between atoms: C_9  and  N_10
REMARK    4  A    between atoms: C_15  and  N_16
REMARK    5  A    between atoms: C_18  and  O_19
REMARK    6  A    between atoms: O_19  and  C_20
REMARK    7  A    between atoms: C_23  and  C_24
REMARK                            x       y       z     vdW  Elec       q    Type
REMARK                         _______ _______ _______ _____ _____    ______ ____
ROOT
ATOM      1  N   UNL     1       0.778   9.358  20.904  0.00  0.00    +0.000 N 
ATOM      2  C   UNL     1       1.350   8.249  20.255  0.00  0.00    +0.000 A 
ATOM      3  N   UNL     1       2.044   8.462  19.126  0.00  0.00    +0.000 NA
ATOM      4  C   UNL     1       2.591   7.400  18.527  0.00  0.00    +0.000 A 
ATOM      5  C   UNL     1       2.497   6.132  19.033  0.00  0.00    +0.000 A 
ATOM      6  C   UNL     1       1.778   5.984  20.204  0.00  0.00    +0.000 A 
ATOM      7  N   UNL     1       1.185   7.035  20.814  0.00  0.00    +0.000 NA
ATOM      8  H   UNL     1       0.136   8.998  21.602  0.00  0.00    +0.000 HD
ENDROOT
BRANCH   1  13
ATOM      9  C   UNL     1      -1.251  11.600  18.727  0.00  0.00    +0.000 A 
ATOM     10  C   UNL     1      -0.572  12.815  18.877  0.00  0.00    +0.000 A 
ATOM     11  C   UNL     1       0.545  12.890  19.704  0.00  0.00    +0.000 A 
ATOM     12  C   UNL     1       0.986  11.752  20.378  0.00  0.00    +0.000 A 
ATOM     13  C   UNL     1       0.311  10.525  20.257  0.00  0.00    +0.000 A 
ATOM     14  C   UNL     1      -0.797  10.453  19.399  0.00  0.00    +0.000 A 
BRANCH   9  17
ATOM     15  C   UNL     1      -3.250  11.167  15.542  0.00  0.00    +0.000 C 
ATOM     16  N   UNL     1      -2.170  11.235  16.494  0.00  0.00    +0.000 N 
ATOM     17  C   UNL     1      -2.419  11.577  17.806  0.00  0.00    +0.000 C 
ATOM     18  O   UNL     1      -3.543  11.824  18.233  0.00  0.00    +0.000 OA
ATOM     19  H   UNL     1      -1.262  10.877  16.230  0.00  0.00    +0.000 HD
ENDBRANCH   9  17
ENDBRANCH   1  13
BRANCH   6  20
ATOM     20  N   UNL     1       1.665   4.663  20.728  0.00  0.00    +0.000 N 
ATOM     21  C   UNL     1       2.563   4.061  21.665  0.00  0.00    +0.000 C 
ATOM     22  C   UNL     1       2.630   2.808  20.785  0.00  0.00    +0.000 C 
ATOM     23  C   UNL     1       1.598   3.498  19.887  0.00  0.00    +0.000 C 
BRANCH  22  24
ATOM     24  O   UNL     1       3.933   2.526  20.214  0.00  0.00    +0.000 OA
BRANCH  24  25
ATOM     25  C   UNL     1       4.291   3.168  19.056  0.00  0.00    +0.000 A 
ATOM     26  C   UNL     1       5.280   4.144  19.178  0.00  0.00    +0.000 A 
ATOM     27  C   UNL     1       5.727   4.842  18.053  0.00  0.00    +0.000 A 
ATOM     28  C   UNL     1       5.191   4.561  16.791  0.00  0.00    +0.000 A 
ATOM     29  C   UNL     1       5.647   5.302  15.569  0.00  0.00    +0.000 C 
ATOM     30  C   UNL     1       4.216   3.564  16.674  0.00  0.00    +0.000 A 
ATOM     31  C   UNL     1       3.766   2.869  17.801  0.00  0.00    +0.000 A 
ENDBRANCH  24  25
ENDBRANCH  22  24
ENDBRANCH   6  20
TORSDOF 5
ENDMDL
