MODEL 1
REMARK VINA RESULT:      -7.6      0.000      0.000
REMARK  Name = 
REMARK  3 active torsions:
REMARK  status: ('A' for Active; 'I' for Inactive)
REMARK    1  A    between atoms: C_12  and  C_13
REMARK    2  A    between atoms: C_13  and  N_14
REMARK    3  A    between atoms: C_18  and  C_19
REMARK                            x       y       z     vdW  Elec       q    Type
REMARK                         _______ _______ _______ _____ _____    ______ ____
ROOT
ATOM      1  N   UNL     1       1.349   9.884  19.932  0.00  0.00    +0.000 N 
ATOM      2  C   UNL     1       1.510   8.573  20.367  0.00  0.00    +0.000 C 
ATOM      3  O   UNL     1       1.257   8.150  21.482  0.00  0.00    +0.000 OA
ATOM      4  C   UNL     1       2.100   7.742  19.278  0.00  0.00    +0.000 C 
ATOM      5  C   UNL     1       2.605   6.512  19.462  0.00  0.00    +0.000 C 
ATOM      6  S   UNL     1       2.128   8.647  17.815  0.00  0.00    +0.000 S 
ATOM      7  C   UNL     1       1.804  10.150  18.657  0.00  0.00    +0.000 C 
ATOM      8  S   UNL     1       2.089  11.635  17.953  0.00  0.00    +0.000 S 
ENDROOT
BRANCH   5   9
ATOM      9  C   UNL     1       3.223   5.725  18.380  0.00  0.00    +0.000 A 
ATOM     10  C   UNL     1       4.336   6.274  17.727  0.00  0.00    +0.000 A 
ATOM     11  C   UNL     1       5.039   5.536  16.771  0.00  0.00    +0.000 A 
ATOM     12  C   UNL     1       4.642   4.238  16.460  0.00  0.00    +0.000 A 
ATOM     13  C   UNL     1       3.525   3.683  17.086  0.00  0.00    +0.000 A 
ATOM     14  C   UNL     1       2.812   4.425  18.036  0.00  0.00    +0.000 A 
ATOM     15 BR   UNL     1       1.289   3.608  18.826  0.00  0.00    +0.000 Br
ENDBRANCH   5   9
BRANCH   1  16
ATOM     16  C   UNL     1       0.819  10.899  20.853  0.00  0.00    +0.000 C 
BRANCH  16  28
ATOM     17  O   UNL     1      -1.672  10.837  18.869  0.00  0.00    +0.000 OA
ATOM     18  C   UNL     1      -1.366  11.470  19.872  0.00  0.00    +0.000 C 
ATOM     19  O   UNL     1      -1.505  12.849  19.920  0.00  0.00    +0.000 OA
ATOM     20  C   UNL     1      -1.456  13.545  21.138  0.00  0.00    +0.000 A 
ATOM     21  C   UNL     1      -1.576  14.931  21.076  0.00  0.00    +0.000 A 
ATOM     22  C   UNL     1      -1.611  15.667  22.262  0.00  0.00    +0.000 A 
ATOM     23  C   UNL     1      -1.547  15.015  23.496  0.00  0.00    +0.000 A 
ATOM     24  C   UNL     1      -1.411  13.627  23.549  0.00  0.00    +0.000 A 
ATOM     25  C   UNL     1      -1.344  12.900  22.361  0.00  0.00    +0.000 A 
ATOM     26  C   UNL     1      -1.085  11.459  22.368  0.00  0.00    +0.000 C 
ATOM     27  O   UNL     1      -1.086  10.826  23.420  0.00  0.00    +0.000 OA
ATOM     28  C   UNL     1      -0.702  10.837  21.059  0.00  0.00    +0.000 C 
ENDBRANCH  16  28
ENDBRANCH   1  16
TORSDOF 3
ENDMDL
MODEL 2
REMARK VINA RESULT:      -7.6      2.496      3.390
REMARK  Name = 
REMARK  3 active torsions:
REMARK  status: ('A' for Active; 'I' for Inactive)
REMARK    1  A    between atoms: C_12  and  C_13
REMARK    2  A    between atoms: C_13  and  N_14
REMARK    3  A    between atoms: C_18  and  C_19
REMARK                            x       y       z     vdW  Elec       q    Type
REMARK                         _______ _______ _______ _____ _____    ______ ____
ROOT
ATOM      1  N   UNL     1       0.912   9.974  19.691  0.00  0.00    +0.000 N 
ATOM      2  C   UNL     1       1.629   9.613  18.556  0.00  0.00    +0.000 C 
ATOM      3  O   UNL     1       1.810  10.308  17.570  0.00  0.00    +0.000 OA
ATOM      4  C   UNL     1       2.114   8.209  18.683  0.00  0.00    +0.000 C 
ATOM      5  C   UNL     1       2.613   7.492  17.664  0.00  0.00    +0.000 C 
ATOM      6  S   UNL     1       1.825   7.643  20.282  0.00  0.00    +0.000 S 
ATOM      7  C   UNL     1       0.751   8.982  20.637  0.00  0.00    +0.000 C 
ATOM      8  S   UNL     1      -0.312   8.944  21.921  0.00  0.00    +0.000 S 
ENDROOT
BRANCH   5   9
ATOM      9  C   UNL     1       3.047   6.090  17.801  0.00  0.00    +0.000 A 
ATOM     10  C   UNL     1       2.058   5.119  18.016  0.00  0.00    +0.000 A 
ATOM     11  C   UNL     1       2.385   3.761  18.043  0.00  0.00    +0.000 A 
ATOM     12  C   UNL     1       3.704   3.356  17.849  0.00  0.00    +0.000 A 
ATOM     13  C   UNL     1       4.703   4.310  17.655  0.00  0.00    +0.000 A 
ATOM     14  C   UNL     1       4.379   5.672  17.639  0.00  0.00    +0.000 A 
ATOM     15 BR   UNL     1       5.800   6.910  17.391  0.00  0.00    +0.000 Br
ENDBRANCH   5   9
BRANCH   1  16
ATOM     16  C   UNL     1       0.299  11.307  19.776  0.00  0.00    +0.000 C 
BRANCH  16  28
ATOM     17  O   UNL     1      -0.268  12.169  22.789  0.00  0.00    +0.000 OA
ATOM     18  C   UNL     1      -0.026  12.756  21.740  0.00  0.00    +0.000 C 
ATOM     19  O   UNL     1      -0.776  13.851  21.340  0.00  0.00    +0.000 OA
ATOM     20  C   UNL     1      -0.331  14.708  20.321  0.00  0.00    +0.000 A 
ATOM     21  C   UNL     1      -1.171  15.761  19.974  0.00  0.00    +0.000 A 
ATOM     22  C   UNL     1      -0.745  16.689  19.021  0.00  0.00    +0.000 A 
ATOM     23  C   UNL     1       0.521  16.570  18.442  0.00  0.00    +0.000 A 
ATOM     24  C   UNL     1       1.352  15.502  18.785  0.00  0.00    +0.000 A 
ATOM     25  C   UNL     1       0.907  14.560  19.713  0.00  0.00    +0.000 A 
ATOM     26  C   UNL     1       1.695  13.364  20.015  0.00  0.00    +0.000 C 
ATOM     27  O   UNL     1       2.839  13.241  19.586  0.00  0.00    +0.000 OA
ATOM     28  C   UNL     1       0.994  12.265  20.755  0.00  0.00    +0.000 C 
ENDBRANCH  16  28
ENDBRANCH   1  16
TORSDOF 3
ENDMDL
MODEL 3
REMARK VINA RESULT:      -7.6      2.198      2.700
REMARK  Name = 
REMARK  3 active torsions:
REMARK  status: ('A' for Active; 'I' for Inactive)
REMARK    1  A    between atoms: C_12  and  C_13
REMARK    2  A    between atoms: C_13  and  N_14
REMARK    3  A    between atoms: C_18  and  C_19
REMARK                            x       y       z     vdW  Elec       q    Type
REMARK                         _______ _______ _______ _____ _____    ______ ____
ROOT
ATOM      1  N   UNL     1       1.447   9.278  19.718  0.00  0.00    +0.000 N 
ATOM      2  C   UNL     1       1.912   8.674  18.554  0.00  0.00    +0.000 C 
ATOM      3  O   UNL     1       2.052   9.216  17.471  0.00  0.00    +0.000 OA
ATOM      4  C   UNL     1       2.171   7.226  18.798  0.00  0.00    +0.000 C 
ATOM      5  C   UNL     1       2.381   6.327  17.825  0.00  0.00    +0.000 C 
ATOM      6  S   UNL     1       2.041   6.895  20.482  0.00  0.00    +0.000 S 
ATOM      7  C   UNL     1       1.271   8.437  20.798  0.00  0.00    +0.000 C 
ATOM      8  S   UNL     1       0.426   8.730  22.205  0.00  0.00    +0.000 S 
ENDROOT
BRANCH   5   9
ATOM      9  C   UNL     1       2.592   4.892  18.085  0.00  0.00    +0.000 A 
ATOM     10  C   UNL     1       1.468   4.054  18.073  0.00  0.00    +0.000 A 
ATOM     11  C   UNL     1       1.608   2.669  18.200  0.00  0.00    +0.000 A 
ATOM     12  C   UNL     1       2.874   2.104  18.336  0.00  0.00    +0.000 A 
ATOM     13  C   UNL     1       4.001   2.925  18.370  0.00  0.00    +0.000 A 
ATOM     14  C   UNL     1       3.863   4.314  18.255  0.00  0.00    +0.000 A 
ATOM     15 BR   UNL     1       5.445   5.364  18.334  0.00  0.00    +0.000 Br
ENDBRANCH   5   9
BRANCH   1  16
ATOM     16  C   UNL     1       1.084  10.702  19.707  0.00  0.00    +0.000 C 
BRANCH  16  28
ATOM     17  O   UNL     1      -1.174  10.549  17.466  0.00  0.00    +0.000 OA
ATOM     18  C   UNL     1      -0.834  11.367  18.313  0.00  0.00    +0.000 C 
ATOM     19  O   UNL     1      -0.683  12.708  17.996  0.00  0.00    +0.000 OA
ATOM     20  C   UNL     1      -0.598  13.689  18.997  0.00  0.00    +0.000 A 
ATOM     21  C   UNL     1      -0.418  15.003  18.575  0.00  0.00    +0.000 A 
ATOM     22  C   UNL     1      -0.404  16.029  19.523  0.00  0.00    +0.000 A 
ATOM     23  C   UNL     1      -0.591  15.737  20.877  0.00  0.00    +0.000 A 
ATOM     24  C   UNL     1      -0.757  14.416  21.292  0.00  0.00    +0.000 A 
ATOM     25  C   UNL     1      -0.737  13.392  20.345  0.00  0.00    +0.000 A 
ATOM     26  C   UNL     1      -0.789  11.986  20.747  0.00  0.00    +0.000 C 
ATOM     27  O   UNL     1      -1.019  11.674  21.912  0.00  0.00    +0.000 OA
ATOM     28  C   UNL     1      -0.429  10.973  19.703  0.00  0.00    +0.000 C 
ENDBRANCH  16  28
ENDBRANCH   1  16
TORSDOF 3
ENDMDL
MODEL 4
REMARK VINA RESULT:      -7.4      1.492      2.362
REMARK  Name = 
REMARK  3 active torsions:
REMARK  status: ('A' for Active; 'I' for Inactive)
REMARK    1  A    between atoms: C_12  and  C_13
REMARK    2  A    between atoms: C_13  and  N_14
REMARK    3  A    between atoms: C_18  and  C_19
REMARK                            x       y       z     vdW  Elec       q    Type
REMARK                         _______ _______ _______ _____ _____    ______ ____
ROOT
ATOM      1  N   UNL     1       1.098   8.886  19.701  0.00  0.00    +0.000 N 
ATOM      2  C   UNL     1       1.505   7.640  20.163  0.00  0.00    +0.000 C 
ATOM      3  O   UNL     1       1.129   7.094  21.187  0.00  0.00    +0.000 OA
ATOM      4  C   UNL     1       2.531   7.066  19.245  0.00  0.00    +0.000 C 
ATOM      5  C   UNL     1       3.296   6.004  19.544  0.00  0.00    +0.000 C 
ATOM      6  S   UNL     1       2.645   8.038  17.830  0.00  0.00    +0.000 S 
ATOM      7  C   UNL     1       1.741   9.345  18.570  0.00  0.00    +0.000 C 
ATOM      8  S   UNL     1       1.764  10.894  17.952  0.00  0.00    +0.000 S 
ENDROOT
BRANCH   5   9
ATOM      9  C   UNL     1       4.335   5.480  18.641  0.00  0.00    +0.000 A 
ATOM     10  C   UNL     1       5.639   5.977  18.786  0.00  0.00    +0.000 A 
ATOM     11  C   UNL     1       6.694   5.443  18.041  0.00  0.00    +0.000 A 
ATOM     12  C   UNL     1       6.460   4.402  17.145  0.00  0.00    +0.000 A 
ATOM     13  C   UNL     1       5.166   3.910  16.974  0.00  0.00    +0.000 A 
ATOM     14  C   UNL     1       4.106   4.450  17.711  0.00  0.00    +0.000 A 
ATOM     15 BR   UNL     1       2.370   3.740  17.403  0.00  0.00    +0.000 Br
ENDBRANCH   5   9
BRANCH   1  16
ATOM     16  C   UNL     1       0.115   9.665  20.469  0.00  0.00    +0.000 C 
BRANCH  16  28
ATOM     17  O   UNL     1       1.073   9.324  23.488  0.00  0.00    +0.000 OA
ATOM     18  C   UNL     1       0.377  10.124  22.874  0.00  0.00    +0.000 C 
ATOM     19  O   UNL     1      -0.855  10.528  23.365  0.00  0.00    +0.000 OA
ATOM     20  C   UNL     1      -1.515  11.653  22.846  0.00  0.00    +0.000 A 
ATOM     21  C   UNL     1      -2.760  11.958  23.387  0.00  0.00    +0.000 A 
ATOM     22  C   UNL     1      -3.426  13.109  22.962  0.00  0.00    +0.000 A 
ATOM     23  C   UNL     1      -2.836  13.956  22.020  0.00  0.00    +0.000 A 
ATOM     24  C   UNL     1      -1.593  13.635  21.471  0.00  0.00    +0.000 A 
ATOM     25  C   UNL     1      -0.947  12.467  21.875  0.00  0.00    +0.000 A 
ATOM     26  C   UNL     1       0.299  12.032  21.242  0.00  0.00    +0.000 C 
ATOM     27  O   UNL     1       0.894  12.766  20.458  0.00  0.00    +0.000 OA
ATOM     28  C   UNL     1       0.730  10.621  21.503  0.00  0.00    +0.000 C 
ENDBRANCH  16  28
ENDBRANCH   1  16
TORSDOF 3
ENDMDL
MODEL 5
REMARK VINA RESULT:      -7.4      2.456      3.021
REMARK  Name = 
REMARK  3 active torsions:
REMARK  status: ('A' for Active; 'I' for Inactive)
REMARK    1  A    between atoms: C_12  and  C_13
REMARK    2  A    between atoms: C_13  and  N_14
REMARK    3  A    between atoms: C_18  and  C_19
REMARK                            x       y       z     vdW  Elec       q    Type
REMARK                         _______ _______ _______ _____ _____    ______ ____
ROOT
ATOM      1  N   UNL     1       1.340   9.506  19.914  0.00  0.00    +0.000 N 
ATOM      2  C   UNL     1       1.990   9.040  18.776  0.00  0.00    +0.000 C 
ATOM      3  O   UNL     1       2.304   9.708  17.805  0.00  0.00    +0.000 OA
ATOM      4  C   UNL     1       2.210   7.569  18.879  0.00  0.00    +0.000 C 
ATOM      5  C   UNL     1       2.578   6.791  17.850  0.00  0.00    +0.000 C 
ATOM      6  S   UNL     1       1.807   7.037  20.466  0.00  0.00    +0.000 S 
ATOM      7  C   UNL     1       0.992   8.543  20.840  0.00  0.00    +0.000 C 
ATOM      8  S   UNL     1      -0.072   8.677  22.117  0.00  0.00    +0.000 S 
ENDROOT
BRANCH   5   9
ATOM      9  C   UNL     1       2.747   5.332  17.962  0.00  0.00    +0.000 A 
ATOM     10  C   UNL     1       1.601   4.531  17.850  0.00  0.00    +0.000 A 
ATOM     11  C   UNL     1       1.702   3.137  17.835  0.00  0.00    +0.000 A 
ATOM     12  C   UNL     1       2.951   2.527  17.925  0.00  0.00    +0.000 A 
ATOM     13  C   UNL     1       4.099   3.308  18.058  0.00  0.00    +0.000 A 
ATOM     14  C   UNL     1       3.999   4.704  18.085  0.00  0.00    +0.000 A 
ATOM     15 BR   UNL     1       5.608   5.696  18.291  0.00  0.00    +0.000 Br
ENDBRANCH   5   9
BRANCH   1  16
ATOM     16  C   UNL     1       0.981  10.927  20.020  0.00  0.00    +0.000 C 
BRANCH  16  28
ATOM     17  O   UNL     1       1.780  13.137  17.871  0.00  0.00    +0.000 OA
ATOM     18  C   UNL     1       0.791  12.895  18.552  0.00  0.00    +0.000 C 
ATOM     19  O   UNL     1       0.149  13.895  19.266  0.00  0.00    +0.000 OA
ATOM     20  C   UNL     1      -1.138  13.705  19.792  0.00  0.00    +0.000 A 
ATOM     21  C   UNL     1      -1.684  14.760  20.517  0.00  0.00    +0.000 A 
ATOM     22  C   UNL     1      -2.990  14.655  20.998  0.00  0.00    +0.000 A 
ATOM     23  C   UNL     1      -3.746  13.510  20.734  0.00  0.00    +0.000 A 
ATOM     24  C   UNL     1      -3.187  12.450  20.019  0.00  0.00    +0.000 A 
ATOM     25  C   UNL     1      -1.871  12.547  19.569  0.00  0.00    +0.000 A 
ATOM     26  C   UNL     1      -1.206  11.416  18.919  0.00  0.00    +0.000 C 
ATOM     27  O   UNL     1      -1.840  10.413  18.603  0.00  0.00    +0.000 OA
ATOM     28  C   UNL     1       0.283  11.501  18.777  0.00  0.00    +0.000 C 
ENDBRANCH  16  28
ENDBRANCH   1  16
TORSDOF 3
ENDMDL
MODEL 6
REMARK VINA RESULT:      -7.2      3.888      9.987
REMARK  Name = 
REMARK  3 active torsions:
REMARK  status: ('A' for Active; 'I' for Inactive)
REMARK    1  A    between atoms: C_12  and  C_13
REMARK    2  A    between atoms: C_13  and  N_14
REMARK    3  A    between atoms: C_18  and  C_19
REMARK                            x       y       z     vdW  Elec       q    Type
REMARK                         _______ _______ _______ _____ _____    ______ ____
ROOT
ATOM      1  N   UNL     1       3.547   6.913  17.889  0.00  0.00    +0.000 N 
ATOM      2  C   UNL     1       2.853   8.117  17.840  0.00  0.00    +0.000 C 
ATOM      3  O   UNL     1       2.922   8.951  16.952  0.00  0.00    +0.000 OA
ATOM      4  C   UNL     1       2.034   8.286  19.075  0.00  0.00    +0.000 C 
ATOM      5  C   UNL     1       1.456   9.440  19.441  0.00  0.00    +0.000 C 
ATOM      6  S   UNL     1       2.053   6.823  19.982  0.00  0.00    +0.000 S 
ATOM      7  C   UNL     1       3.389   6.179  19.047  0.00  0.00    +0.000 C 
ATOM      8  S   UNL     1       4.309   4.899  19.590  0.00  0.00    +0.000 S 
ENDROOT
BRANCH   5   9
ATOM      9  C   UNL     1       0.687   9.597  20.688  0.00  0.00    +0.000 A 
ATOM     10  C   UNL     1       1.218   9.035  21.858  0.00  0.00    +0.000 A 
ATOM     11  C   UNL     1       0.599   9.240  23.094  0.00  0.00    +0.000 A 
ATOM     12  C   UNL     1      -0.555  10.016  23.177  0.00  0.00    +0.000 A 
ATOM     13  C   UNL     1      -1.108  10.566  22.020  0.00  0.00    +0.000 A 
ATOM     14  C   UNL     1      -0.496  10.351  20.779  0.00  0.00    +0.000 A 
ATOM     15 BR   UNL     1      -1.324  11.115  19.248  0.00  0.00    +0.000 Br
ENDBRANCH   5   9
BRANCH   1  16
ATOM     16  C   UNL     1       4.456   6.549  16.793  0.00  0.00    +0.000 C 
BRANCH  16  28
ATOM     17  O   UNL     1       7.359   6.281  18.076  0.00  0.00    +0.000 OA
ATOM     18  C   UNL     1       6.797   5.840  17.081  0.00  0.00    +0.000 C 
ATOM     19  O   UNL     1       7.406   5.875  15.836  0.00  0.00    +0.000 OA
ATOM     20  C   UNL     1       6.920   5.112  14.763  0.00  0.00    +0.000 A 
ATOM     21  C   UNL     1       7.585   5.240  13.547  0.00  0.00    +0.000 A 
ATOM     22  C   UNL     1       7.192   4.447  12.467  0.00  0.00    +0.000 A 
ATOM     23  C   UNL     1       6.157   3.520  12.615  0.00  0.00    +0.000 A 
ATOM     24  C   UNL     1       5.486   3.408  13.833  0.00  0.00    +0.000 A 
ATOM     25  C   UNL     1       5.861   4.225  14.900  0.00  0.00    +0.000 A 
ATOM     26  C   UNL     1       5.110   4.224  16.156  0.00  0.00    +0.000 C 
ATOM     27  O   UNL     1       4.236   3.387  16.365  0.00  0.00    +0.000 OA
ATOM     28  C   UNL     1       5.376   5.357  17.101  0.00  0.00    +0.000 C 
ENDBRANCH  16  28
ENDBRANCH   1  16
TORSDOF 3
ENDMDL
MODEL 7
REMARK VINA RESULT:      -6.9      1.350      2.049
REMARK  Name = 
REMARK  3 active torsions:
REMARK  status: ('A' for Active; 'I' for Inactive)
REMARK    1  A    between atoms: C_12  and  C_13
REMARK    2  A    between atoms: C_13  and  N_14
REMARK    3  A    between atoms: C_18  and  C_19
REMARK                            x       y       z     vdW  Elec       q    Type
REMARK                         _______ _______ _______ _____ _____    ______ ____
ROOT
ATOM      1  N   UNL     1       1.174   9.642  19.965  0.00  0.00    +0.000 N 
ATOM      2  C   UNL     1       1.447   8.330  20.337  0.00  0.00    +0.000 C 
ATOM      3  O   UNL     1       1.198   7.824  21.418  0.00  0.00    +0.000 OA
ATOM      4  C   UNL     1       2.154   7.621  19.231  0.00  0.00    +0.000 C 
ATOM      5  C   UNL     1       2.771   6.438  19.372  0.00  0.00    +0.000 C 
ATOM      6  S   UNL     1       2.145   8.605  17.820  0.00  0.00    +0.000 S 
ATOM      7  C   UNL     1       1.645  10.021  18.724  0.00  0.00    +0.000 C 
ATOM      8  S   UNL     1       1.807  11.563  18.110  0.00  0.00    +0.000 S 
ENDROOT
BRANCH   5   9
ATOM      9  C   UNL     1       3.501   5.775  18.277  0.00  0.00    +0.000 A 
ATOM     10  C   UNL     1       4.699   6.360  17.843  0.00  0.00    +0.000 A 
ATOM     11  C   UNL     1       5.499   5.726  16.888  0.00  0.00    +0.000 A 
ATOM     12  C   UNL     1       5.114   4.497  16.360  0.00  0.00    +0.000 A 
ATOM     13  C   UNL     1       3.915   3.910  16.765  0.00  0.00    +0.000 A 
ATOM     14  C   UNL     1       3.106   4.549  17.713  0.00  0.00    +0.000 A 
ATOM     15 BR   UNL     1       1.477   3.696  18.196  0.00  0.00    +0.000 Br
ENDBRANCH   5   9
BRANCH   1  16
ATOM     16  C   UNL     1       0.514  10.549  20.914  0.00  0.00    +0.000 C 
BRANCH  16  28
ATOM     17  O   UNL     1       1.966  13.373  21.164  0.00  0.00    +0.000 OA
ATOM     18  C   UNL     1       0.817  12.965  21.283  0.00  0.00    +0.000 C 
ATOM     19  O   UNL     1       0.034  13.329  22.367  0.00  0.00    +0.000 OA
ATOM     20  C   UNL     1      -1.355  13.130  22.365  0.00  0.00    +0.000 A 
ATOM     21  C   UNL     1      -2.046  13.503  23.514  0.00  0.00    +0.000 A 
ATOM     22  C   UNL     1      -3.438  13.398  23.538  0.00  0.00    +0.000 A 
ATOM     23  C   UNL     1      -4.128  12.943  22.411  0.00  0.00    +0.000 A 
ATOM     24  C   UNL     1      -3.427  12.557  21.268  0.00  0.00    +0.000 A 
ATOM     25  C   UNL     1      -2.034  12.633  21.261  0.00  0.00    +0.000 A 
ATOM     26  C   UNL     1      -1.253  12.130  20.130  0.00  0.00    +0.000 C 
ATOM     27  O   UNL     1      -1.806  11.781  19.091  0.00  0.00    +0.000 OA
ATOM     28  C   UNL     1       0.218  11.949  20.355  0.00  0.00    +0.000 C 
ENDBRANCH  16  28
ENDBRANCH   1  16
TORSDOF 3
ENDMDL
MODEL 8
REMARK VINA RESULT:      -6.8      2.441      2.944
REMARK  Name = 
REMARK  3 active torsions:
REMARK  status: ('A' for Active; 'I' for Inactive)
REMARK    1  A    between atoms: C_12  and  C_13
REMARK    2  A    between atoms: C_13  and  N_14
REMARK    3  A    between atoms: C_18  and  C_19
REMARK                            x       y       z     vdW  Elec       q    Type
REMARK                         _______ _______ _______ _____ _____    ______ ____
ROOT
ATOM      1  N   UNL     1       0.780   9.624  19.472  0.00  0.00    +0.000 N 
ATOM      2  C   UNL     1       1.638   9.244  18.445  0.00  0.00    +0.000 C 
ATOM      3  O   UNL     1       1.784   9.822  17.381  0.00  0.00    +0.000 OA
ATOM      4  C   UNL     1       2.334   7.975  18.803  0.00  0.00    +0.000 C 
ATOM      5  C   UNL     1       3.025   7.226  17.931  0.00  0.00    +0.000 C 
ATOM      6  S   UNL     1       2.011   7.586  20.448  0.00  0.00    +0.000 S 
ATOM      7  C   UNL     1       0.707   8.754  20.541  0.00  0.00    +0.000 C 
ATOM      8  S   UNL     1      -0.438   8.704  21.753  0.00  0.00    +0.000 S 
ENDROOT
BRANCH   5   9
ATOM      9  C   UNL     1       3.669   5.951  18.295  0.00  0.00    +0.000 A 
ATOM     10  C   UNL     1       4.993   5.997  18.757  0.00  0.00    +0.000 A 
ATOM     11  C   UNL     1       5.626   4.843  19.226  0.00  0.00    +0.000 A 
ATOM     12  C   UNL     1       4.942   3.629  19.243  0.00  0.00    +0.000 A 
ATOM     13  C   UNL     1       3.632   3.562  18.768  0.00  0.00    +0.000 A 
ATOM     14  C   UNL     1       3.000   4.715  18.288  0.00  0.00    +0.000 A 
ATOM     15 BR   UNL     1       1.223   4.536  17.637  0.00  0.00    +0.000 Br
ENDBRANCH   5   9
BRANCH   1  16
ATOM     16  C   UNL     1      -0.047  10.830  19.325  0.00  0.00    +0.000 C 
BRANCH  16  28
ATOM     17  O   UNL     1      -2.432  12.090  21.018  0.00  0.00    +0.000 OA
ATOM     18  C   UNL     1      -1.383  12.504  20.540  0.00  0.00    +0.000 C 
ATOM     19  O   UNL     1      -1.341  13.686  19.815  0.00  0.00    +0.000 OA
ATOM     20  C   UNL     1      -0.124  14.324  19.529  0.00  0.00    +0.000 A 
ATOM     21  C   UNL     1      -0.189  15.489  18.771  0.00  0.00    +0.000 A 
ATOM     22  C   UNL     1       0.983  16.206  18.521  0.00  0.00    +0.000 A 
ATOM     23  C   UNL     1       2.201  15.768  19.048  0.00  0.00    +0.000 A 
ATOM     24  C   UNL     1       2.259  14.591  19.794  0.00  0.00    +0.000 A 
ATOM     25  C   UNL     1       1.091  13.861  20.013  0.00  0.00    +0.000 A 
ATOM     26  C   UNL     1       1.124  12.563  20.689  0.00  0.00    +0.000 C 
ATOM     27  O   UNL     1       2.152  12.162  21.228  0.00  0.00    +0.000 OA
ATOM     28  C   UNL     1      -0.107  11.715  20.580  0.00  0.00    +0.000 C 
ENDBRANCH  16  28
ENDBRANCH   1  16
TORSDOF 3
ENDMDL
MODEL 9
REMARK VINA RESULT:      -6.8      3.486      9.408
REMARK  Name = 
REMARK  3 active torsions:
REMARK  status: ('A' for Active; 'I' for Inactive)
REMARK    1  A    between atoms: C_12  and  C_13
REMARK    2  A    between atoms: C_13  and  N_14
REMARK    3  A    between atoms: C_18  and  C_19
REMARK                            x       y       z     vdW  Elec       q    Type
REMARK                         _______ _______ _______ _____ _____    ______ ____
ROOT
ATOM      1  N   UNL     1      -0.070  12.038  21.592  0.00  0.00    +0.000 N 
ATOM      2  C   UNL     1      -0.846  11.973  22.744  0.00  0.00    +0.000 C 
ATOM      3  O   UNL     1      -0.971  11.003  23.472  0.00  0.00    +0.000 OA
ATOM      4  C   UNL     1      -1.568  13.262  22.947  0.00  0.00    +0.000 C 
ATOM      5  C   UNL     1      -2.578  13.428  23.815  0.00  0.00    +0.000 C 
ATOM      6  S   UNL     1      -0.983  14.431  21.828  0.00  0.00    +0.000 S 
ATOM      7  C   UNL     1      -0.169  13.210  20.870  0.00  0.00    +0.000 C 
ATOM      8  S   UNL     1       0.327  13.502  19.305  0.00  0.00    +0.000 S 
ENDROOT
BRANCH   5   9
ATOM      9  C   UNL     1      -3.308  14.699  23.969  0.00  0.00    +0.000 A 
ATOM     10  C   UNL     1      -4.486  14.870  23.228  0.00  0.00    +0.000 A 
ATOM     11  C   UNL     1      -5.286  16.000  23.409  0.00  0.00    +0.000 A 
ATOM     12  C   UNL     1      -4.922  16.973  24.338  0.00  0.00    +0.000 A 
ATOM     13  C   UNL     1      -3.743  16.828  25.069  0.00  0.00    +0.000 A 
ATOM     14  C   UNL     1      -2.933  15.702  24.881  0.00  0.00    +0.000 A 
ATOM     15 BR   UNL     1      -1.332  15.591  25.899  0.00  0.00    +0.000 Br
ENDBRANCH   5   9
BRANCH   1  16
ATOM     16  C   UNL     1       0.704  10.863  21.165  0.00  0.00    +0.000 C 
BRANCH  16  28
ATOM     17  O   UNL     1      -0.882   8.289  22.164  0.00  0.00    +0.000 OA
ATOM     18  C   UNL     1      -0.072   8.529  21.276  0.00  0.00    +0.000 C 
ATOM     19  O   UNL     1       1.024   7.708  21.062  0.00  0.00    +0.000 OA
ATOM     20  C   UNL     1       1.777   7.788  19.880  0.00  0.00    +0.000 A 
ATOM     21  C   UNL     1       2.875   6.940  19.775  0.00  0.00    +0.000 A 
ATOM     22  C   UNL     1       3.613   6.924  18.590  0.00  0.00    +0.000 A 
ATOM     23  C   UNL     1       3.238   7.735  17.516  0.00  0.00    +0.000 A 
ATOM     24  C   UNL     1       2.145   8.593  17.635  0.00  0.00    +0.000 A 
ATOM     25  C   UNL     1       1.430   8.630  18.832  0.00  0.00    +0.000 A 
ATOM     26  C   UNL     1       0.351   9.597  19.042  0.00  0.00    +0.000 C 
ATOM     27  O   UNL     1      -0.063  10.286  18.115  0.00  0.00    +0.000 OA
ATOM     28  C   UNL     1      -0.122   9.782  20.452  0.00  0.00    +0.000 C 
ENDBRANCH  16  28
ENDBRANCH   1  16
TORSDOF 3
ENDMDL
