MODEL 1
REMARK VINA RESULT:      -9.5      0.000      0.000
REMARK  Name = 
REMARK  9 active torsions:
REMARK  status: ('A' for Active; 'I' for Inactive)
REMARK    1  A    between atoms: C_1  and  C_2
REMARK    2  A    between atoms: C_2  and  C_3
REMARK    3  A    between atoms: C_2  and  C_4
REMARK    4  A    between atoms: C_2  and  O_5
REMARK    5  A    between atoms: O_5  and  C_6
REMARK    6  A    between atoms: C_10  and  C_11
REMARK    7  A    between atoms: C_16  and  O_17
REMARK    8  A    between atoms: O_17  and  C_18
REMARK    9  A    between atoms: C_21  and  C_23
REMARK                            x       y       z     vdW  Elec       q    Type
REMARK                         _______ _______ _______ _____ _____    ______ ____
ROOT
ATOM      1  C   UNL     1       3.643   3.759  18.066  0.00  0.00    +0.000 A 
ATOM      2  N   UNL     1       3.685   2.416  18.330  0.00  0.00    +0.000 NA
ATOM      3  C   UNL     1       2.596   1.840  18.866  0.00  0.00    +0.000 A 
ATOM      4  C   UNL     1       1.459   2.562  19.155  0.00  0.00    +0.000 A 
ATOM      5  N   UNL     1       1.366   3.886  18.915  0.00  0.00    +0.000 NA
ATOM      6  C   UNL     1       2.459   4.481  18.364  0.00  0.00    +0.000 A 
ENDROOT
BRANCH   1  11
ATOM      7  C   UNL     1       6.985   4.637  14.495  0.00  0.00    +0.000 C 
ATOM      8  O   UNL     1       7.920   5.275  14.026  0.00  0.00    +0.000 OA
ATOM      9  N   UNL     1       6.499   4.809  15.792  0.00  0.00    +0.000 N 
ATOM     10  C   UNL     1       5.349   4.185  16.267  0.00  0.00    +0.000 C 
ATOM     11  C   UNL     1       4.960   4.257  17.550  0.00  0.00    +0.000 C 
ATOM     12  C   UNL     1       5.874   4.914  18.587  0.00  0.00    +0.000 C 
ATOM     13  C   UNL     1       7.206   5.448  18.055  0.00  0.00    +0.000 C 
ATOM     14  C   UNL     1       7.092   5.867  16.605  0.00  0.00    +0.000 C 
BRANCH   7  15
ATOM     15  O   UNL     1       6.302   3.677  13.818  0.00  0.00    +0.000 OA
BRANCH  15  17
ATOM     16  C   UNL     1       6.865   2.245  11.903  0.00  0.00    +0.000 C 
ATOM     17  C   UNL     1       6.337   3.603  12.375  0.00  0.00    +0.000 C 
ATOM     18  C   UNL     1       7.138   4.766  11.781  0.00  0.00    +0.000 C 
ATOM     19  C   UNL     1       4.867   3.753  11.956  0.00  0.00    +0.000 C 
ENDBRANCH  15  17
ENDBRANCH   7  15
ENDBRANCH   1  11
BRANCH   6  20
ATOM     20  O   UNL     1       2.312   5.822  18.051  0.00  0.00    +0.000 OA
BRANCH  20  21
ATOM     21  C   UNL     1       2.576   6.791  19.115  0.00  0.00    +0.000 C 
ATOM     22  C   UNL     1       2.000   8.217  18.871  0.00  0.00    +0.000 C 
ATOM     23  N   UNL     1       1.524   8.199  20.234  0.00  0.00    +0.000 N 
ATOM     24  C   UNL     1       1.014   9.131  21.105  0.00  0.00    +0.000 C 
ATOM     25  O   UNL     1       0.669   8.795  22.242  0.00  0.00    +0.000 OA
ATOM     26  C   UNL     1       1.739   6.771  20.419  0.00  0.00    +0.000 C 
BRANCH  24  27
ATOM     27  C   UNL     1       0.878  10.522  20.673  0.00  0.00    +0.000 A 
ATOM     28  N   UNL     1       1.487  11.592  21.163  0.00  0.00    +0.000 NA
ATOM     29  C   UNL     1       0.996  12.665  20.441  0.00  0.00    +0.000 A 
ATOM     30  C   UNL     1       1.289  14.036  20.536  0.00  0.00    +0.000 A 
ATOM     31  C   UNL     1       0.631  14.934  19.679  0.00  0.00    +0.000 A 
ATOM     32  C   UNL     1      -0.300  14.478  18.743  0.00  0.00    +0.000 A 
ATOM     33  C   UNL     1      -0.595  13.114  18.622  0.00  0.00    +0.000 A 
ATOM     34  C   UNL     1       0.075  12.242  19.488  0.00  0.00    +0.000 A 
ATOM     35  N   UNL     1       0.032  10.885  19.647  0.00  0.00    +0.000 N 
ATOM     36  H   UNL     1      -0.533  10.233  19.121  0.00  0.00    +0.000 HD
ENDBRANCH  24  27
ENDBRANCH  20  21
ENDBRANCH   6  20
TORSDOF 6
ENDMDL
MODEL 2
REMARK VINA RESULT:      -9.4      1.431      1.900
REMARK  Name = 
REMARK  9 active torsions:
REMARK  status: ('A' for Active; 'I' for Inactive)
REMARK    1  A    between atoms: C_1  and  C_2
REMARK    2  A    between atoms: C_2  and  C_3
REMARK    3  A    between atoms: C_2  and  C_4
REMARK    4  A    between atoms: C_2  and  O_5
REMARK    5  A    between atoms: O_5  and  C_6
REMARK    6  A    between atoms: C_10  and  C_11
REMARK    7  A    between atoms: C_16  and  O_17
REMARK    8  A    between atoms: O_17  and  C_18
REMARK    9  A    between atoms: C_21  and  C_23
REMARK                            x       y       z     vdW  Elec       q    Type
REMARK                         _______ _______ _______ _____ _____    ______ ____
ROOT
ATOM      1  C   UNL     1       4.068   3.606  18.316  0.00  0.00    +0.000 A 
ATOM      2  N   UNL     1       3.894   2.317  17.891  0.00  0.00    +0.000 NA
ATOM      3  C   UNL     1       2.891   1.601  18.427  0.00  0.00    +0.000 A 
ATOM      4  C   UNL     1       2.052   2.128  19.384  0.00  0.00    +0.000 A 
ATOM      5  N   UNL     1       2.181   3.392  19.839  0.00  0.00    +0.000 NA
ATOM      6  C   UNL     1       3.187   4.132  19.297  0.00  0.00    +0.000 A 
ENDROOT
BRANCH   1  11
ATOM      7  C   UNL     1       7.022   4.700  14.474  0.00  0.00    +0.000 C 
ATOM      8  O   UNL     1       7.835   5.422  13.910  0.00  0.00    +0.000 OA
ATOM      9  N   UNL     1       6.608   4.879  15.795  0.00  0.00    +0.000 N 
ATOM     10  C   UNL     1       5.580   4.145  16.380  0.00  0.00    +0.000 C 
ATOM     11  C   UNL     1       5.273   4.235  17.684  0.00  0.00    +0.000 C 
ATOM     12  C   UNL     1       6.167   5.050  18.621  0.00  0.00    +0.000 C 
ATOM     13  C   UNL     1       7.381   5.715  17.969  0.00  0.00    +0.000 C 
ATOM     14  C   UNL     1       7.118   6.041  16.515  0.00  0.00    +0.000 C 
BRANCH   7  15
ATOM     15  O   UNL     1       6.420   3.630  13.890  0.00  0.00    +0.000 OA
BRANCH  15  17
ATOM     16  C   UNL     1       6.533   2.119  11.957  0.00  0.00    +0.000 C 
ATOM     17  C   UNL     1       6.265   3.542  12.456  0.00  0.00    +0.000 C 
ATOM     18  C   UNL     1       7.141   4.574  11.741  0.00  0.00    +0.000 C 
ATOM     19  C   UNL     1       4.790   3.898  12.216  0.00  0.00    +0.000 C 
ENDBRANCH  15  17
ENDBRANCH   7  15
ENDBRANCH   1  11
BRANCH   6  20
ATOM     20  O   UNL     1       3.249   5.449  19.718  0.00  0.00    +0.000 OA
BRANCH  20  21
ATOM     21  C   UNL     1       2.235   6.367  19.198  0.00  0.00    +0.000 C 
ATOM     22  C   UNL     1       1.868   7.552  20.139  0.00  0.00    +0.000 C 
ATOM     23  N   UNL     1       1.955   8.421  18.989  0.00  0.00    +0.000 N 
ATOM     24  C   UNL     1       1.598   9.719  18.713  0.00  0.00    +0.000 C 
ATOM     25  O   UNL     1       1.824  10.201  17.599  0.00  0.00    +0.000 OA
ATOM     26  C   UNL     1       2.612   7.436  18.142  0.00  0.00    +0.000 C 
BRANCH  24  27
ATOM     27  C   UNL     1       0.956  10.525  19.751  0.00  0.00    +0.000 A 
ATOM     28  N   UNL     1       0.008  10.157  20.599  0.00  0.00    +0.000 NA
ATOM     29  C   UNL     1      -0.283  11.284  21.348  0.00  0.00    +0.000 A 
ATOM     30  C   UNL     1      -1.209  11.473  22.388  0.00  0.00    +0.000 A 
ATOM     31  C   UNL     1      -1.317  12.741  22.982  0.00  0.00    +0.000 A 
ATOM     32  C   UNL     1      -0.518  13.803  22.551  0.00  0.00    +0.000 A 
ATOM     33  C   UNL     1       0.422  13.632  21.527  0.00  0.00    +0.000 A 
ATOM     34  C   UNL     1       0.508  12.358  20.954  0.00  0.00    +0.000 A 
ATOM     35  N   UNL     1       1.290  11.846  19.956  0.00  0.00    +0.000 N 
ATOM     36  H   UNL     1       1.995  12.341  19.426  0.00  0.00    +0.000 HD
ENDBRANCH  24  27
ENDBRANCH  20  21
ENDBRANCH   6  20
TORSDOF 6
ENDMDL
MODEL 3
REMARK VINA RESULT:      -9.2      0.167      1.229
REMARK  Name = 
REMARK  9 active torsions:
REMARK  status: ('A' for Active; 'I' for Inactive)
REMARK    1  A    between atoms: C_1  and  C_2
REMARK    2  A    between atoms: C_2  and  C_3
REMARK    3  A    between atoms: C_2  and  C_4
REMARK    4  A    between atoms: C_2  and  O_5
REMARK    5  A    between atoms: O_5  and  C_6
REMARK    6  A    between atoms: C_10  and  C_11
REMARK    7  A    between atoms: C_16  and  O_17
REMARK    8  A    between atoms: O_17  and  C_18
REMARK    9  A    between atoms: C_21  and  C_23
REMARK                            x       y       z     vdW  Elec       q    Type
REMARK                         _______ _______ _______ _____ _____    ______ ____
ROOT
ATOM      1  C   UNL     1       3.658   3.718  18.065  0.00  0.00    +0.000 A 
ATOM      2  N   UNL     1       3.712   2.396  18.417  0.00  0.00    +0.000 NA
ATOM      3  C   UNL     1       2.627   1.845  18.986  0.00  0.00    +0.000 A 
ATOM      4  C   UNL     1       1.482   2.573  19.223  0.00  0.00    +0.000 A 
ATOM      5  N   UNL     1       1.376   3.878  18.897  0.00  0.00    +0.000 NA
ATOM      6  C   UNL     1       2.466   4.447  18.311  0.00  0.00    +0.000 A 
ENDROOT
BRANCH   1  11
ATOM      7  C   UNL     1       6.931   4.560  14.423  0.00  0.00    +0.000 C 
ATOM      8  O   UNL     1       7.867   5.183  13.936  0.00  0.00    +0.000 OA
ATOM      9  N   UNL     1       6.480   4.731  15.732  0.00  0.00    +0.000 N 
ATOM     10  C   UNL     1       5.329   4.126  16.229  0.00  0.00    +0.000 C 
ATOM     11  C   UNL     1       4.972   4.195  17.522  0.00  0.00    +0.000 C 
ATOM     12  C   UNL     1       5.923   4.825  18.542  0.00  0.00    +0.000 C 
ATOM     13  C   UNL     1       7.252   5.338  17.982  0.00  0.00    +0.000 C 
ATOM     14  C   UNL     1       7.112   5.770  16.539  0.00  0.00    +0.000 C 
BRANCH   7  15
ATOM     15  O   UNL     1       6.213   3.619  13.754  0.00  0.00    +0.000 OA
BRANCH  15  17
ATOM     16  C   UNL     1       7.115   4.634  11.707  0.00  0.00    +0.000 C 
ATOM     17  C   UNL     1       6.179   3.582  12.309  0.00  0.00    +0.000 C 
ATOM     18  C   UNL     1       4.747   3.723  11.786  0.00  0.00    +0.000 C 
ATOM     19  C   UNL     1       6.696   2.179  11.959  0.00  0.00    +0.000 C 
ENDBRANCH  15  17
ENDBRANCH   7  15
ENDBRANCH   1  11
BRANCH   6  20
ATOM     20  O   UNL     1       2.306   5.762  17.911  0.00  0.00    +0.000 OA
BRANCH  20  21
ATOM     21  C   UNL     1       2.601   6.803  18.897  0.00  0.00    +0.000 C 
ATOM     22  C   UNL     1       1.904   8.172  18.644  0.00  0.00    +0.000 C 
ATOM     23  N   UNL     1       1.563   8.196  20.047  0.00  0.00    +0.000 N 
ATOM     24  C   UNL     1       1.073   9.138  20.919  0.00  0.00    +0.000 C 
ATOM     25  O   UNL     1       0.864   8.841  22.099  0.00  0.00    +0.000 OA
ATOM     26  C   UNL     1       1.896   6.798  20.277  0.00  0.00    +0.000 C 
BRANCH  24  27
ATOM     27  C   UNL     1       0.797  10.491  20.438  0.00  0.00    +0.000 A 
ATOM     28  N   UNL     1      -0.104  10.871  19.545  0.00  0.00    +0.000 NA
ATOM     29  C   UNL     1       0.054  12.239  19.411  0.00  0.00    +0.000 A 
ATOM     30  C   UNL     1      -0.631  13.161  18.602  0.00  0.00    +0.000 A 
ATOM     31  C   UNL     1      -0.260  14.514  18.646  0.00  0.00    +0.000 A 
ATOM     32  C   UNL     1       0.773  14.946  19.482  0.00  0.00    +0.000 A 
ATOM     33  C   UNL     1       1.458  14.046  20.309  0.00  0.00    +0.000 A 
ATOM     34  C   UNL     1       1.067  12.704  20.244  0.00  0.00    +0.000 A 
ATOM     35  N   UNL     1       1.507  11.583  20.890  0.00  0.00    +0.000 N 
ATOM     36  H   UNL     1       2.244  11.532  21.580  0.00  0.00    +0.000 HD
ENDBRANCH  24  27
ENDBRANCH  20  21
ENDBRANCH   6  20
TORSDOF 6
ENDMDL
MODEL 4
REMARK VINA RESULT:      -9.2      1.643      2.023
REMARK  Name = 
REMARK  9 active torsions:
REMARK  status: ('A' for Active; 'I' for Inactive)
REMARK    1  A    between atoms: C_1  and  C_2
REMARK    2  A    between atoms: C_2  and  C_3
REMARK    3  A    between atoms: C_2  and  C_4
REMARK    4  A    between atoms: C_2  and  O_5
REMARK    5  A    between atoms: O_5  and  C_6
REMARK    6  A    between atoms: C_10  and  C_11
REMARK    7  A    between atoms: C_16  and  O_17
REMARK    8  A    between atoms: O_17  and  C_18
REMARK    9  A    between atoms: C_21  and  C_23
REMARK                            x       y       z     vdW  Elec       q    Type
REMARK                         _______ _______ _______ _____ _____    ______ ____
ROOT
ATOM      1  C   UNL     1       4.139   3.616  18.262  0.00  0.00    +0.000 A 
ATOM      2  N   UNL     1       3.988   2.312  17.876  0.00  0.00    +0.000 NA
ATOM      3  C   UNL     1       2.993   1.597  18.429  0.00  0.00    +0.000 A 
ATOM      4  C   UNL     1       2.142   2.140  19.366  0.00  0.00    +0.000 A 
ATOM      5  N   UNL     1       2.249   3.419  19.782  0.00  0.00    +0.000 NA
ATOM      6  C   UNL     1       3.246   4.157  19.223  0.00  0.00    +0.000 A 
ENDROOT
BRANCH   1  11
ATOM      7  C   UNL     1       7.071   4.677  14.393  0.00  0.00    +0.000 C 
ATOM      8  O   UNL     1       7.877   5.396  13.816  0.00  0.00    +0.000 OA
ATOM      9  N   UNL     1       6.661   4.870  15.713  0.00  0.00    +0.000 N 
ATOM     10  C   UNL     1       5.640   4.137  16.312  0.00  0.00    +0.000 C 
ATOM     11  C   UNL     1       5.339   4.243  17.616  0.00  0.00    +0.000 C 
ATOM     12  C   UNL     1       6.231   5.076  18.539  0.00  0.00    +0.000 C 
ATOM     13  C   UNL     1       7.439   5.740  17.873  0.00  0.00    +0.000 C 
ATOM     14  C   UNL     1       7.167   6.045  16.416  0.00  0.00    +0.000 C 
BRANCH   7  15
ATOM     15  O   UNL     1       6.472   3.595  13.826  0.00  0.00    +0.000 OA
BRANCH  15  17
ATOM     16  C   UNL     1       4.772   3.849  12.073  0.00  0.00    +0.000 C 
ATOM     17  C   UNL     1       6.231   3.527  12.403  0.00  0.00    +0.000 C 
ATOM     18  C   UNL     1       6.662   2.172  11.834  0.00  0.00    +0.000 C 
ATOM     19  C   UNL     1       7.140   4.618  11.816  0.00  0.00    +0.000 C 
ENDBRANCH  15  17
ENDBRANCH   7  15
ENDBRANCH   1  11
BRANCH   6  20
ATOM     20  O   UNL     1       3.286   5.487  19.603  0.00  0.00    +0.000 OA
BRANCH  20  21
ATOM     21  C   UNL     1       2.348   6.400  18.949  0.00  0.00    +0.000 C 
ATOM     22  C   UNL     1       1.715   7.478  19.876  0.00  0.00    +0.000 C 
ATOM     23  N   UNL     1       1.987   8.450  18.843  0.00  0.00    +0.000 N 
ATOM     24  C   UNL     1       1.614   9.749  18.598  0.00  0.00    +0.000 C 
ATOM     25  O   UNL     1       2.041  10.339  17.601  0.00  0.00    +0.000 OA
ATOM     26  C   UNL     1       2.872   7.576  18.085  0.00  0.00    +0.000 C 
BRANCH  24  27
ATOM     27  C   UNL     1       0.716  10.428  19.531  0.00  0.00    +0.000 A 
ATOM     28  N   UNL     1       0.807  10.494  20.850  0.00  0.00    +0.000 NA
ATOM     29  C   UNL     1      -0.297  11.216  21.267  0.00  0.00    +0.000 A 
ATOM     30  C   UNL     1      -0.708  11.587  22.558  0.00  0.00    +0.000 A 
ATOM     31  C   UNL     1      -1.895  12.322  22.710  0.00  0.00    +0.000 A 
ATOM     32  C   UNL     1      -2.660  12.684  21.599  0.00  0.00    +0.000 A 
ATOM     33  C   UNL     1      -2.259  12.337  20.302  0.00  0.00    +0.000 A 
ATOM     34  C   UNL     1      -1.073  11.606  20.180  0.00  0.00    +0.000 A 
ATOM     35  N   UNL     1      -0.402  11.109  19.098  0.00  0.00    +0.000 N 
ATOM     36  H   UNL     1      -0.671  11.196  18.127  0.00  0.00    +0.000 HD
ENDBRANCH  24  27
ENDBRANCH  20  21
ENDBRANCH   6  20
TORSDOF 6
ENDMDL
MODEL 5
REMARK VINA RESULT:      -9.1      1.578      2.162
REMARK  Name = 
REMARK  9 active torsions:
REMARK  status: ('A' for Active; 'I' for Inactive)
REMARK    1  A    between atoms: C_1  and  C_2
REMARK    2  A    between atoms: C_2  and  C_3
REMARK    3  A    between atoms: C_2  and  C_4
REMARK    4  A    between atoms: C_2  and  O_5
REMARK    5  A    between atoms: O_5  and  C_6
REMARK    6  A    between atoms: C_10  and  C_11
REMARK    7  A    between atoms: C_16  and  O_17
REMARK    8  A    between atoms: O_17  and  C_18
REMARK    9  A    between atoms: C_21  and  C_23
REMARK                            x       y       z     vdW  Elec       q    Type
REMARK                         _______ _______ _______ _____ _____    ______ ____
ROOT
ATOM      1  C   UNL     1       3.941   3.699  18.214  0.00  0.00    +0.000 A 
ATOM      2  N   UNL     1       3.747   2.398  17.837  0.00  0.00    +0.000 NA
ATOM      3  C   UNL     1       2.706   1.732  18.364  0.00  0.00    +0.000 A 
ATOM      4  C   UNL     1       1.847   2.321  19.266  0.00  0.00    +0.000 A 
ATOM      5  N   UNL     1       1.994   3.600  19.672  0.00  0.00    +0.000 NA
ATOM      6  C   UNL     1       3.040   4.289  19.138  0.00  0.00    +0.000 A 
ENDROOT
BRANCH   1  11
ATOM      7  C   UNL     1       7.006   4.651  14.421  0.00  0.00    +0.000 C 
ATOM      8  O   UNL     1       7.862   5.333  13.870  0.00  0.00    +0.000 OA
ATOM      9  N   UNL     1       6.580   4.848  15.735  0.00  0.00    +0.000 N 
ATOM     10  C   UNL     1       5.508   4.165  16.302  0.00  0.00    +0.000 C 
ATOM     11  C   UNL     1       5.186   4.268  17.602  0.00  0.00    +0.000 C 
ATOM     12  C   UNL     1       6.104   5.037  18.555  0.00  0.00    +0.000 C 
ATOM     13  C   UNL     1       7.360   5.641  17.923  0.00  0.00    +0.000 C 
ATOM     14  C   UNL     1       7.136   5.982  16.466  0.00  0.00    +0.000 C 
BRANCH   7  15
ATOM     15  O   UNL     1       6.360   3.614  13.825  0.00  0.00    +0.000 OA
BRANCH  15  17
ATOM     16  C   UNL     1       7.119   4.528  11.676  0.00  0.00    +0.000 C 
ATOM     17  C   UNL     1       6.168   3.567  12.393  0.00  0.00    +0.000 C 
ATOM     18  C   UNL     1       4.705   3.826  12.023  0.00  0.00    +0.000 C 
ATOM     19  C   UNL     1       6.523   2.121  12.015  0.00  0.00    +0.000 C 
ENDBRANCH  15  17
ENDBRANCH   7  15
ENDBRANCH   1  11
BRANCH   6  20
ATOM     20  O   UNL     1       3.123   5.621  19.506  0.00  0.00    +0.000 OA
BRANCH  20  21
ATOM     21  C   UNL     1       2.331   6.580  18.735  0.00  0.00    +0.000 C 
ATOM     22  C   UNL     1       1.555   7.631  19.581  0.00  0.00    +0.000 C 
ATOM     23  N   UNL     1       2.022   8.639  18.658  0.00  0.00    +0.000 N 
ATOM     24  C   UNL     1       1.716   9.955  18.409  0.00  0.00    +0.000 C 
ATOM     25  O   UNL     1       2.323  10.577  17.532  0.00  0.00    +0.000 OA
ATOM     26  C   UNL     1       3.017   7.779  18.033  0.00  0.00    +0.000 C 
BRANCH  24  27
ATOM     27  C   UNL     1       0.673  10.613  19.195  0.00  0.00    +0.000 A 
ATOM     28  N   UNL     1      -0.523  11.014  18.789  0.00  0.00    +0.000 NA
ATOM     29  C   UNL     1      -1.113  11.606  19.891  0.00  0.00    +0.000 A 
ATOM     30  C   UNL     1      -2.376  12.205  20.036  0.00  0.00    +0.000 A 
ATOM     31  C   UNL     1      -2.732  12.751  21.280  0.00  0.00    +0.000 A 
ATOM     32  C   UNL     1      -1.850  12.701  22.363  0.00  0.00    +0.000 A 
ATOM     33  C   UNL     1      -0.594  12.094  22.243  0.00  0.00    +0.000 A 
ATOM     34  C   UNL     1      -0.265  11.558  20.993  0.00  0.00    +0.000 A 
ATOM     35  N   UNL     1       0.847  10.914  20.529  0.00  0.00    +0.000 N 
ATOM     36  H   UNL     1       1.683  10.696  21.053  0.00  0.00    +0.000 HD
ENDBRANCH  24  27
ENDBRANCH  20  21
ENDBRANCH   6  20
TORSDOF 6
ENDMDL
MODEL 6
REMARK VINA RESULT:      -9.1      1.564      2.004
REMARK  Name = 
REMARK  9 active torsions:
REMARK  status: ('A' for Active; 'I' for Inactive)
REMARK    1  A    between atoms: C_1  and  C_2
REMARK    2  A    between atoms: C_2  and  C_3
REMARK    3  A    between atoms: C_2  and  C_4
REMARK    4  A    between atoms: C_2  and  O_5
REMARK    5  A    between atoms: O_5  and  C_6
REMARK    6  A    between atoms: C_10  and  C_11
REMARK    7  A    between atoms: C_16  and  O_17
REMARK    8  A    between atoms: O_17  and  C_18
REMARK    9  A    between atoms: C_21  and  C_23
REMARK                            x       y       z     vdW  Elec       q    Type
REMARK                         _______ _______ _______ _____ _____    ______ ____
ROOT
ATOM      1  C   UNL     1       3.741   3.674  18.176  0.00  0.00    +0.000 A 
ATOM      2  N   UNL     1       3.493   2.373  17.832  0.00  0.00    +0.000 NA
ATOM      3  C   UNL     1       2.405   1.776  18.348  0.00  0.00    +0.000 A 
ATOM      4  C   UNL     1       1.552   2.435  19.206  0.00  0.00    +0.000 A 
ATOM      5  N   UNL     1       1.752   3.717  19.578  0.00  0.00    +0.000 NA
ATOM      6  C   UNL     1       2.846   4.336  19.055  0.00  0.00    +0.000 A 
ENDROOT
BRANCH   1  11
ATOM      7  C   UNL     1       6.847   4.591  14.407  0.00  0.00    +0.000 C 
ATOM      8  O   UNL     1       7.761   5.223  13.892  0.00  0.00    +0.000 OA
ATOM      9  N   UNL     1       6.457   4.734  15.739  0.00  0.00    +0.000 N 
ATOM     10  C   UNL     1       5.328   4.120  16.275  0.00  0.00    +0.000 C 
ATOM     11  C   UNL     1       5.031   4.161  17.584  0.00  0.00    +0.000 C 
ATOM     12  C   UNL     1       6.029   4.766  18.573  0.00  0.00    +0.000 C 
ATOM     13  C   UNL     1       7.333   5.288  17.964  0.00  0.00    +0.000 C 
ATOM     14  C   UNL     1       7.129   5.753  16.539  0.00  0.00    +0.000 C 
BRANCH   7  15
ATOM     15  O   UNL     1       6.097   3.667  13.751  0.00  0.00    +0.000 OA
BRANCH  15  17
ATOM     16  C   UNL     1       7.079   4.581  11.694  0.00  0.00    +0.000 C 
ATOM     17  C   UNL     1       6.086   3.590  12.308  0.00  0.00    +0.000 C 
ATOM     18  C   UNL     1       4.671   3.781  11.754  0.00  0.00    +0.000 C 
ATOM     19  C   UNL     1       6.544   2.155  12.006  0.00  0.00    +0.000 C 
ENDBRANCH  15  17
ENDBRANCH   7  15
ENDBRANCH   1  11
BRANCH   6  20
ATOM     20  O   UNL     1       2.986   5.673  19.385  0.00  0.00    +0.000 OA
BRANCH  20  21
ATOM     21  C   UNL     1       2.339   6.651  18.510  0.00  0.00    +0.000 C 
ATOM     22  C   UNL     1       1.470   7.719  19.236  0.00  0.00    +0.000 C 
ATOM     23  N   UNL     1       2.091   8.717  18.398  0.00  0.00    +0.000 N 
ATOM     24  C   UNL     1       1.856  10.040  18.113  0.00  0.00    +0.000 C 
ATOM     25  O   UNL     1       2.600  10.649  17.338  0.00  0.00    +0.000 OA
ATOM     26  C   UNL     1       3.148   7.835  17.923  0.00  0.00    +0.000 C 
BRANCH  24  27
ATOM     27  C   UNL     1       0.723  10.721  18.738  0.00  0.00    +0.000 A 
ATOM     28  N   UNL     1       0.681  11.317  19.920  0.00  0.00    +0.000 NA
ATOM     29  C   UNL     1      -0.617  11.774  20.063  0.00  0.00    +0.000 A 
ATOM     30  C   UNL     1      -1.225  12.473  21.120  0.00  0.00    +0.000 A 
ATOM     31  C   UNL     1      -2.584  12.813  21.018  0.00  0.00    +0.000 A 
ATOM     32  C   UNL     1      -3.326  12.467  19.886  0.00  0.00    +0.000 A 
ATOM     33  C   UNL     1      -2.735  11.784  18.816  0.00  0.00    +0.000 A 
ATOM     34  C   UNL     1      -1.380  11.458  18.944  0.00  0.00    +0.000 A 
ATOM     35  N   UNL     1      -0.505  10.808  18.118  0.00  0.00    +0.000 N 
ATOM     36  H   UNL     1      -0.706  10.427  17.204  0.00  0.00    +0.000 HD
ENDBRANCH  24  27
ENDBRANCH  20  21
ENDBRANCH   6  20
TORSDOF 6
ENDMDL
MODEL 7
REMARK VINA RESULT:      -8.9      5.429      8.047
REMARK  Name = 
REMARK  9 active torsions:
REMARK  status: ('A' for Active; 'I' for Inactive)
REMARK    1  A    between atoms: C_1  and  C_2
REMARK    2  A    between atoms: C_2  and  C_3
REMARK    3  A    between atoms: C_2  and  C_4
REMARK    4  A    between atoms: C_2  and  O_5
REMARK    5  A    between atoms: O_5  and  C_6
REMARK    6  A    between atoms: C_10  and  C_11
REMARK    7  A    between atoms: C_16  and  O_17
REMARK    8  A    between atoms: O_17  and  C_18
REMARK    9  A    between atoms: C_21  and  C_23
REMARK                            x       y       z     vdW  Elec       q    Type
REMARK                         _______ _______ _______ _____ _____    ______ ____
ROOT
ATOM      1  C   UNL     1       5.413   6.148  17.096  0.00  0.00    +0.000 A 
ATOM      2  N   UNL     1       5.341   4.947  16.443  0.00  0.00    +0.000 NA
ATOM      3  C   UNL     1       6.412   4.541  15.740  0.00  0.00    +0.000 A 
ATOM      4  C   UNL     1       7.559   5.299  15.660  0.00  0.00    +0.000 A 
ATOM      5  N   UNL     1       7.682   6.490  16.284  0.00  0.00    +0.000 NA
ATOM      6  C   UNL     1       6.607   6.909  17.007  0.00  0.00    +0.000 A 
ENDROOT
BRANCH   1  11
ATOM      7  C   UNL     1       1.955   5.666  20.631  0.00  0.00    +0.000 C 
ATOM      8  O   UNL     1       1.048   6.115  21.322  0.00  0.00    +0.000 OA
ATOM      9  N   UNL     1       2.525   6.348  19.555  0.00  0.00    +0.000 N 
ATOM     10  C   UNL     1       3.647   5.893  18.870  0.00  0.00    +0.000 C 
ATOM     11  C   UNL     1       4.112   6.489  17.760  0.00  0.00    +0.000 C 
ATOM     12  C   UNL     1       3.312   7.621  17.111  0.00  0.00    +0.000 C 
ATOM     13  C   UNL     1       1.999   7.988  17.806  0.00  0.00    +0.000 C 
ATOM     14  C   UNL     1       2.063   7.707  19.292  0.00  0.00    +0.000 C 
BRANCH   7  15
ATOM     15  O   UNL     1       2.522   4.444  20.819  0.00  0.00    +0.000 OA
BRANCH  15  17
ATOM     16  C   UNL     1       2.853   2.303  19.662  0.00  0.00    +0.000 C 
ATOM     17  C   UNL     1       1.869   3.234  20.376  0.00  0.00    +0.000 C 
ATOM     18  C   UNL     1       0.648   3.550  19.507  0.00  0.00    +0.000 C 
ATOM     19  C   UNL     1       1.389   2.569  21.675  0.00  0.00    +0.000 C 
ENDBRANCH  15  17
ENDBRANCH   7  15
ENDBRANCH   1  11
BRANCH   6  20
ATOM     20  O   UNL     1       6.784   8.092  17.703  0.00  0.00    +0.000 OA
BRANCH  20  21
ATOM     21  C   UNL     1       8.133   8.658  17.731  0.00  0.00    +0.000 C 
ATOM     22  C   UNL     1       8.205  10.208  17.609  0.00  0.00    +0.000 C 
ATOM     23  N   UNL     1       9.157  10.196  18.695  0.00  0.00    +0.000 N 
ATOM     24  C   UNL     1      10.019  11.109  19.251  0.00  0.00    +0.000 C 
ATOM     25  O   UNL     1      10.720  10.791  20.217  0.00  0.00    +0.000 OA
ATOM     26  C   UNL     1       8.890   8.815  19.074  0.00  0.00    +0.000 C 
BRANCH  24  27
ATOM     27  C   UNL     1      10.096  12.459  18.694  0.00  0.00    +0.000 A 
ATOM     28  N   UNL     1      11.001  12.947  17.860  0.00  0.00    +0.000 NA
ATOM     29  C   UNL     1      10.655  14.272  17.664  0.00  0.00    +0.000 A 
ATOM     30  C   UNL     1      11.263  15.266  16.880  0.00  0.00    +0.000 A 
ATOM     31  C   UNL     1      10.710  16.557  16.866  0.00  0.00    +0.000 A 
ATOM     32  C   UNL     1       9.570  16.855  17.616  0.00  0.00    +0.000 A 
ATOM     33  C   UNL     1       8.939  15.874  18.393  0.00  0.00    +0.000 A 
ATOM     34  C   UNL     1       9.512  14.598  18.388  0.00  0.00    +0.000 A 
ATOM     35  N   UNL     1       9.173  13.431  19.015  0.00  0.00    +0.000 N 
ATOM     36  H   UNL     1       8.387  13.284  19.634  0.00  0.00    +0.000 HD
ENDBRANCH  24  27
ENDBRANCH  20  21
ENDBRANCH   6  20
TORSDOF 6
ENDMDL
MODEL 8
REMARK VINA RESULT:      -8.8      1.786      2.039
REMARK  Name = 
REMARK  9 active torsions:
REMARK  status: ('A' for Active; 'I' for Inactive)
REMARK    1  A    between atoms: C_1  and  C_2
REMARK    2  A    between atoms: C_2  and  C_3
REMARK    3  A    between atoms: C_2  and  C_4
REMARK    4  A    between atoms: C_2  and  O_5
REMARK    5  A    between atoms: O_5  and  C_6
REMARK    6  A    between atoms: C_10  and  C_11
REMARK    7  A    between atoms: C_16  and  O_17
REMARK    8  A    between atoms: O_17  and  C_18
REMARK    9  A    between atoms: C_21  and  C_23
REMARK                            x       y       z     vdW  Elec       q    Type
REMARK                         _______ _______ _______ _____ _____    ______ ____
ROOT
ATOM      1  C   UNL     1       3.639   4.151  17.988  0.00  0.00    +0.000 A 
ATOM      2  N   UNL     1       3.340   2.890  17.549  0.00  0.00    +0.000 NA
ATOM      3  C   UNL     1       2.205   2.317  17.986  0.00  0.00    +0.000 A 
ATOM      4  C   UNL     1       1.354   2.961  18.856  0.00  0.00    +0.000 A 
ATOM      5  N   UNL     1       1.602   4.204  19.320  0.00  0.00    +0.000 NA
ATOM      6  C   UNL     1       2.745   4.799  18.878  0.00  0.00    +0.000 A 
ENDROOT
BRANCH   1  11
ATOM      7  C   UNL     1       7.112   4.697  14.478  0.00  0.00    +0.000 C 
ATOM      8  O   UNL     1       8.061   5.293  13.982  0.00  0.00    +0.000 OA
ATOM      9  N   UNL     1       6.575   4.995  15.731  0.00  0.00    +0.000 N 
ATOM     10  C   UNL     1       5.411   4.411  16.222  0.00  0.00    +0.000 C 
ATOM     11  C   UNL     1       4.972   4.608  17.475  0.00  0.00    +0.000 C 
ATOM     12  C   UNL     1       5.840   5.375  18.474  0.00  0.00    +0.000 C 
ATOM     13  C   UNL     1       7.189   5.867  17.942  0.00  0.00    +0.000 C 
ATOM     14  C   UNL     1       7.129   6.135  16.454  0.00  0.00    +0.000 C 
BRANCH   7  15
ATOM     15  O   UNL     1       6.462   3.666  13.875  0.00  0.00    +0.000 OA
BRANCH  15  17
ATOM     16  C   UNL     1       6.768   2.258  11.887  0.00  0.00    +0.000 C 
ATOM     17  C   UNL     1       6.307   3.609  12.439  0.00  0.00    +0.000 C 
ATOM     18  C   UNL     1       7.022   4.780  11.759  0.00  0.00    +0.000 C 
ATOM     19  C   UNL     1       4.794   3.762  12.220  0.00  0.00    +0.000 C 
ENDBRANCH  15  17
ENDBRANCH   7  15
ENDBRANCH   1  11
BRANCH   6  20
ATOM     20  O   UNL     1       2.937   6.103  19.302  0.00  0.00    +0.000 OA
BRANCH  20  21
ATOM     21  C   UNL     1       2.044   7.125  18.755  0.00  0.00    +0.000 C 
ATOM     22  C   UNL     1       1.326   8.013  19.812  0.00  0.00    +0.000 C 
ATOM     23  N   UNL     1       1.669   9.159  19.003  0.00  0.00    +0.000 N 
ATOM     24  C   UNL     1       1.302  10.482  18.975  0.00  0.00    +0.000 C 
ATOM     25  O   UNL     1       1.799  11.246  18.142  0.00  0.00    +0.000 OA
ATOM     26  C   UNL     1       2.621   8.439  18.170  0.00  0.00    +0.000 C 
BRANCH  24  27
ATOM     27  C   UNL     1       0.323  10.980  19.942  0.00  0.00    +0.000 A 
ATOM     28  N   UNL     1       0.343  10.853  21.260  0.00  0.00    +0.000 NA
ATOM     29  C   UNL     1      -0.816  11.460  21.712  0.00  0.00    +0.000 A 
ATOM     30  C   UNL     1      -1.311  11.620  23.017  0.00  0.00    +0.000 A 
ATOM     31  C   UNL     1      -2.539  12.274  23.204  0.00  0.00    +0.000 A 
ATOM     32  C   UNL     1      -3.262  12.764  22.114  0.00  0.00    +0.000 A 
ATOM     33  C   UNL     1      -2.778  12.629  20.806  0.00  0.00    +0.000 A 
ATOM     34  C   UNL     1      -1.552  11.973  20.650  0.00  0.00    +0.000 A 
ATOM     35  N   UNL     1      -0.803  11.669  19.548  0.00  0.00    +0.000 N 
ATOM     36  H   UNL     1      -1.025  11.888  18.586  0.00  0.00    +0.000 HD
ENDBRANCH  24  27
ENDBRANCH  20  21
ENDBRANCH   6  20
TORSDOF 6
ENDMDL
MODEL 9
REMARK VINA RESULT:      -8.8      4.582     12.011
REMARK  Name = 
REMARK  9 active torsions:
REMARK  status: ('A' for Active; 'I' for Inactive)
REMARK    1  A    between atoms: C_1  and  C_2
REMARK    2  A    between atoms: C_2  and  C_3
REMARK    3  A    between atoms: C_2  and  C_4
REMARK    4  A    between atoms: C_2  and  O_5
REMARK    5  A    between atoms: O_5  and  C_6
REMARK    6  A    between atoms: C_10  and  C_11
REMARK    7  A    between atoms: C_16  and  O_17
REMARK    8  A    between atoms: O_17  and  C_18
REMARK    9  A    between atoms: C_21  and  C_23
REMARK                            x       y       z     vdW  Elec       q    Type
REMARK                         _______ _______ _______ _____ _____    ______ ____
ROOT
ATOM      1  C   UNL     1      -4.153  11.663  18.378  0.00  0.00    +0.000 A 
ATOM      2  N   UNL     1      -4.819  11.295  17.241  0.00  0.00    +0.000 NA
ATOM      3  C   UNL     1      -4.100  11.060  16.130  0.00  0.00    +0.000 A 
ATOM      4  C   UNL     1      -2.728  11.186  16.113  0.00  0.00    +0.000 A 
ATOM      5  N   UNL     1      -2.023  11.548  17.206  0.00  0.00    +0.000 NA
ATOM      6  C   UNL     1      -2.739  11.780  18.340  0.00  0.00    +0.000 A 
ENDROOT
BRANCH   1  11
ATOM      7  C   UNL     1      -5.623  14.133  22.431  0.00  0.00    +0.000 C 
ATOM      8  O   UNL     1      -6.496  14.569  23.171  0.00  0.00    +0.000 OA
ATOM      9  N   UNL     1      -5.868  13.267  21.365  0.00  0.00    +0.000 N 
ATOM     10  C   UNL     1      -4.893  12.894  20.444  0.00  0.00    +0.000 C 
ATOM     11  C   UNL     1      -5.104  11.965  19.498  0.00  0.00    +0.000 C 
ATOM     12  C   UNL     1      -6.404  11.158  19.500  0.00  0.00    +0.000 C 
ATOM     13  C   UNL     1      -7.387  11.487  20.626  0.00  0.00    +0.000 C 
ATOM     14  C   UNL     1      -7.256  12.928  21.070  0.00  0.00    +0.000 C 
BRANCH   7  15
ATOM     15  O   UNL     1      -4.302  14.432  22.553  0.00  0.00    +0.000 OA
BRANCH  15  17
ATOM     16  C   UNL     1      -2.072  13.702  23.277  0.00  0.00    +0.000 C 
ATOM     17  C   UNL     1      -3.525  13.967  23.680  0.00  0.00    +0.000 C 
ATOM     18  C   UNL     1      -4.172  12.740  24.329  0.00  0.00    +0.000 C 
ATOM     19  C   UNL     1      -3.575  15.134  24.677  0.00  0.00    +0.000 C 
ENDBRANCH  15  17
ENDBRANCH   7  15
ENDBRANCH   1  11
BRANCH   6  20
ATOM     20  O   UNL     1      -1.990  12.068  19.467  0.00  0.00    +0.000 OA
BRANCH  20  21
ATOM     21  C   UNL     1      -1.592  10.943  20.315  0.00  0.00    +0.000 C 
ATOM     22  C   UNL     1      -0.645   9.908  19.641  0.00  0.00    +0.000 C 
ATOM     23  N   UNL     1       0.152   9.934  20.846  0.00  0.00    +0.000 N 
ATOM     24  C   UNL     1       1.175   9.175  21.359  0.00  0.00    +0.000 C 
ATOM     25  O   UNL     1       1.679   9.469  22.447  0.00  0.00    +0.000 OA
ATOM     26  C   UNL     1      -0.490  11.122  21.389  0.00  0.00    +0.000 C 
BRANCH  24  27
ATOM     27  C   UNL     1       1.665   8.022  20.605  0.00  0.00    +0.000 A 
ATOM     28  N   UNL     1       2.188   8.006  19.387  0.00  0.00    +0.000 NA
ATOM     29  C   UNL     1       2.459   6.677  19.114  0.00  0.00    +0.000 A 
ATOM     30  C   UNL     1       3.015   6.078  17.971  0.00  0.00    +0.000 A 
ATOM     31  C   UNL     1       3.175   4.683  17.943  0.00  0.00    +0.000 A 
ATOM     32  C   UNL     1       2.792   3.897  19.032  0.00  0.00    +0.000 A 
ATOM     33  C   UNL     1       2.250   4.476  20.187  0.00  0.00    +0.000 A 
ATOM     34  C   UNL     1       2.103   5.867  20.187  0.00  0.00    +0.000 A 
ATOM     35  N   UNL     1       1.619   6.744  21.119  0.00  0.00    +0.000 N 
ATOM     36  H   UNL     1       1.263   6.515  22.037  0.00  0.00    +0.000 HD
ENDBRANCH  24  27
ENDBRANCH  20  21
ENDBRANCH   6  20
TORSDOF 6
ENDMDL
