MODEL 1
REMARK VINA RESULT:      -7.5      0.000      0.000
REMARK  Name = 
REMARK  2 active torsions:
REMARK  status: ('A' for Active; 'I' for Inactive)
REMARK    1  A    between atoms: N_17  and  C_18
REMARK    2  A    between atoms: C_18  and  C_19
REMARK                            x       y       z     vdW  Elec       q    Type
REMARK                         _______ _______ _______ _____ _____    ______ ____
ROOT
ATOM      1  O   UNL     1      -2.841  11.227  15.917  0.00  0.00    +0.000 OA
ATOM      2  C   UNL     1      -2.355  11.538  16.984  0.00  0.00    +0.000 C 
ATOM      3  C   UNL     1      -2.721  10.966  18.316  0.00  0.00    +0.000 C 
ATOM      4  C   UNL     1      -1.979  11.834  19.351  0.00  0.00    +0.000 C 
ATOM      5  C   UNL     1      -1.231  12.831  18.454  0.00  0.00    +0.000 C 
ATOM      6  O   UNL     1      -0.629  13.838  18.801  0.00  0.00    +0.000 OA
ATOM      7  N   UNL     1      -1.416  12.500  17.148  0.00  0.00    +0.000 N 
ATOM      8  C   UNL     1      -2.874  12.587  20.331  0.00  0.00    +0.000 A 
ATOM      9  C   UNL     1      -4.120  13.152  20.099  0.00  0.00    +0.000 A 
ATOM     10  C   UNL     1      -4.842  13.654  21.189  0.00  0.00    +0.000 A 
ATOM     11  C   UNL     1      -4.327  13.602  22.496  0.00  0.00    +0.000 A 
ATOM     12  C   UNL     1      -3.059  13.083  22.732  0.00  0.00    +0.000 A 
ATOM     13  C   UNL     1      -2.356  12.619  21.637  0.00  0.00    +0.000 A 
ATOM     14  S   UNL     1      -0.817  11.810  21.730  0.00  0.00    +0.000 S 
ATOM     15  O   UNL     1       0.239  12.791  21.629  0.00  0.00    +0.000 OA
ATOM     16  O   UNL     1      -0.867  10.805  22.764  0.00  0.00    +0.000 OA
ATOM     17  N   UNL     1      -1.027  11.077  20.220  0.00  0.00    +0.000 NA
ATOM     18  H   UNL     1      -1.077  13.072  16.387  0.00  0.00    +0.000 HD
ENDROOT
BRANCH  17  19
ATOM     19  C   UNL     1      -0.696   9.676  20.088  0.00  0.00    +0.000 C 
BRANCH  19  20
ATOM     20  C   UNL     1       0.713   9.180  19.791  0.00  0.00    +0.000 A 
ATOM     21  C   UNL     1       1.077   9.327  18.446  0.00  0.00    +0.000 A 
ATOM     22  C   UNL     1       2.245   8.767  17.979  0.00  0.00    +0.000 A 
ATOM     23  C   UNL     1       2.499   7.519  18.502  0.00  0.00    +0.000 A 
ATOM     24  C   UNL     1       2.978   6.520  17.652  0.00  0.00    +0.000 A 
ATOM     25  C   UNL     1       3.239   5.257  18.159  0.00  0.00    +0.000 A 
ATOM     26  C   UNL     1       3.125   5.027  19.526  0.00  0.00    +0.000 A 
ATOM     27  C   UNL     1       2.666   6.038  20.386  0.00  0.00    +0.000 A 
ATOM     28  C   UNL     1       2.251   7.287  19.864  0.00  0.00    +0.000 A 
ATOM     29  C   UNL     1       1.521   8.303  20.544  0.00  0.00    +0.000 A 
ATOM     30 BR   UNL     1       1.961   8.598  22.365  0.00  0.00    +0.000 Br
ENDBRANCH  19  20
ENDBRANCH  17  19
TORSDOF 2
ENDMDL
MODEL 2
REMARK VINA RESULT:      -7.4      4.223      6.086
REMARK  Name = 
REMARK  2 active torsions:
REMARK  status: ('A' for Active; 'I' for Inactive)
REMARK    1  A    between atoms: N_17  and  C_18
REMARK    2  A    between atoms: C_18  and  C_19
REMARK                            x       y       z     vdW  Elec       q    Type
REMARK                         _______ _______ _______ _____ _____    ______ ____
ROOT
ATOM      1  O   UNL     1      -0.128  10.432  23.274  0.00  0.00    +0.000 OA
ATOM      2  C   UNL     1      -1.021  11.238  23.120  0.00  0.00    +0.000 C 
ATOM      3  C   UNL     1      -0.882  12.597  22.510  0.00  0.00    +0.000 C 
ATOM      4  C   UNL     1      -2.240  13.288  22.738  0.00  0.00    +0.000 C 
ATOM      5  C   UNL     1      -3.036  12.195  23.464  0.00  0.00    +0.000 C 
ATOM      6  O   UNL     1      -4.124  12.307  24.014  0.00  0.00    +0.000 OA
ATOM      7  N   UNL     1      -2.302  11.052  23.518  0.00  0.00    +0.000 N 
ATOM      8  C   UNL     1      -2.193  14.551  23.592  0.00  0.00    +0.000 A 
ATOM      9  C   UNL     1      -1.376  14.826  24.679  0.00  0.00    +0.000 A 
ATOM     10  C   UNL     1      -1.384  16.119  25.216  0.00  0.00    +0.000 A 
ATOM     11  C   UNL     1      -2.204  17.128  24.681  0.00  0.00    +0.000 A 
ATOM     12  C   UNL     1      -3.063  16.851  23.624  0.00  0.00    +0.000 A 
ATOM     13  C   UNL     1      -3.055  15.561  23.130  0.00  0.00    +0.000 A 
ATOM     14  S   UNL     1      -3.949  15.041  21.729  0.00  0.00    +0.000 S 
ATOM     15  O   UNL     1      -5.247  14.566  22.146  0.00  0.00    +0.000 OA
ATOM     16  O   UNL     1      -3.761  15.994  20.662  0.00  0.00    +0.000 OA
ATOM     17  N   UNL     1      -2.933  13.711  21.482  0.00  0.00    +0.000 NA
ATOM     18  H   UNL     1      -2.605  10.231  24.024  0.00  0.00    +0.000 HD
ENDROOT
BRANCH  17  19
ATOM     19  C   UNL     1      -2.485  13.432  20.137  0.00  0.00    +0.000 C 
BRANCH  19  20
ATOM     20  C   UNL     1      -2.785  12.124  19.415  0.00  0.00    +0.000 A 
ATOM     21  C   UNL     1      -1.649  11.326  19.229  0.00  0.00    +0.000 A 
ATOM     22  C   UNL     1      -1.717  10.198  18.440  0.00  0.00    +0.000 A 
ATOM     23  C   UNL     1      -2.483  10.370  17.309  0.00  0.00    +0.000 A 
ATOM     24  C   UNL     1      -2.022   9.843  16.101  0.00  0.00    +0.000 A 
ATOM     25  C   UNL     1      -2.777  10.004  14.950  0.00  0.00    +0.000 A 
ATOM     26  C   UNL     1      -4.034  10.594  15.031  0.00  0.00    +0.000 A 
ATOM     27  C   UNL     1      -4.509  11.104  16.250  0.00  0.00    +0.000 A 
ATOM     28  C   UNL     1      -3.687  11.082  17.403  0.00  0.00    +0.000 A 
ATOM     29  C   UNL     1      -3.901  11.785  18.623  0.00  0.00    +0.000 A 
ATOM     30 BR   UNL     1      -5.691  11.907  19.237  0.00  0.00    +0.000 Br
ENDBRANCH  19  20
ENDBRANCH  17  19
TORSDOF 2
ENDMDL
MODEL 3
REMARK VINA RESULT:      -7.2      4.200      7.429
REMARK  Name = 
REMARK  2 active torsions:
REMARK  status: ('A' for Active; 'I' for Inactive)
REMARK    1  A    between atoms: N_17  and  C_18
REMARK    2  A    between atoms: C_18  and  C_19
REMARK                            x       y       z     vdW  Elec       q    Type
REMARK                         _______ _______ _______ _____ _____    ______ ____
ROOT
ATOM      1  O   UNL     1       2.988  13.278  17.831  0.00  0.00    +0.000 OA
ATOM      2  C   UNL     1       2.026  13.249  18.569  0.00  0.00    +0.000 C 
ATOM      3  C   UNL     1       2.063  13.073  20.054  0.00  0.00    +0.000 C 
ATOM      4  C   UNL     1       0.593  12.896  20.481  0.00  0.00    +0.000 C 
ATOM      5  C   UNL     1      -0.145  13.015  19.141  0.00  0.00    +0.000 C 
ATOM      6  O   UNL     1      -1.324  12.778  18.916  0.00  0.00    +0.000 OA
ATOM      7  N   UNL     1       0.739  13.331  18.157  0.00  0.00    +0.000 N 
ATOM      8  C   UNL     1       0.262  11.561  21.140  0.00  0.00    +0.000 A 
ATOM      9  C   UNL     1       0.788  10.308  20.860  0.00  0.00    +0.000 A 
ATOM     10  C   UNL     1       0.462   9.239  21.703  0.00  0.00    +0.000 A 
ATOM     11  C   UNL     1      -0.386   9.412  22.811  0.00  0.00    +0.000 A 
ATOM     12  C   UNL     1      -0.958  10.652  23.072  0.00  0.00    +0.000 A 
ATOM     13  C   UNL     1      -0.642  11.684  22.210  0.00  0.00    +0.000 A 
ATOM     14  S   UNL     1      -1.139  13.337  22.435  0.00  0.00    +0.000 S 
ATOM     15  O   UNL     1      -2.400  13.547  21.763  0.00  0.00    +0.000 OA
ATOM     16  O   UNL     1      -0.897  13.728  23.802  0.00  0.00    +0.000 OA
ATOM     17  N   UNL     1       0.107  13.924  21.452  0.00  0.00    +0.000 NA
ATOM     18  H   UNL     1       0.477  13.378  17.181  0.00  0.00    +0.000 HD
ENDROOT
BRANCH  17  19
ATOM     19  C   UNL     1       0.856  15.073  21.910  0.00  0.00    +0.000 C 
BRANCH  19  20
ATOM     20  C   UNL     1       0.873  16.403  21.167  0.00  0.00    +0.000 A 
ATOM     21  C   UNL     1      -0.333  17.108  21.275  0.00  0.00    +0.000 A 
ATOM     22  C   UNL     1      -0.543  18.240  20.519  0.00  0.00    +0.000 A 
ATOM     23  C   UNL     1      -0.060  18.134  19.234  0.00  0.00    +0.000 A 
ATOM     24  C   UNL     1      -0.835  18.627  18.183  0.00  0.00    +0.000 A 
ATOM     25  C   UNL     1      -0.367  18.531  16.882  0.00  0.00    +0.000 A 
ATOM     26  C   UNL     1       0.915  18.044  16.647  0.00  0.00    +0.000 A 
ATOM     27  C   UNL     1       1.705  17.570  17.707  0.00  0.00    +0.000 A 
ATOM     28  C   UNL     1       1.184  17.521  19.022  0.00  0.00    +0.000 A 
ATOM     29  C   UNL     1       1.737  16.834  20.140  0.00  0.00    +0.000 A 
ATOM     30 BR   UNL     1       3.626  16.854  20.307  0.00  0.00    +0.000 Br
ENDBRANCH  19  20
ENDBRANCH  17  19
TORSDOF 2
ENDMDL
MODEL 4
REMARK VINA RESULT:      -7.1      2.214      7.030
REMARK  Name = 
REMARK  2 active torsions:
REMARK  status: ('A' for Active; 'I' for Inactive)
REMARK    1  A    between atoms: N_17  and  C_18
REMARK    2  A    between atoms: C_18  and  C_19
REMARK                            x       y       z     vdW  Elec       q    Type
REMARK                         _______ _______ _______ _____ _____    ______ ____
ROOT
ATOM      1  O   UNL     1      -0.475  13.726  17.774  0.00  0.00    +0.000 OA
ATOM      2  C   UNL     1      -0.502  12.675  18.380  0.00  0.00    +0.000 C 
ATOM      3  C   UNL     1       0.604  12.113  19.215  0.00  0.00    +0.000 C 
ATOM      4  C   UNL     1       0.153  10.687  19.585  0.00  0.00    +0.000 C 
ATOM      5  C   UNL     1      -1.222  10.601  18.906  0.00  0.00    +0.000 C 
ATOM      6  O   UNL     1      -1.920   9.607  18.761  0.00  0.00    +0.000 OA
ATOM      7  N   UNL     1      -1.541  11.807  18.364  0.00  0.00    +0.000 N 
ATOM      8  C   UNL     1       1.054   9.566  19.076  0.00  0.00    +0.000 A 
ATOM      9  C   UNL     1       1.763   9.504  17.885  0.00  0.00    +0.000 A 
ATOM     10  C   UNL     1       2.663   8.449  17.693  0.00  0.00    +0.000 A 
ATOM     11  C   UNL     1       2.851   7.459  18.673  0.00  0.00    +0.000 A 
ATOM     12  C   UNL     1       2.110   7.484  19.849  0.00  0.00    +0.000 A 
ATOM     13  C   UNL     1       1.209   8.520  20.002  0.00  0.00    +0.000 A 
ATOM     14  S   UNL     1       0.286   8.812  21.450  0.00  0.00    +0.000 S 
ATOM     15  O   UNL     1      -0.975   8.114  21.356  0.00  0.00    +0.000 OA
ATOM     16  O   UNL     1       1.155   8.722  22.598  0.00  0.00    +0.000 OA
ATOM     17  N   UNL     1       0.040  10.439  21.055  0.00  0.00    +0.000 NA
ATOM     18  H   UNL     1      -2.368  11.950  17.800  0.00  0.00    +0.000 HD
ENDROOT
BRANCH  17  19
ATOM     19  C   UNL     1       0.216  11.429  22.093  0.00  0.00    +0.000 C 
BRANCH  19  20
ATOM     20  C   UNL     1      -0.918  12.313  22.598  0.00  0.00    +0.000 A 
ATOM     21  C   UNL     1      -1.940  11.591  23.226  0.00  0.00    +0.000 A 
ATOM     22  C   UNL     1      -3.115  12.218  23.579  0.00  0.00    +0.000 A 
ATOM     23  C   UNL     1      -3.554  13.122  22.638  0.00  0.00    +0.000 A 
ATOM     24  C   UNL     1      -4.915  13.162  22.330  0.00  0.00    +0.000 A 
ATOM     25  C   UNL     1      -5.378  14.064  21.386  0.00  0.00    +0.000 A 
ATOM     26  C   UNL     1      -4.501  14.993  20.834  0.00  0.00    +0.000 A 
ATOM     27  C   UNL     1      -3.135  14.969  21.161  0.00  0.00    +0.000 A 
ATOM     28  C   UNL     1      -2.620  13.958  22.008  0.00  0.00    +0.000 A 
ATOM     29  C   UNL     1      -1.250  13.630  22.220  0.00  0.00    +0.000 A 
ATOM     30 BR   UNL     1      -0.028  15.077  22.300  0.00  0.00    +0.000 Br
ENDBRANCH  19  20
ENDBRANCH  17  19
TORSDOF 2
ENDMDL
MODEL 5
REMARK VINA RESULT:      -7.1      3.475      7.243
REMARK  Name = 
REMARK  2 active torsions:
REMARK  status: ('A' for Active; 'I' for Inactive)
REMARK    1  A    between atoms: N_17  and  C_18
REMARK    2  A    between atoms: C_18  and  C_19
REMARK                            x       y       z     vdW  Elec       q    Type
REMARK                         _______ _______ _______ _____ _____    ______ ____
ROOT
ATOM      1  O   UNL     1      -1.116   9.971  17.782  0.00  0.00    +0.000 OA
ATOM      2  C   UNL     1      -0.740  10.784  18.600  0.00  0.00    +0.000 C 
ATOM      3  C   UNL     1      -0.762  12.270  18.436  0.00  0.00    +0.000 C 
ATOM      4  C   UNL     1       0.006  12.827  19.651  0.00  0.00    +0.000 C 
ATOM      5  C   UNL     1       0.377  11.544  20.408  0.00  0.00    +0.000 C 
ATOM      6  O   UNL     1       1.139  11.435  21.359  0.00  0.00    +0.000 OA
ATOM      7  N   UNL     1      -0.192  10.470  19.798  0.00  0.00    +0.000 N 
ATOM      8  C   UNL     1       1.267  13.617  19.318  0.00  0.00    +0.000 A 
ATOM      9  C   UNL     1       2.175  13.398  18.291  0.00  0.00    +0.000 A 
ATOM     10  C   UNL     1       3.178  14.350  18.068  0.00  0.00    +0.000 A 
ATOM     11  C   UNL     1       3.283  15.504  18.863  0.00  0.00    +0.000 A 
ATOM     12  C   UNL     1       2.410  15.708  19.925  0.00  0.00    +0.000 A 
ATOM     13  C   UNL     1       1.446  14.742  20.141  0.00  0.00    +0.000 A 
ATOM     14  S   UNL     1       0.176  14.870  21.326  0.00  0.00    +0.000 S 
ATOM     15  O   UNL     1       0.627  14.286  22.568  0.00  0.00    +0.000 OA
ATOM     16  O   UNL     1      -0.427  16.178  21.240  0.00  0.00    +0.000 OA
ATOM     17  N   UNL     1      -0.795  13.747  20.516  0.00  0.00    +0.000 NA
ATOM     18  H   UNL     1      -0.010   9.519  20.086  0.00  0.00    +0.000 HD
ENDROOT
BRANCH  17  19
ATOM     19  C   UNL     1      -2.200  14.047  20.353  0.00  0.00    +0.000 C 
BRANCH  19  20
ATOM     20  C   UNL     1      -3.309  13.127  20.845  0.00  0.00    +0.000 A 
ATOM     21  C   UNL     1      -4.339  12.958  19.911  0.00  0.00    +0.000 A 
ATOM     22  C   UNL     1      -5.497  12.302  20.268  0.00  0.00    +0.000 A 
ATOM     23  C   UNL     1      -5.927  12.608  21.540  0.00  0.00    +0.000 A 
ATOM     24  C   UNL     1      -7.290  12.819  21.754  0.00  0.00    +0.000 A 
ATOM     25  C   UNL     1      -7.744  13.129  23.026  0.00  0.00    +0.000 A 
ATOM     26  C   UNL     1      -6.854  13.119  24.095  0.00  0.00    +0.000 A 
ATOM     27  C   UNL     1      -5.486  12.883  23.884  0.00  0.00    +0.000 A 
ATOM     28  C   UNL     1      -4.982  12.715  22.571  0.00  0.00    +0.000 A 
ATOM     29  C   UNL     1      -3.618  12.738  22.165  0.00  0.00    +0.000 A 
ATOM     30 BR   UNL     1      -2.365  11.925  23.333  0.00  0.00    +0.000 Br
ENDBRANCH  19  20
ENDBRANCH  17  19
TORSDOF 2
ENDMDL
MODEL 6
REMARK VINA RESULT:      -7.0      3.176      4.983
REMARK  Name = 
REMARK  2 active torsions:
REMARK  status: ('A' for Active; 'I' for Inactive)
REMARK    1  A    between atoms: N_17  and  C_18
REMARK    2  A    between atoms: C_18  and  C_19
REMARK                            x       y       z     vdW  Elec       q    Type
REMARK                         _______ _______ _______ _____ _____    ______ ____
ROOT
ATOM      1  O   UNL     1      -5.182  12.093  24.548  0.00  0.00    +0.000 OA
ATOM      2  C   UNL     1      -4.504  12.783  23.815  0.00  0.00    +0.000 C 
ATOM      3  C   UNL     1      -3.218  13.453  24.181  0.00  0.00    +0.000 C 
ATOM      4  C   UNL     1      -2.876  14.361  22.984  0.00  0.00    +0.000 C 
ATOM      5  C   UNL     1      -4.042  14.080  22.026  0.00  0.00    +0.000 C 
ATOM      6  O   UNL     1      -4.325  14.682  21.000  0.00  0.00    +0.000 OA
ATOM      7  N   UNL     1      -4.828  13.095  22.538  0.00  0.00    +0.000 N 
ATOM      8  C   UNL     1      -2.808  15.853  23.296  0.00  0.00    +0.000 A 
ATOM      9  C   UNL     1      -3.580  16.581  24.190  0.00  0.00    +0.000 A 
ATOM     10  C   UNL     1      -3.236  17.915  24.442  0.00  0.00    +0.000 A 
ATOM     11  C   UNL     1      -2.140  18.522  23.804  0.00  0.00    +0.000 A 
ATOM     12  C   UNL     1      -1.391  17.816  22.870  0.00  0.00    +0.000 A 
ATOM     13  C   UNL     1      -1.767  16.511  22.620  0.00  0.00    +0.000 A 
ATOM     14  S   UNL     1      -0.884  15.415  21.594  0.00  0.00    +0.000 S 
ATOM     15  O   UNL     1      -1.394  15.515  20.246  0.00  0.00    +0.000 OA
ATOM     16  O   UNL     1       0.520  15.485  21.915  0.00  0.00    +0.000 OA
ATOM     17  N   UNL     1      -1.565  14.055  22.334  0.00  0.00    +0.000 NA
ATOM     18  H   UNL     1      -5.697  12.810  22.106  0.00  0.00    +0.000 HD
ENDROOT
BRANCH  17  19
ATOM     19  C   UNL     1      -0.693  12.952  22.673  0.00  0.00    +0.000 C 
BRANCH  19  20
ATOM     20  C   UNL     1      -0.808  11.575  22.031  0.00  0.00    +0.000 A 
ATOM     21  C   UNL     1      -0.618  10.526  22.940  0.00  0.00    +0.000 A 
ATOM     22  C   UNL     1      -0.513   9.229  22.488  0.00  0.00    +0.000 A 
ATOM     23  C   UNL     1       0.217   9.114  21.327  0.00  0.00    +0.000 A 
ATOM     24  C   UNL     1       1.125   8.060  21.207  0.00  0.00    +0.000 A 
ATOM     25  C   UNL     1       1.870   7.925  20.047  0.00  0.00    +0.000 A 
ATOM     26  C   UNL     1       1.628   8.775  18.973  0.00  0.00    +0.000 A 
ATOM     27  C   UNL     1       0.698   9.821  19.083  0.00  0.00    +0.000 A 
ATOM     28  C   UNL     1       0.039  10.066  20.312  0.00  0.00    +0.000 A 
ATOM     29  C   UNL     1      -0.712  11.222  20.669  0.00  0.00    +0.000 A 
ATOM     30 BR   UNL     1      -1.792  11.992  19.314  0.00  0.00    +0.000 Br
ENDBRANCH  19  20
ENDBRANCH  17  19
TORSDOF 2
ENDMDL
MODEL 7
REMARK VINA RESULT:      -6.9      5.431      9.461
REMARK  Name = 
REMARK  2 active torsions:
REMARK  status: ('A' for Active; 'I' for Inactive)
REMARK    1  A    between atoms: N_17  and  C_18
REMARK    2  A    between atoms: C_18  and  C_19
REMARK                            x       y       z     vdW  Elec       q    Type
REMARK                         _______ _______ _______ _____ _____    ______ ____
ROOT
ATOM      1  O   UNL     1       0.827   3.745  17.735  0.00  0.00    +0.000 OA
ATOM      2  C   UNL     1       2.033   3.852  17.815  0.00  0.00    +0.000 C 
ATOM      3  C   UNL     1       2.853   4.979  17.274  0.00  0.00    +0.000 C 
ATOM      4  C   UNL     1       4.320   4.539  17.449  0.00  0.00    +0.000 C 
ATOM      5  C   UNL     1       4.163   3.164  18.113  0.00  0.00    +0.000 C 
ATOM      6  O   UNL     1       5.033   2.326  18.307  0.00  0.00    +0.000 OA
ATOM      7  N   UNL     1       2.849   2.932  18.381  0.00  0.00    +0.000 N 
ATOM      8  C   UNL     1       5.118   4.403  16.157  0.00  0.00    +0.000 A 
ATOM      9  C   UNL     1       4.678   3.970  14.914  0.00  0.00    +0.000 A 
ATOM     10  C   UNL     1       5.544   4.082  13.819  0.00  0.00    +0.000 A 
ATOM     11  C   UNL     1       6.838   4.612  13.960  0.00  0.00    +0.000 A 
ATOM     12  C   UNL     1       7.307   5.003  15.209  0.00  0.00    +0.000 A 
ATOM     13  C   UNL     1       6.443   4.857  16.278  0.00  0.00    +0.000 A 
ATOM     14  S   UNL     1       6.780   5.409  17.894  0.00  0.00    +0.000 S 
ATOM     15  O   UNL     1       7.415   4.344  18.635  0.00  0.00    +0.000 OA
ATOM     16  O   UNL     1       7.300   6.754  17.842  0.00  0.00    +0.000 OA
ATOM     17  N   UNL     1       5.139   5.454  18.302  0.00  0.00    +0.000 NA
ATOM     18  H   UNL     1       2.514   2.050  18.745  0.00  0.00    +0.000 HD
ENDROOT
BRANCH  17  19
ATOM     19  C   UNL     1       4.643   6.607  19.020  0.00  0.00    +0.000 C 
BRANCH  19  20
ATOM     20  C   UNL     1       3.204   7.095  18.914  0.00  0.00    +0.000 A 
ATOM     21  C   UNL     1       2.999   7.976  17.844  0.00  0.00    +0.000 A 
ATOM     22  C   UNL     1       1.802   8.644  17.717  0.00  0.00    +0.000 A 
ATOM     23  C   UNL     1       1.292   9.082  18.918  0.00  0.00    +0.000 A 
ATOM     24  C   UNL     1       0.732  10.360  18.983  0.00  0.00    +0.000 A 
ATOM     25  C   UNL     1       0.212  10.820  20.182  0.00  0.00    +0.000 A 
ATOM     26  C   UNL     1       0.156   9.966  21.280  0.00  0.00    +0.000 A 
ATOM     27  C   UNL     1       0.698   8.672  21.208  0.00  0.00    +0.000 A 
ATOM     28  C   UNL     1       1.367   8.241  20.038  0.00  0.00    +0.000 A 
ATOM     29  C   UNL     1       2.191   7.088  19.895  0.00  0.00    +0.000 A 
ATOM     30 BR   UNL     1       1.639   5.523  20.810  0.00  0.00    +0.000 Br
ENDBRANCH  19  20
ENDBRANCH  17  19
TORSDOF 2
ENDMDL
MODEL 8
REMARK VINA RESULT:      -6.9      4.187      5.797
REMARK  Name = 
REMARK  2 active torsions:
REMARK  status: ('A' for Active; 'I' for Inactive)
REMARK    1  A    between atoms: N_17  and  C_18
REMARK    2  A    between atoms: C_18  and  C_19
REMARK                            x       y       z     vdW  Elec       q    Type
REMARK                         _______ _______ _______ _____ _____    ______ ____
ROOT
ATOM      1  O   UNL     1       1.057  16.971  18.895  0.00  0.00    +0.000 OA
ATOM      2  C   UNL     1       0.734  16.176  19.752  0.00  0.00    +0.000 C 
ATOM      3  C   UNL     1      -0.554  16.177  20.511  0.00  0.00    +0.000 C 
ATOM      4  C   UNL     1      -0.383  15.109  21.609  0.00  0.00    +0.000 C 
ATOM      5  C   UNL     1       1.033  14.587  21.328  0.00  0.00    +0.000 C 
ATOM      6  O   UNL     1       1.706  13.843  22.028  0.00  0.00    +0.000 OA
ATOM      7  N   UNL     1       1.519  15.166  20.197  0.00  0.00    +0.000 N 
ATOM      8  C   UNL     1      -0.471  15.627  23.041  0.00  0.00    +0.000 A 
ATOM      9  C   UNL     1      -0.036  16.844  23.545  0.00  0.00    +0.000 A 
ATOM     10  C   UNL     1      -0.369  17.182  24.863  0.00  0.00    +0.000 A 
ATOM     11  C   UNL     1      -1.119  16.314  25.674  0.00  0.00    +0.000 A 
ATOM     12  C   UNL     1      -1.517  15.071  25.196  0.00  0.00    +0.000 A 
ATOM     13  C   UNL     1      -1.154  14.751  23.902  0.00  0.00    +0.000 A 
ATOM     14  S   UNL     1      -1.665  13.310  23.068  0.00  0.00    +0.000 S 
ATOM     15  O   UNL     1      -0.695  12.264  23.292  0.00  0.00    +0.000 OA
ATOM     16  O   UNL     1      -3.084  13.126  23.256  0.00  0.00    +0.000 OA
ATOM     17  N   UNL     1      -1.383  13.999  21.549  0.00  0.00    +0.000 NA
ATOM     18  H   UNL     1       2.467  15.024  19.874  0.00  0.00    +0.000 HD
ENDROOT
BRANCH  17  19
ATOM     19  C   UNL     1      -2.382  13.819  20.519  0.00  0.00    +0.000 C 
BRANCH  19  20
ATOM     20  C   UNL     1      -2.679  12.469  19.878  0.00  0.00    +0.000 A 
ATOM     21  C   UNL     1      -1.540  11.667  19.730  0.00  0.00    +0.000 A 
ATOM     22  C   UNL     1      -1.608  10.495  19.009  0.00  0.00    +0.000 A 
ATOM     23  C   UNL     1      -2.383  10.596  17.877  0.00  0.00    +0.000 A 
ATOM     24  C   UNL     1      -1.929  10.001  16.697  0.00  0.00    +0.000 A 
ATOM     25  C   UNL     1      -2.695  10.090  15.546  0.00  0.00    +0.000 A 
ATOM     26  C   UNL     1      -3.955  10.676  15.602  0.00  0.00    +0.000 A 
ATOM     27  C   UNL     1      -4.423  11.254  16.793  0.00  0.00    +0.000 A 
ATOM     28  C   UNL     1      -3.592  11.306  17.938  0.00  0.00    +0.000 A 
ATOM     29  C   UNL     1      -3.800  12.077  19.117  0.00  0.00    +0.000 A 
ATOM     30 BR   UNL     1      -5.585  12.225  19.738  0.00  0.00    +0.000 Br
ENDBRANCH  19  20
ENDBRANCH  17  19
TORSDOF 2
ENDMDL
MODEL 9
REMARK VINA RESULT:      -6.8      3.776      5.899
REMARK  Name = 
REMARK  2 active torsions:
REMARK  status: ('A' for Active; 'I' for Inactive)
REMARK    1  A    between atoms: N_17  and  C_18
REMARK    2  A    between atoms: C_18  and  C_19
REMARK                            x       y       z     vdW  Elec       q    Type
REMARK                         _______ _______ _______ _____ _____    ______ ____
ROOT
ATOM      1  O   UNL     1      -7.393  11.863  23.970  0.00  0.00    +0.000 OA
ATOM      2  C   UNL     1      -6.911  12.767  23.320  0.00  0.00    +0.000 C 
ATOM      3  C   UNL     1      -5.454  13.085  23.201  0.00  0.00    +0.000 C 
ATOM      4  C   UNL     1      -5.389  14.427  22.447  0.00  0.00    +0.000 C 
ATOM      5  C   UNL     1      -6.874  14.725  22.196  0.00  0.00    +0.000 C 
ATOM      6  O   UNL     1      -7.364  15.764  21.777  0.00  0.00    +0.000 OA
ATOM      7  N   UNL     1      -7.629  13.676  22.618  0.00  0.00    +0.000 N 
ATOM      8  C   UNL     1      -4.752  15.577  23.220  0.00  0.00    +0.000 A 
ATOM      9  C   UNL     1      -4.819  15.843  24.580  0.00  0.00    +0.000 A 
ATOM     10  C   UNL     1      -4.018  16.865  25.105  0.00  0.00    +0.000 A 
ATOM     11  C   UNL     1      -3.163  17.620  24.284  0.00  0.00    +0.000 A 
ATOM     12  C   UNL     1      -3.124  17.396  22.913  0.00  0.00    +0.000 A 
ATOM     13  C   UNL     1      -3.944  16.400  22.416  0.00  0.00    +0.000 A 
ATOM     14  S   UNL     1      -3.947  15.869  20.758  0.00  0.00    +0.000 S 
ATOM     15  O   UNL     1      -4.917  16.639  20.016  0.00  0.00    +0.000 OA
ATOM     16  O   UNL     1      -2.588  15.674  20.316  0.00  0.00    +0.000 OA
ATOM     17  N   UNL     1      -4.629  14.374  21.160  0.00  0.00    +0.000 NA
ATOM     18  H   UNL     1      -8.640  13.697  22.620  0.00  0.00    +0.000 HD
ENDROOT
BRANCH  17  19
ATOM     19  C   UNL     1      -4.073  13.183  20.559  0.00  0.00    +0.000 C 
BRANCH  19  20
ATOM     20  C   UNL     1      -2.622  12.758  20.746  0.00  0.00    +0.000 A 
ATOM     21  C   UNL     1      -2.040  12.256  19.575  0.00  0.00    +0.000 A 
ATOM     22  C   UNL     1      -0.796  11.666  19.617  0.00  0.00    +0.000 A 
ATOM     23  C   UNL     1      -0.605  10.877  20.729  0.00  0.00    +0.000 A 
ATOM     24  C   UNL     1       0.035   9.645  20.576  0.00  0.00    +0.000 A 
ATOM     25  C   UNL     1       0.237   8.836  21.682  0.00  0.00    +0.000 A 
ATOM     26  C   UNL     1      -0.101   9.304  22.948  0.00  0.00    +0.000 A 
ATOM     27  C   UNL     1      -0.723  10.553  23.106  0.00  0.00    +0.000 A 
ATOM     28  C   UNL     1      -1.074  11.326  21.973  0.00  0.00    +0.000 A 
ATOM     29  C   UNL     1      -1.932  12.462  21.940  0.00  0.00    +0.000 A 
ATOM     30 BR   UNL     1      -1.813  13.666  23.400  0.00  0.00    +0.000 Br
ENDBRANCH  19  20
ENDBRANCH  17  19
TORSDOF 2
ENDMDL
