MODEL 1
REMARK VINA RESULT:      -7.4      0.000      0.000
REMARK  Name = 
REMARK  9 active torsions:
REMARK  status: ('A' for Active; 'I' for Inactive)
REMARK    1  A    between atoms: C_1  and  C_2
REMARK    2  A    between atoms: C_2  and  C_3
REMARK    3  A    between atoms: C_3  and  N_4
REMARK    4  A    between atoms: C_8  and  C_9
REMARK    5  A    between atoms: C_11  and  C_12
REMARK    6  A    between atoms: C_17  and  O_18
REMARK    7  A    between atoms: O_18  and  C_19
REMARK    8  A    between atoms: C_19  and  C_20
REMARK    9  A    between atoms: C_22  and  C_23
REMARK                            x       y       z     vdW  Elec       q    Type
REMARK                         _______ _______ _______ _____ _____    ______ ____
ROOT
ATOM      1  C   UNL     1       6.824   6.483  17.527  0.00  0.00    +0.000 A 
ATOM      2  C   UNL     1       5.917   5.817  18.330  0.00  0.00    +0.000 A 
ATOM      3  C   UNL     1       5.157   4.834  17.742  0.00  0.00    +0.000 A 
ATOM      4  N   UNL     1       5.352   4.494  16.443  0.00  0.00    +0.000 NA
ATOM      5  C   UNL     1       6.289   5.160  15.732  0.00  0.00    +0.000 A 
ATOM      6  N   UNL     1       7.021   6.172  16.233  0.00  0.00    +0.000 NA
ENDROOT
BRANCH   1  11
ATOM      7  N   UNL     1       9.001  11.130  18.097  0.00  0.00    +0.000 N 
ATOM      8  C   UNL     1       8.620   9.844  18.267  0.00  0.00    +0.000 A 
ATOM      9  N   UNL     1       9.168   8.985  19.091  0.00  0.00    +0.000 NA
ATOM     10  C   UNL     1       8.564   7.747  18.952  0.00  0.00    +0.000 A 
ATOM     11  C   UNL     1       7.572   7.656  17.992  0.00  0.00    +0.000 A 
ATOM     12  S   UNL     1       7.333   9.222  17.322  0.00  0.00    +0.000 S 
ATOM     13  H   UNL     1       8.643  11.584  17.263  0.00  0.00    +0.000 HD
BRANCH   7  14
ATOM     14  C   UNL     1      10.360  11.489  18.457  0.00  0.00    +0.000 C 
BRANCH  14  16
ATOM     15  C   UNL     1      10.405  12.075  20.928  0.00  0.00    +0.000 C 
ATOM     16  C   UNL     1      10.356  12.605  19.502  0.00  0.00    +0.000 C 
ENDBRANCH  14  16
ENDBRANCH   7  14
ENDBRANCH   1  11
BRANCH   3  17
ATOM     17  C   UNL     1       3.991   4.184  18.408  0.00  0.00    +0.000 A 
ATOM     18  C   UNL     1       4.209   2.906  18.981  0.00  0.00    +0.000 A 
ATOM     19  C   UNL     1       3.198   2.175  19.601  0.00  0.00    +0.000 A 
ATOM     20  C   UNL     1       1.929   2.726  19.710  0.00  0.00    +0.000 A 
ATOM     21  C   UNL     1       1.674   3.981  19.168  0.00  0.00    +0.000 A 
ATOM     22  C   UNL     1       2.670   4.698  18.475  0.00  0.00    +0.000 A 
BRANCH  22  23
ATOM     23  O   UNL     1       2.381   5.898  17.852  0.00  0.00    +0.000 OA
BRANCH  23  24
ATOM     24  C   UNL     1       2.425   7.054  18.703  0.00  0.00    +0.000 C 
ATOM     25  C   UNL     1       2.699   8.309  17.899  0.00  0.00    +0.000 C 
ENDBRANCH  23  24
ENDBRANCH  22  23
ENDBRANCH   3  17
BRANCH   5  26
ATOM     26  C   UNL     1       6.511   4.737  14.318  0.00  0.00    +0.000 A 
ATOM     27  C   UNL     1       5.749   3.721  13.726  0.00  0.00    +0.000 A 
ATOM     28  C   UNL     1       6.029   3.309  12.423  0.00  0.00    +0.000 A 
ATOM     29  C   UNL     1       7.058   3.921  11.723  0.00  0.00    +0.000 A 
ATOM     30  C   UNL     1       7.758   4.934  12.355  0.00  0.00    +0.000 A 
ATOM     31  N   UNL     1       7.509   5.352  13.617  0.00  0.00    +0.000 NA
ENDBRANCH   5  26
TORSDOF 7
ENDMDL
MODEL 2
REMARK VINA RESULT:      -7.3      3.670      7.495
REMARK  Name = 
REMARK  9 active torsions:
REMARK  status: ('A' for Active; 'I' for Inactive)
REMARK    1  A    between atoms: C_1  and  C_2
REMARK    2  A    between atoms: C_2  and  C_3
REMARK    3  A    between atoms: C_3  and  N_4
REMARK    4  A    between atoms: C_8  and  C_9
REMARK    5  A    between atoms: C_11  and  C_12
REMARK    6  A    between atoms: C_17  and  O_18
REMARK    7  A    between atoms: O_18  and  C_19
REMARK    8  A    between atoms: C_19  and  C_20
REMARK    9  A    between atoms: C_22  and  C_23
REMARK                            x       y       z     vdW  Elec       q    Type
REMARK                         _______ _______ _______ _____ _____    ______ ____
ROOT
ATOM      1  C   UNL     1       2.662   7.283  18.367  0.00  0.00    +0.000 A 
ATOM      2  C   UNL     1       3.520   7.057  17.307  0.00  0.00    +0.000 A 
ATOM      3  C   UNL     1       4.120   5.822  17.232  0.00  0.00    +0.000 A 
ATOM      4  N   UNL     1       3.817   4.852  18.131  0.00  0.00    +0.000 NA
ATOM      5  C   UNL     1       2.935   5.132  19.116  0.00  0.00    +0.000 A 
ATOM      6  N   UNL     1       2.361   6.338  19.278  0.00  0.00    +0.000 NA
ENDROOT
BRANCH   1  11
ATOM      7  N   UNL     1       0.031  11.299  20.265  0.00  0.00    +0.000 N 
ATOM      8  C   UNL     1       0.843  10.509  19.527  0.00  0.00    +0.000 A 
ATOM      9  N   UNL     1       1.360  10.819  18.362  0.00  0.00    +0.000 NA
ATOM     10  C   UNL     1       2.085   9.747  17.869  0.00  0.00    +0.000 A 
ATOM     11  C   UNL     1       2.091   8.604  18.649  0.00  0.00    +0.000 A 
ATOM     12  S   UNL     1       1.234   8.943  20.100  0.00  0.00    +0.000 S 
ATOM     13  H   UNL     1      -0.472  10.830  21.011  0.00  0.00    +0.000 HD
BRANCH   7  14
ATOM     14  C   UNL     1      -0.715  12.338  19.579  0.00  0.00    +0.000 C 
BRANCH  14  16
ATOM     15  C   UNL     1      -2.178  11.594  17.642  0.00  0.00    +0.000 C 
ATOM     16  C   UNL     1      -2.082  11.812  19.145  0.00  0.00    +0.000 C 
ENDBRANCH  14  16
ENDBRANCH   7  14
ENDBRANCH   1  11
BRANCH   3  17
ATOM     17  C   UNL     1       5.229   5.501  16.288  0.00  0.00    +0.000 A 
ATOM     18  C   UNL     1       4.902   4.706  15.161  0.00  0.00    +0.000 A 
ATOM     19  C   UNL     1       5.849   4.304  14.221  0.00  0.00    +0.000 A 
ATOM     20  C   UNL     1       7.163   4.727  14.355  0.00  0.00    +0.000 A 
ATOM     21  C   UNL     1       7.526   5.515  15.443  0.00  0.00    +0.000 A 
ATOM     22  C   UNL     1       6.592   5.866  16.439  0.00  0.00    +0.000 A 
BRANCH  22  23
ATOM     23  O   UNL     1       6.982   6.563  17.568  0.00  0.00    +0.000 OA
BRANCH  23  24
ATOM     24  C   UNL     1       7.454   7.898  17.329  0.00  0.00    +0.000 C 
ATOM     25  C   UNL     1       8.388   8.348  18.434  0.00  0.00    +0.000 C 
ENDBRANCH  23  24
ENDBRANCH  22  23
ENDBRANCH   3  17
BRANCH   5  26
ATOM     26  C   UNL     1       2.590   4.033  20.065  0.00  0.00    +0.000 A 
ATOM     27  C   UNL     1       1.323   3.943  20.656  0.00  0.00    +0.000 A 
ATOM     28  C   UNL     1       1.058   2.939  21.588  0.00  0.00    +0.000 A 
ATOM     29  C   UNL     1       2.056   2.032  21.911  0.00  0.00    +0.000 A 
ATOM     30  C   UNL     1       3.278   2.160  21.275  0.00  0.00    +0.000 A 
ATOM     31  N   UNL     1       3.562   3.124  20.371  0.00  0.00    +0.000 NA
ENDBRANCH   5  26
TORSDOF 7
ENDMDL
MODEL 3
REMARK VINA RESULT:      -7.3      6.427     10.351
REMARK  Name = 
REMARK  9 active torsions:
REMARK  status: ('A' for Active; 'I' for Inactive)
REMARK    1  A    between atoms: C_1  and  C_2
REMARK    2  A    between atoms: C_2  and  C_3
REMARK    3  A    between atoms: C_3  and  N_4
REMARK    4  A    between atoms: C_8  and  C_9
REMARK    5  A    between atoms: C_11  and  C_12
REMARK    6  A    between atoms: C_17  and  O_18
REMARK    7  A    between atoms: O_18  and  C_19
REMARK    8  A    between atoms: C_19  and  C_20
REMARK    9  A    between atoms: C_22  and  C_23
REMARK                            x       y       z     vdW  Elec       q    Type
REMARK                         _______ _______ _______ _____ _____    ______ ____
ROOT
ATOM      1  C   UNL     1       0.367  10.465  19.038  0.00  0.00    +0.000 A 
ATOM      2  C   UNL     1      -1.013  10.459  18.951  0.00  0.00    +0.000 A 
ATOM      3  C   UNL     1      -1.643  11.674  18.823  0.00  0.00    +0.000 A 
ATOM      4  N   UNL     1      -0.922  12.818  18.716  0.00  0.00    +0.000 NA
ATOM      5  C   UNL     1       0.427  12.742  18.765  0.00  0.00    +0.000 A 
ATOM      6  N   UNL     1       1.099  11.591  18.950  0.00  0.00    +0.000 NA
ENDROOT
BRANCH   1  11
ATOM      7  N   UNL     1       3.192   6.149  18.840  0.00  0.00    +0.000 N 
ATOM      8  C   UNL     1       2.464   7.207  19.262  0.00  0.00    +0.000 A 
ATOM      9  N   UNL     1       1.949   7.355  20.458  0.00  0.00    +0.000 NA
ATOM     10  C   UNL     1       1.213   8.526  20.513  0.00  0.00    +0.000 A 
ATOM     11  C   UNL     1       1.141   9.257  19.340  0.00  0.00    +0.000 A 
ATOM     12  S   UNL     1       2.127   8.479  18.166  0.00  0.00    +0.000 S 
ATOM     13  H   UNL     1       3.309   6.072  17.836  0.00  0.00    +0.000 HD
BRANCH   7  14
ATOM     14  C   UNL     1       3.023   4.886  19.537  0.00  0.00    +0.000 C 
BRANCH  14  16
ATOM     15  C   UNL     1       0.946   3.531  20.084  0.00  0.00    +0.000 C 
ATOM     16  C   UNL     1       1.812   4.134  18.987  0.00  0.00    +0.000 C 
ENDBRANCH  14  16
ENDBRANCH   7  14
ENDBRANCH   1  11
BRANCH   3  17
ATOM     17  C   UNL     1      -3.119  11.854  18.940  0.00  0.00    +0.000 A 
ATOM     18  C   UNL     1      -3.586  12.633  20.028  0.00  0.00    +0.000 A 
ATOM     19  C   UNL     1      -4.940  12.849  20.274  0.00  0.00    +0.000 A 
ATOM     20  C   UNL     1      -5.883  12.323  19.402  0.00  0.00    +0.000 A 
ATOM     21  C   UNL     1      -5.467  11.558  18.318  0.00  0.00    +0.000 A 
ATOM     22  C   UNL     1      -4.104  11.272  18.101  0.00  0.00    +0.000 A 
BRANCH  22  23
ATOM     23  O   UNL     1      -3.707  10.427  17.080  0.00  0.00    +0.000 OA
BRANCH  23  24
ATOM     24  C   UNL     1      -3.716  11.009  15.767  0.00  0.00    +0.000 C 
ATOM     25  C   UNL     1      -2.980  10.127  14.779  0.00  0.00    +0.000 C 
ENDBRANCH  23  24
ENDBRANCH  22  23
ENDBRANCH   3  17
BRANCH   5  26
ATOM     26  C   UNL     1       1.196  14.010  18.603  0.00  0.00    +0.000 A 
ATOM     27  C   UNL     1       0.605  15.262  18.821  0.00  0.00    +0.000 A 
ATOM     28  C   UNL     1       1.337  16.428  18.598  0.00  0.00    +0.000 A 
ATOM     29  C   UNL     1       2.652  16.332  18.168  0.00  0.00    +0.000 A 
ATOM     30  C   UNL     1       3.185  15.068  17.993  0.00  0.00    +0.000 A 
ATOM     31  N   UNL     1       2.498  13.922  18.201  0.00  0.00    +0.000 NA
ENDBRANCH   5  26
TORSDOF 7
ENDMDL
MODEL 4
REMARK VINA RESULT:      -7.1      0.842      1.037
REMARK  Name = 
REMARK  9 active torsions:
REMARK  status: ('A' for Active; 'I' for Inactive)
REMARK    1  A    between atoms: C_1  and  C_2
REMARK    2  A    between atoms: C_2  and  C_3
REMARK    3  A    between atoms: C_3  and  N_4
REMARK    4  A    between atoms: C_8  and  C_9
REMARK    5  A    between atoms: C_11  and  C_12
REMARK    6  A    between atoms: C_17  and  O_18
REMARK    7  A    between atoms: O_18  and  C_19
REMARK    8  A    between atoms: C_19  and  C_20
REMARK    9  A    between atoms: C_22  and  C_23
REMARK                            x       y       z     vdW  Elec       q    Type
REMARK                         _______ _______ _______ _____ _____    ______ ____
ROOT
ATOM      1  C   UNL     1       6.956   6.639  17.462  0.00  0.00    +0.000 A 
ATOM      2  C   UNL     1       6.112   5.972  18.330  0.00  0.00    +0.000 A 
ATOM      3  C   UNL     1       5.358   4.944  17.814  0.00  0.00    +0.000 A 
ATOM      4  N   UNL     1       5.501   4.567  16.518  0.00  0.00    +0.000 NA
ATOM      5  C   UNL     1       6.379   5.238  15.740  0.00  0.00    +0.000 A 
ATOM      6  N   UNL     1       7.100   6.290  16.170  0.00  0.00    +0.000 NA
ENDROOT
BRANCH   1  11
ATOM      7  N   UNL     1       9.638  10.294  19.932  0.00  0.00    +0.000 N 
ATOM      8  C   UNL     1       8.940   9.595  19.010  0.00  0.00    +0.000 A 
ATOM      9  N   UNL     1       8.411  10.085  17.915  0.00  0.00    +0.000 NA
ATOM     10  C   UNL     1       7.714   9.095  17.244  0.00  0.00    +0.000 A 
ATOM     11  C   UNL     1       7.685   7.851  17.850  0.00  0.00    +0.000 A 
ATOM     12  S   UNL     1       8.662   7.923  19.263  0.00  0.00    +0.000 S 
ATOM     13  H   UNL     1       9.768   9.830  20.825  0.00  0.00    +0.000 HD
BRANCH   7  14
ATOM     14  C   UNL     1       9.417  11.726  20.010  0.00  0.00    +0.000 C 
BRANCH  14  16
ATOM     15  C   UNL     1      10.345  13.789  21.165  0.00  0.00    +0.000 C 
ATOM     16  C   UNL     1      10.069  12.297  21.269  0.00  0.00    +0.000 C 
ENDBRANCH  14  16
ENDBRANCH   7  14
ENDBRANCH   1  11
BRANCH   3  17
ATOM     17  C   UNL     1       4.249   4.281  18.558  0.00  0.00    +0.000 A 
ATOM     18  C   UNL     1       4.550   3.052  19.197  0.00  0.00    +0.000 A 
ATOM     19  C   UNL     1       3.598   2.312  19.894  0.00  0.00    +0.000 A 
ATOM     20  C   UNL     1       2.308   2.805  20.017  0.00  0.00    +0.000 A 
ATOM     21  C   UNL     1       1.971   4.012  19.411  0.00  0.00    +0.000 A 
ATOM     22  C   UNL     1       2.907   4.732  18.641  0.00  0.00    +0.000 A 
BRANCH  22  23
ATOM     23  O   UNL     1       2.537   5.877  17.959  0.00  0.00    +0.000 OA
BRANCH  23  24
ATOM     24  C   UNL     1       2.518   7.079  18.747  0.00  0.00    +0.000 C 
ATOM     25  C   UNL     1       2.279   8.294  17.875  0.00  0.00    +0.000 C 
ENDBRANCH  23  24
ENDBRANCH  22  23
ENDBRANCH   3  17
BRANCH   5  26
ATOM     26  C   UNL     1       6.546   4.775  14.332  0.00  0.00    +0.000 A 
ATOM     27  C   UNL     1       5.736   3.769  13.787  0.00  0.00    +0.000 A 
ATOM     28  C   UNL     1       5.964   3.317  12.487  0.00  0.00    +0.000 A 
ATOM     29  C   UNL     1       6.991   3.878  11.743  0.00  0.00    +0.000 A 
ATOM     30  C   UNL     1       7.741   4.883  12.329  0.00  0.00    +0.000 A 
ATOM     31  N   UNL     1       7.542   5.339  13.587  0.00  0.00    +0.000 NA
ENDBRANCH   5  26
TORSDOF 7
ENDMDL
MODEL 5
REMARK VINA RESULT:      -7.1      6.076      9.890
REMARK  Name = 
REMARK  9 active torsions:
REMARK  status: ('A' for Active; 'I' for Inactive)
REMARK    1  A    between atoms: C_1  and  C_2
REMARK    2  A    between atoms: C_2  and  C_3
REMARK    3  A    between atoms: C_3  and  N_4
REMARK    4  A    between atoms: C_8  and  C_9
REMARK    5  A    between atoms: C_11  and  C_12
REMARK    6  A    between atoms: C_17  and  O_18
REMARK    7  A    between atoms: O_18  and  C_19
REMARK    8  A    between atoms: C_19  and  C_20
REMARK    9  A    between atoms: C_22  and  C_23
REMARK                            x       y       z     vdW  Elec       q    Type
REMARK                         _______ _______ _______ _____ _____    ______ ____
ROOT
ATOM      1  C   UNL     1       0.869  10.301  18.578  0.00  0.00    +0.000 A 
ATOM      2  C   UNL     1      -0.509  10.394  18.628  0.00  0.00    +0.000 A 
ATOM      3  C   UNL     1      -1.054  11.651  18.746  0.00  0.00    +0.000 A 
ATOM      4  N   UNL     1      -0.260  12.751  18.742  0.00  0.00    +0.000 NA
ATOM      5  C   UNL     1       1.078  12.584  18.647  0.00  0.00    +0.000 A 
ATOM      6  N   UNL     1       1.675  11.379  18.589  0.00  0.00    +0.000 NA
ENDROOT
BRANCH   1  11
ATOM      7  N   UNL     1       3.232   5.927  19.972  0.00  0.00    +0.000 N 
ATOM      8  C   UNL     1       2.705   6.951  19.262  0.00  0.00    +0.000 A 
ATOM      9  N   UNL     1       2.941   7.208  17.999  0.00  0.00    +0.000 NA
ATOM     10  C   UNL     1       2.285   8.368  17.624  0.00  0.00    +0.000 A 
ATOM     11  C   UNL     1       1.573   9.015  18.618  0.00  0.00    +0.000 A 
ATOM     12  S   UNL     1       1.658   8.058  20.044  0.00  0.00    +0.000 S 
ATOM     13  H   UNL     1       3.145   6.006  20.980  0.00  0.00    +0.000 HD
BRANCH   7  14
ATOM     14  C   UNL     1       4.477   5.346  19.505  0.00  0.00    +0.000 C 
BRANCH  14  16
ATOM     15  C   UNL     1       3.336   3.524  18.153  0.00  0.00    +0.000 C 
ATOM     16  C   UNL     1       4.310   3.844  19.277  0.00  0.00    +0.000 C 
ENDBRANCH  14  16
ENDBRANCH   7  14
ENDBRANCH   1  11
BRANCH   3  17
ATOM     17  C   UNL     1      -2.496  11.900  19.034  0.00  0.00    +0.000 A 
ATOM     18  C   UNL     1      -2.796  12.690  20.171  0.00  0.00    +0.000 A 
ATOM     19  C   UNL     1      -4.101  12.969  20.573  0.00  0.00    +0.000 A 
ATOM     20  C   UNL     1      -5.162  12.498  19.814  0.00  0.00    +0.000 A 
ATOM     21  C   UNL     1      -4.912  11.724  18.685  0.00  0.00    +0.000 A 
ATOM     22  C   UNL     1      -3.599  11.375  18.311  0.00  0.00    +0.000 A 
BRANCH  22  23
ATOM     23  O   UNL     1      -3.363  10.522  17.248  0.00  0.00    +0.000 OA
BRANCH  23  24
ATOM     24  C   UNL     1      -3.650  11.069  15.951  0.00  0.00    +0.000 C 
ATOM     25  C   UNL     1      -2.935  10.292  14.866  0.00  0.00    +0.000 C 
ENDBRANCH  23  24
ENDBRANCH  22  23
ENDBRANCH   3  17
BRANCH   5  26
ATOM     26  C   UNL     1       1.924  13.812  18.603  0.00  0.00    +0.000 A 
ATOM     27  C   UNL     1       1.388  15.084  18.845  0.00  0.00    +0.000 A 
ATOM     28  C   UNL     1       2.196  16.216  18.732  0.00  0.00    +0.000 A 
ATOM     29  C   UNL     1       3.531  16.065  18.387  0.00  0.00    +0.000 A 
ATOM     30  C   UNL     1       4.006  14.781  18.184  0.00  0.00    +0.000 A 
ATOM     31  N   UNL     1       3.245  13.668  18.285  0.00  0.00    +0.000 NA
ENDBRANCH   5  26
TORSDOF 7
ENDMDL
MODEL 6
REMARK VINA RESULT:      -7.0      0.963      1.330
REMARK  Name = 
REMARK  9 active torsions:
REMARK  status: ('A' for Active; 'I' for Inactive)
REMARK    1  A    between atoms: C_1  and  C_2
REMARK    2  A    between atoms: C_2  and  C_3
REMARK    3  A    between atoms: C_3  and  N_4
REMARK    4  A    between atoms: C_8  and  C_9
REMARK    5  A    between atoms: C_11  and  C_12
REMARK    6  A    between atoms: C_17  and  O_18
REMARK    7  A    between atoms: O_18  and  C_19
REMARK    8  A    between atoms: C_19  and  C_20
REMARK    9  A    between atoms: C_22  and  C_23
REMARK                            x       y       z     vdW  Elec       q    Type
REMARK                         _______ _______ _______ _____ _____    ______ ____
ROOT
ATOM      1  C   UNL     1       6.759   6.538  17.351  0.00  0.00    +0.000 A 
ATOM      2  C   UNL     1       5.831   5.913  18.163  0.00  0.00    +0.000 A 
ATOM      3  C   UNL     1       5.086   4.899  17.608  0.00  0.00    +0.000 A 
ATOM      4  N   UNL     1       5.314   4.494  16.334  0.00  0.00    +0.000 NA
ATOM      5  C   UNL     1       6.269   5.124  15.613  0.00  0.00    +0.000 A 
ATOM      6  N   UNL     1       6.989   6.160  16.080  0.00  0.00    +0.000 NA
ENDROOT
BRANCH   1  11
ATOM      7  N   UNL     1       9.603  10.041  19.860  0.00  0.00    +0.000 N 
ATOM      8  C   UNL     1       8.825   9.406  18.955  0.00  0.00    +0.000 A 
ATOM      9  N   UNL     1       8.167   9.977  17.976  0.00  0.00    +0.000 NA
ATOM     10  C   UNL     1       7.425   9.029  17.291  0.00  0.00    +0.000 A 
ATOM     11  C   UNL     1       7.495   7.734  17.774  0.00  0.00    +0.000 A 
ATOM     12  S   UNL     1       8.619   7.709  19.074  0.00  0.00    +0.000 S 
ATOM     13  H   UNL     1       9.842   9.501  20.685  0.00  0.00    +0.000 HD
BRANCH   7  14
ATOM     14  C   UNL     1       9.354  11.451  20.099  0.00  0.00    +0.000 C 
BRANCH  14  16
ATOM     15  C   UNL     1      11.819  11.663  19.522  0.00  0.00    +0.000 C 
ATOM     16  C   UNL     1      10.440  12.301  19.439  0.00  0.00    +0.000 C 
ENDBRANCH  14  16
ENDBRANCH   7  14
ENDBRANCH   1  11
BRANCH   3  17
ATOM     17  C   UNL     1       3.905   4.283  18.277  0.00  0.00    +0.000 A 
ATOM     18  C   UNL     1       4.069   2.974  18.793  0.00  0.00    +0.000 A 
ATOM     19  C   UNL     1       3.036   2.270  19.409  0.00  0.00    +0.000 A 
ATOM     20  C   UNL     1       1.800   2.880  19.572  0.00  0.00    +0.000 A 
ATOM     21  C   UNL     1       1.598   4.168  19.086  0.00  0.00    +0.000 A 
ATOM     22  C   UNL     1       2.613   4.860  18.397  0.00  0.00    +0.000 A 
BRANCH  22  23
ATOM     23  O   UNL     1       2.373   6.098  17.829  0.00  0.00    +0.000 OA
BRANCH  23  24
ATOM     24  C   UNL     1       2.421   7.208  18.740  0.00  0.00    +0.000 C 
ATOM     25  C   UNL     1       2.269   8.522  18.002  0.00  0.00    +0.000 C 
ENDBRANCH  23  24
ENDBRANCH  22  23
ENDBRANCH   3  17
BRANCH   5  26
ATOM     26  C   UNL     1       6.526   4.629  14.229  0.00  0.00    +0.000 A 
ATOM     27  C   UNL     1       7.523   5.191  13.420  0.00  0.00    +0.000 A 
ATOM     28  C   UNL     1       7.691   4.746  12.109  0.00  0.00    +0.000 A 
ATOM     29  C   UNL     1       6.869   3.740  11.623  0.00  0.00    +0.000 A 
ATOM     30  C   UNL     1       5.920   3.210  12.478  0.00  0.00    +0.000 A 
ATOM     31  N   UNL     1       5.734   3.624  13.752  0.00  0.00    +0.000 NA
ENDBRANCH   5  26
TORSDOF 7
ENDMDL
MODEL 7
REMARK VINA RESULT:      -7.0      6.185      9.920
REMARK  Name = 
REMARK  9 active torsions:
REMARK  status: ('A' for Active; 'I' for Inactive)
REMARK    1  A    between atoms: C_1  and  C_2
REMARK    2  A    between atoms: C_2  and  C_3
REMARK    3  A    between atoms: C_3  and  N_4
REMARK    4  A    between atoms: C_8  and  C_9
REMARK    5  A    between atoms: C_11  and  C_12
REMARK    6  A    between atoms: C_17  and  O_18
REMARK    7  A    between atoms: O_18  and  C_19
REMARK    8  A    between atoms: C_19  and  C_20
REMARK    9  A    between atoms: C_22  and  C_23
REMARK                            x       y       z     vdW  Elec       q    Type
REMARK                         _______ _______ _______ _____ _____    ______ ____
ROOT
ATOM      1  C   UNL     1       0.719  10.289  18.857  0.00  0.00    +0.000 A 
ATOM      2  C   UNL     1      -0.662  10.342  18.829  0.00  0.00    +0.000 A 
ATOM      3  C   UNL     1      -1.246  11.585  18.764  0.00  0.00    +0.000 A 
ATOM      4  N   UNL     1      -0.481  12.702  18.662  0.00  0.00    +0.000 NA
ATOM      5  C   UNL     1       0.864  12.569  18.653  0.00  0.00    +0.000 A 
ATOM      6  N   UNL     1       1.494  11.386  18.774  0.00  0.00    +0.000 NA
ENDROOT
BRANCH   1  11
ATOM      7  N   UNL     1       3.425   5.915  18.414  0.00  0.00    +0.000 N 
ATOM      8  C   UNL     1       2.719   6.963  18.895  0.00  0.00    +0.000 A 
ATOM      9  N   UNL     1       2.187   7.045  20.090  0.00  0.00    +0.000 NA
ATOM     10  C   UNL     1       1.483   8.231  20.212  0.00  0.00    +0.000 A 
ATOM     11  C   UNL     1       1.453   9.041  19.090  0.00  0.00    +0.000 A 
ATOM     12  S   UNL     1       2.438   8.316  17.882  0.00  0.00    +0.000 S 
ATOM     13  H   UNL     1       3.558   5.903  17.409  0.00  0.00    +0.000 HD
BRANCH   7  14
ATOM     14  C   UNL     1       3.208   4.614  19.021  0.00  0.00    +0.000 C 
BRANCH  14  16
ATOM     15  C   UNL     1       5.697   4.562  18.516  0.00  0.00    +0.000 C 
ATOM     16  C   UNL     1       4.544   3.914  19.269  0.00  0.00    +0.000 C 
ENDBRANCH  14  16
ENDBRANCH   7  14
ENDBRANCH   1  11
BRANCH   3  17
ATOM     17  C   UNL     1      -2.706  11.821  18.949  0.00  0.00    +0.000 A 
ATOM     18  C   UNL     1      -3.095  12.595  20.070  0.00  0.00    +0.000 A 
ATOM     19  C   UNL     1      -4.428  12.860  20.379  0.00  0.00    +0.000 A 
ATOM     20  C   UNL     1      -5.427  12.391  19.539  0.00  0.00    +0.000 A 
ATOM     21  C   UNL     1      -5.089  11.632  18.423  0.00  0.00    +0.000 A 
ATOM     22  C   UNL     1      -3.749  11.296  18.142  0.00  0.00    +0.000 A 
BRANCH  22  23
ATOM     23  O   UNL     1      -3.430  10.459  17.089  0.00  0.00    +0.000 OA
BRANCH  23  24
ATOM     24  C   UNL     1      -3.710  10.985  15.782  0.00  0.00    +0.000 C 
ATOM     25  C   UNL     1      -3.002  10.181  14.711  0.00  0.00    +0.000 C 
ENDBRANCH  23  24
ENDBRANCH  22  23
ENDBRANCH   3  17
BRANCH   5  26
ATOM     26  C   UNL     1       1.678  13.810  18.498  0.00  0.00    +0.000 A 
ATOM     27  C   UNL     1       3.027  13.763  18.124  0.00  0.00    +0.000 A 
ATOM     28  C   UNL     1       3.773  14.940  18.052  0.00  0.00    +0.000 A 
ATOM     29  C   UNL     1       3.162  16.149  18.346  0.00  0.00    +0.000 A 
ATOM     30  C   UNL     1       1.822  16.132  18.686  0.00  0.00    +0.000 A 
ATOM     31  N   UNL     1       1.076  15.007  18.765  0.00  0.00    +0.000 NA
ENDBRANCH   5  26
TORSDOF 7
ENDMDL
MODEL 8
REMARK VINA RESULT:      -7.0      3.765      7.238
REMARK  Name = 
REMARK  9 active torsions:
REMARK  status: ('A' for Active; 'I' for Inactive)
REMARK    1  A    between atoms: C_1  and  C_2
REMARK    2  A    between atoms: C_2  and  C_3
REMARK    3  A    between atoms: C_3  and  N_4
REMARK    4  A    between atoms: C_8  and  C_9
REMARK    5  A    between atoms: C_11  and  C_12
REMARK    6  A    between atoms: C_17  and  O_18
REMARK    7  A    between atoms: O_18  and  C_19
REMARK    8  A    between atoms: C_19  and  C_20
REMARK    9  A    between atoms: C_22  and  C_23
REMARK                            x       y       z     vdW  Elec       q    Type
REMARK                         _______ _______ _______ _____ _____    ______ ____
ROOT
ATOM      1  C   UNL     1       2.652   7.294  18.359  0.00  0.00    +0.000 A 
ATOM      2  C   UNL     1       3.504   7.077  17.292  0.00  0.00    +0.000 A 
ATOM      3  C   UNL     1       4.100   5.841  17.200  0.00  0.00    +0.000 A 
ATOM      4  N   UNL     1       3.800   4.862  18.090  0.00  0.00    +0.000 NA
ATOM      5  C   UNL     1       2.924   5.134  19.083  0.00  0.00    +0.000 A 
ATOM      6  N   UNL     1       2.354   6.340  19.261  0.00  0.00    +0.000 NA
ENDROOT
BRANCH   1  11
ATOM      7  N   UNL     1       0.066  11.302  20.334  0.00  0.00    +0.000 N 
ATOM      8  C   UNL     1       0.858  10.515  19.572  0.00  0.00    +0.000 A 
ATOM      9  N   UNL     1       1.344  10.827  18.395  0.00  0.00    +0.000 NA
ATOM     10  C   UNL     1       2.057   9.757  17.881  0.00  0.00    +0.000 A 
ATOM     11  C   UNL     1       2.087   8.613  18.659  0.00  0.00    +0.000 A 
ATOM     12  S   UNL     1       1.268   8.949  20.133  0.00  0.00    +0.000 S 
ATOM     13  H   UNL     1      -0.416  10.831  21.092  0.00  0.00    +0.000 HD
BRANCH   7  14
ATOM     14  C   UNL     1      -0.700  12.340  19.670  0.00  0.00    +0.000 C 
BRANCH  14  16
ATOM     15  C   UNL     1       0.316  13.776  21.502  0.00  0.00    +0.000 C 
ATOM     16  C   UNL     1      -0.176  13.721  20.063  0.00  0.00    +0.000 C 
ENDBRANCH  14  16
ENDBRANCH   7  14
ENDBRANCH   1  11
BRANCH   3  17
ATOM     17  C   UNL     1       5.202   5.527  16.246  0.00  0.00    +0.000 A 
ATOM     18  C   UNL     1       4.910   4.607  15.208  0.00  0.00    +0.000 A 
ATOM     19  C   UNL     1       5.858   4.200  14.272  0.00  0.00    +0.000 A 
ATOM     20  C   UNL     1       7.135   4.742  14.317  0.00  0.00    +0.000 A 
ATOM     21  C   UNL     1       7.462   5.654  15.315  0.00  0.00    +0.000 A 
ATOM     22  C   UNL     1       6.533   6.017  16.311  0.00  0.00    +0.000 A 
BRANCH  22  23
ATOM     23  O   UNL     1       6.896   6.845  17.357  0.00  0.00    +0.000 OA
BRANCH  23  24
ATOM     24  C   UNL     1       7.797   6.263  18.312  0.00  0.00    +0.000 C 
ATOM     25  C   UNL     1       7.039   5.484  19.367  0.00  0.00    +0.000 C 
ENDBRANCH  23  24
ENDBRANCH  22  23
ENDBRANCH   3  17
BRANCH   5  26
ATOM     26  C   UNL     1       2.581   4.027  20.022  0.00  0.00    +0.000 A 
ATOM     27  C   UNL     1       1.320   3.937  20.625  0.00  0.00    +0.000 A 
ATOM     28  C   UNL     1       1.057   2.923  21.548  0.00  0.00    +0.000 A 
ATOM     29  C   UNL     1       2.053   2.007  21.850  0.00  0.00    +0.000 A 
ATOM     30  C   UNL     1       3.269   2.135  21.204  0.00  0.00    +0.000 A 
ATOM     31  N   UNL     1       3.551   3.108  20.308  0.00  0.00    +0.000 NA
ENDBRANCH   5  26
TORSDOF 7
ENDMDL
MODEL 9
REMARK VINA RESULT:      -7.0      6.278     10.023
REMARK  Name = 
REMARK  9 active torsions:
REMARK  status: ('A' for Active; 'I' for Inactive)
REMARK    1  A    between atoms: C_1  and  C_2
REMARK    2  A    between atoms: C_2  and  C_3
REMARK    3  A    between atoms: C_3  and  N_4
REMARK    4  A    between atoms: C_8  and  C_9
REMARK    5  A    between atoms: C_11  and  C_12
REMARK    6  A    between atoms: C_17  and  O_18
REMARK    7  A    between atoms: O_18  and  C_19
REMARK    8  A    between atoms: C_19  and  C_20
REMARK    9  A    between atoms: C_22  and  C_23
REMARK                            x       y       z     vdW  Elec       q    Type
REMARK                         _______ _______ _______ _____ _____    ______ ____
ROOT
ATOM      1  C   UNL     1       0.919  10.550  19.177  0.00  0.00    +0.000 A 
ATOM      2  C   UNL     1      -0.308  10.685  19.798  0.00  0.00    +0.000 A 
ATOM      3  C   UNL     1      -0.736  11.960  20.084  0.00  0.00    +0.000 A 
ATOM      4  N   UNL     1      -0.002  13.036  19.702  0.00  0.00    +0.000 NA
ATOM      5  C   UNL     1       1.169  12.827  19.059  0.00  0.00    +0.000 A 
ATOM      6  N   UNL     1       1.669  11.604  18.805  0.00  0.00    +0.000 NA
ENDROOT
BRANCH   1  11
ATOM      7  N   UNL     1       3.117   5.910  19.712  0.00  0.00    +0.000 N 
ATOM      8  C   UNL     1       2.611   7.057  19.208  0.00  0.00    +0.000 A 
ATOM      9  N   UNL     1       2.798   7.508  17.991  0.00  0.00    +0.000 NA
ATOM     10  C   UNL     1       2.186   8.741  17.845  0.00  0.00    +0.000 A 
ATOM     11  C   UNL     1       1.556   9.246  18.969  0.00  0.00    +0.000 A 
ATOM     12  S   UNL     1       1.661   8.066  20.215  0.00  0.00    +0.000 S 
ATOM     13  H   UNL     1       3.084   5.825  20.723  0.00  0.00    +0.000 HD
BRANCH   7  14
ATOM     14  C   UNL     1       4.307   5.360  19.089  0.00  0.00    +0.000 C 
BRANCH  14  16
ATOM     15  C   UNL     1       3.235   3.844  17.356  0.00  0.00    +0.000 C 
ATOM     16  C   UNL     1       4.054   3.922  18.636  0.00  0.00    +0.000 C 
ENDBRANCH  14  16
ENDBRANCH   7  14
ENDBRANCH   1  11
BRANCH   3  17
ATOM     17  C   UNL     1      -1.918  12.261  20.941  0.00  0.00    +0.000 A 
ATOM     18  C   UNL     1      -3.035  12.861  20.307  0.00  0.00    +0.000 A 
ATOM     19  C   UNL     1      -4.188  13.225  20.998  0.00  0.00    +0.000 A 
ATOM     20  C   UNL     1      -4.283  12.956  22.355  0.00  0.00    +0.000 A 
ATOM     21  C   UNL     1      -3.212  12.362  23.016  0.00  0.00    +0.000 A 
ATOM     22  C   UNL     1      -2.012  12.056  22.342  0.00  0.00    +0.000 A 
BRANCH  22  23
ATOM     23  O   UNL     1      -0.918  11.559  23.026  0.00  0.00    +0.000 OA
BRANCH  23  24
ATOM     24  C   UNL     1      -0.972  10.157  23.330  0.00  0.00    +0.000 C 
ATOM     25  C   UNL     1       0.403   9.528  23.232  0.00  0.00    +0.000 C 
ENDBRANCH  23  24
ENDBRANCH  22  23
ENDBRANCH   3  17
BRANCH   5  26
ATOM     26  C   UNL     1       1.934  14.029  18.614  0.00  0.00    +0.000 A 
ATOM     27  C   UNL     1       3.254  13.932  18.155  0.00  0.00    +0.000 A 
ATOM     28  C   UNL     1       3.960  15.085  17.809  0.00  0.00    +0.000 A 
ATOM     29  C   UNL     1       3.337  16.319  17.916  0.00  0.00    +0.000 A 
ATOM     30  C   UNL     1       2.024  16.346  18.353  0.00  0.00    +0.000 A 
ATOM     31  N   UNL     1       1.319  15.245  18.697  0.00  0.00    +0.000 NA
ENDBRANCH   5  26
TORSDOF 7
ENDMDL
