MODEL 1
REMARK VINA RESULT:      -8.6      0.000      0.000
REMARK  Name = 
REMARK  8 active torsions:
REMARK  status: ('A' for Active; 'I' for Inactive)
REMARK    1  A    between atoms: C_1  and  C_2
REMARK    2  A    between atoms: N_6  and  C_7
REMARK    3  A    between atoms: C_7  and  C_8
REMARK    4  A    between atoms: C_8  and  C_9
REMARK    5  A    between atoms: N_17  and  C_18
REMARK    6  A    between atoms: C_18  and  C_19
REMARK    7  A    between atoms: N_21  and  C_22
REMARK    8  A    between atoms: C_22  and  C_23
REMARK                            x       y       z     vdW  Elec       q    Type
REMARK                         _______ _______ _______ _____ _____    ______ ____
ROOT
ATOM      1  C   UNL     1       5.482   3.471  15.631  0.00  0.00    +0.000 C 
ATOM      2  C   UNL     1       6.107   4.565  16.445  0.00  0.00    +0.000 A 
ATOM      3  C   UNL     1       6.850   5.488  15.809  0.00  0.00    +0.000 A 
ATOM      4  N   UNL     1       7.502   6.534  16.379  0.00  0.00    +0.000 NA
ATOM      5  C   UNL     1       7.426   6.667  17.679  0.00  0.00    +0.000 A 
ATOM      6  N   UNL     1       8.115   7.692  18.300  0.00  0.00    +0.000 N 
ATOM      7  C   UNL     1       6.584   5.674  18.535  0.00  0.00    +0.000 A 
ATOM      8  O   UNL     1       6.531   5.851  19.748  0.00  0.00    +0.000 OA
ATOM      9  N   UNL     1       5.957   4.634  17.832  0.00  0.00    +0.000 N 
ATOM     10  H   UNL     1       7.976   7.757  19.306  0.00  0.00    +0.000 HD
ENDROOT
BRANCH   6  11
ATOM     11  C   UNL     1       8.377   8.930  17.571  0.00  0.00    +0.000 C 
BRANCH  11  12
ATOM     12  C   UNL     1       8.204  10.158  18.461  0.00  0.00    +0.000 C 
BRANCH  12  13
ATOM     13  C   UNL     1       9.525  10.839  18.743  0.00  0.00    +0.000 A 
ATOM     14  C   UNL     1       9.895  11.150  20.060  0.00  0.00    +0.000 A 
ATOM     15  C   UNL     1      11.110  11.786  20.325  0.00  0.00    +0.000 A 
ATOM     16  C   UNL     1      11.964  12.125  19.278  0.00  0.00    +0.000 A 
ATOM     17  C   UNL     1      11.601  11.835  17.964  0.00  0.00    +0.000 A 
ATOM     18  C   UNL     1      10.386  11.199  17.696  0.00  0.00    +0.000 A 
ENDBRANCH  12  13
ENDBRANCH  11  12
ENDBRANCH   6  11
BRANCH   9  19
ATOM     19  C   UNL     1       5.188   3.652  18.620  0.00  0.00    +0.000 C 
BRANCH  19  20
ATOM     20  C   UNL     1       3.714   4.015  18.896  0.00  0.00    +0.000 C 
ATOM     21  O   UNL     1       2.782   3.495  18.302  0.00  0.00    +0.000 OA
ATOM     22  N   UNL     1       3.509   4.926  19.928  0.00  0.00    +0.000 N 
ATOM     23  H   UNL     1       4.272   5.521  20.240  0.00  0.00    +0.000 HD
BRANCH  22  24
ATOM     24  C   UNL     1       2.151   5.339  20.241  0.00  0.00    +0.000 C 
BRANCH  24  25
ATOM     25  C   UNL     1       1.831   6.789  19.955  0.00  0.00    +0.000 A 
ATOM     26  C   UNL     1       2.107   7.359  18.701  0.00  0.00    +0.000 A 
ATOM     27  C   UNL     1       1.915   8.726  18.444  0.00  0.00    +0.000 A 
ATOM     28  C   UNL     1       1.427   9.510  19.491  0.00  0.00    +0.000 A 
ATOM     29  N   UNL     1       1.141  10.848  19.578  0.00  0.00    +0.000 N 
ATOM     30  N   UNL     1       0.686  11.237  20.783  0.00  0.00    +0.000 NA
ATOM     31  C   UNL     1       0.686  10.105  21.491  0.00  0.00    +0.000 A 
ATOM     32  C   UNL     1       1.131   8.989  20.745  0.00  0.00    +0.000 A 
ATOM     33  C   UNL     1       1.331   7.615  20.986  0.00  0.00    +0.000 A 
ATOM     34  H   UNL     1       1.236  11.553  18.854  0.00  0.00    +0.000 HD
ENDBRANCH  24  25
ENDBRANCH  22  24
ENDBRANCH  19  20
ENDBRANCH   9  19
TORSDOF 7
ENDMDL
MODEL 2
REMARK VINA RESULT:      -8.5      0.903      1.703
REMARK  Name = 
REMARK  8 active torsions:
REMARK  status: ('A' for Active; 'I' for Inactive)
REMARK    1  A    between atoms: C_1  and  C_2
REMARK    2  A    between atoms: N_6  and  C_7
REMARK    3  A    between atoms: C_7  and  C_8
REMARK    4  A    between atoms: C_8  and  C_9
REMARK    5  A    between atoms: N_17  and  C_18
REMARK    6  A    between atoms: C_18  and  C_19
REMARK    7  A    between atoms: N_21  and  C_22
REMARK    8  A    between atoms: C_22  and  C_23
REMARK                            x       y       z     vdW  Elec       q    Type
REMARK                         _______ _______ _______ _____ _____    ______ ____
ROOT
ATOM      1  C   UNL     1       5.262   4.465  15.335  0.00  0.00    +0.000 C 
ATOM      2  C   UNL     1       6.030   5.247  16.360  0.00  0.00    +0.000 A 
ATOM      3  C   UNL     1       6.768   6.291  15.944  0.00  0.00    +0.000 A 
ATOM      4  N   UNL     1       7.537   7.098  16.721  0.00  0.00    +0.000 NA
ATOM      5  C   UNL     1       7.591   6.842  18.004  0.00  0.00    +0.000 A 
ATOM      6  N   UNL     1       8.399   7.613  18.818  0.00  0.00    +0.000 N 
ATOM      7  C   UNL     1       6.771   5.669  18.618  0.00  0.00    +0.000 A 
ATOM      8  O   UNL     1       6.844   5.480  19.828  0.00  0.00    +0.000 OA
ATOM      9  N   UNL     1       6.016   4.906  17.716  0.00  0.00    +0.000 N 
ATOM     10  H   UNL     1       8.360   7.381  19.808  0.00  0.00    +0.000 HD
ENDROOT
BRANCH   6  11
ATOM     11  C   UNL     1       8.671   9.002  18.457  0.00  0.00    +0.000 C 
BRANCH  11  12
ATOM     12  C   UNL     1       9.307   9.772  19.612  0.00  0.00    +0.000 C 
BRANCH  12  13
ATOM     13  C   UNL     1       9.685  11.180  19.209  0.00  0.00    +0.000 A 
ATOM     14  C   UNL     1       9.508  11.611  17.886  0.00  0.00    +0.000 A 
ATOM     15  C   UNL     1       9.862  12.907  17.507  0.00  0.00    +0.000 A 
ATOM     16  C   UNL     1      10.406  13.784  18.444  0.00  0.00    +0.000 A 
ATOM     17  C   UNL     1      10.603  13.363  19.758  0.00  0.00    +0.000 A 
ATOM     18  C   UNL     1      10.248  12.066  20.139  0.00  0.00    +0.000 A 
ENDBRANCH  12  13
ENDBRANCH  11  12
ENDBRANCH   6  11
BRANCH   9  19
ATOM     19  C   UNL     1       5.262   3.761  18.261  0.00  0.00    +0.000 C 
BRANCH  19  20
ATOM     20  C   UNL     1       3.817   4.058  18.712  0.00  0.00    +0.000 C 
ATOM     21  O   UNL     1       2.838   3.583  18.156  0.00  0.00    +0.000 OA
ATOM     22  N   UNL     1       3.700   4.849  19.852  0.00  0.00    +0.000 N 
ATOM     23  H   UNL     1       4.482   5.425  20.153  0.00  0.00    +0.000 HD
BRANCH  22  24
ATOM     24  C   UNL     1       2.373   5.195  20.334  0.00  0.00    +0.000 C 
BRANCH  24  25
ATOM     25  C   UNL     1       1.997   6.654  20.207  0.00  0.00    +0.000 A 
ATOM     26  C   UNL     1       1.291   7.312  21.227  0.00  0.00    +0.000 A 
ATOM     27  C   UNL     1       0.840   8.635  21.090  0.00  0.00    +0.000 A 
ATOM     28  C   UNL     1       1.129   9.287  19.889  0.00  0.00    +0.000 A 
ATOM     29  N   UNL     1       0.835  10.546  19.436  0.00  0.00    +0.000 N 
ATOM     30  N   UNL     1       1.288  10.806  18.196  0.00  0.00    +0.000 NA
ATOM     31  C   UNL     1       1.890   9.667  17.845  0.00  0.00    +0.000 A 
ATOM     32  C   UNL     1       1.832   8.679  18.856  0.00  0.00    +0.000 A 
ATOM     33  C   UNL     1       2.275   7.351  19.010  0.00  0.00    +0.000 A 
ATOM     34  H   UNL     1       0.326  11.279  19.921  0.00  0.00    +0.000 HD
ENDBRANCH  24  25
ENDBRANCH  22  24
ENDBRANCH  19  20
ENDBRANCH   9  19
TORSDOF 7
ENDMDL
MODEL 3
REMARK VINA RESULT:      -8.4      0.894      1.182
REMARK  Name = 
REMARK  8 active torsions:
REMARK  status: ('A' for Active; 'I' for Inactive)
REMARK    1  A    between atoms: C_1  and  C_2
REMARK    2  A    between atoms: N_6  and  C_7
REMARK    3  A    between atoms: C_7  and  C_8
REMARK    4  A    between atoms: C_8  and  C_9
REMARK    5  A    between atoms: N_17  and  C_18
REMARK    6  A    between atoms: C_18  and  C_19
REMARK    7  A    between atoms: N_21  and  C_22
REMARK    8  A    between atoms: C_22  and  C_23
REMARK                            x       y       z     vdW  Elec       q    Type
REMARK                         _______ _______ _______ _____ _____    ______ ____
ROOT
ATOM      1  C   UNL     1       5.093   3.969  15.795  0.00  0.00    +0.000 C 
ATOM      2  C   UNL     1       5.918   4.880  16.655  0.00  0.00    +0.000 A 
ATOM      3  C   UNL     1       6.708   5.785  16.052  0.00  0.00    +0.000 A 
ATOM      4  N   UNL     1       7.532   6.675  16.663  0.00  0.00    +0.000 NA
ATOM      5  C   UNL     1       7.591   6.656  17.971  0.00  0.00    +0.000 A 
ATOM      6  N   UNL     1       8.453   7.515  18.626  0.00  0.00    +0.000 N 
ATOM      7  C   UNL     1       6.714   5.666  18.794  0.00  0.00    +0.000 A 
ATOM      8  O   UNL     1       6.793   5.698  20.018  0.00  0.00    +0.000 OA
ATOM      9  N   UNL     1       5.904   4.796  18.050  0.00  0.00    +0.000 N 
ATOM     10  H   UNL     1       8.414   7.472  19.643  0.00  0.00    +0.000 HD
ENDROOT
BRANCH   6  11
ATOM     11  C   UNL     1       8.797   8.796  18.015  0.00  0.00    +0.000 C 
BRANCH  11  12
ATOM     12  C   UNL     1       8.588   9.958  18.982  0.00  0.00    +0.000 C 
BRANCH  12  13
ATOM     13  C   UNL     1       9.387  11.178  18.577  0.00  0.00    +0.000 A 
ATOM     14  C   UNL     1      10.603  11.034  17.894  0.00  0.00    +0.000 A 
ATOM     15  C   UNL     1      11.348  12.156  17.525  0.00  0.00    +0.000 A 
ATOM     16  C   UNL     1      10.891  13.433  17.843  0.00  0.00    +0.000 A 
ATOM     17  C   UNL     1       9.692  13.589  18.537  0.00  0.00    +0.000 A 
ATOM     18  C   UNL     1       8.945  12.467  18.906  0.00  0.00    +0.000 A 
ENDBRANCH  12  13
ENDBRANCH  11  12
ENDBRANCH   6  11
BRANCH   9  19
ATOM     19  C   UNL     1       5.094   3.817  18.800  0.00  0.00    +0.000 C 
BRANCH  19  20
ATOM     20  C   UNL     1       3.686   4.286  19.220  0.00  0.00    +0.000 C 
ATOM     21  O   UNL     1       2.668   3.684  18.916  0.00  0.00    +0.000 OA
ATOM     22  N   UNL     1       3.654   5.410  20.042  0.00  0.00    +0.000 N 
ATOM     23  H   UNL     1       4.459   6.030  20.086  0.00  0.00    +0.000 HD
BRANCH  22  24
ATOM     24  C   UNL     1       2.367   5.933  20.467  0.00  0.00    +0.000 C 
BRANCH  24  25
ATOM     25  C   UNL     1       1.926   7.208  19.784  0.00  0.00    +0.000 A 
ATOM     26  C   UNL     1       2.201   7.436  18.426  0.00  0.00    +0.000 A 
ATOM     27  C   UNL     1       1.894   8.653  17.795  0.00  0.00    +0.000 A 
ATOM     28  C   UNL     1       1.290   9.641  18.576  0.00  0.00    +0.000 A 
ATOM     29  N   UNL     1       0.878  10.915  18.283  0.00  0.00    +0.000 N 
ATOM     30  N   UNL     1       0.337  11.572  19.326  0.00  0.00    +0.000 NA
ATOM     31  C   UNL     1       0.412  10.685  20.320  0.00  0.00    +0.000 A 
ATOM     32  C   UNL     1       0.991   9.458  19.921  0.00  0.00    +0.000 A 
ATOM     33  C   UNL     1       1.307   8.231  20.537  0.00  0.00    +0.000 A 
ATOM     34  H   UNL     1       0.938  11.399  17.393  0.00  0.00    +0.000 HD
ENDBRANCH  24  25
ENDBRANCH  22  24
ENDBRANCH  19  20
ENDBRANCH   9  19
TORSDOF 7
ENDMDL
MODEL 4
REMARK VINA RESULT:      -8.4      1.041      1.655
REMARK  Name = 
REMARK  8 active torsions:
REMARK  status: ('A' for Active; 'I' for Inactive)
REMARK    1  A    between atoms: C_1  and  C_2
REMARK    2  A    between atoms: N_6  and  C_7
REMARK    3  A    between atoms: C_7  and  C_8
REMARK    4  A    between atoms: C_8  and  C_9
REMARK    5  A    between atoms: N_17  and  C_18
REMARK    6  A    between atoms: C_18  and  C_19
REMARK    7  A    between atoms: N_21  and  C_22
REMARK    8  A    between atoms: C_22  and  C_23
REMARK                            x       y       z     vdW  Elec       q    Type
REMARK                         _______ _______ _______ _____ _____    ______ ____
ROOT
ATOM      1  C   UNL     1       5.857   3.898  15.355  0.00  0.00    +0.000 C 
ATOM      2  C   UNL     1       6.441   4.873  16.334  0.00  0.00    +0.000 A 
ATOM      3  C   UNL     1       7.119   5.930  15.853  0.00  0.00    +0.000 A 
ATOM      4  N   UNL     1       7.728   6.901  16.582  0.00  0.00    +0.000 NA
ATOM      5  C   UNL     1       7.674   6.810  17.888  0.00  0.00    +0.000 A 
ATOM      6  N   UNL     1       8.321   7.753  18.663  0.00  0.00    +0.000 N 
ATOM      7  C   UNL     1       6.905   5.642  18.574  0.00  0.00    +0.000 A 
ATOM      8  O   UNL     1       6.871   5.609  19.800  0.00  0.00    +0.000 OA
ATOM      9  N   UNL     1       6.319   4.701  17.715  0.00  0.00    +0.000 N 
ATOM     10  H   UNL     1       8.202   7.640  19.668  0.00  0.00    +0.000 HD
ENDROOT
BRANCH   6  11
ATOM     11  C   UNL     1       8.500   9.108  18.149  0.00  0.00    +0.000 C 
BRANCH  11  12
ATOM     12  C   UNL     1       9.267   9.989  19.133  0.00  0.00    +0.000 C 
BRANCH  12  13
ATOM     13  C   UNL     1       9.831  11.222  18.463  0.00  0.00    +0.000 A 
ATOM     14  C   UNL     1       8.995  12.301  18.143  0.00  0.00    +0.000 A 
ATOM     15  C   UNL     1       9.509  13.439  17.517  0.00  0.00    +0.000 A 
ATOM     16  C   UNL     1      10.863  13.507  17.196  0.00  0.00    +0.000 A 
ATOM     17  C   UNL     1      11.702  12.434  17.494  0.00  0.00    +0.000 A 
ATOM     18  C   UNL     1      11.189  11.296  18.121  0.00  0.00    +0.000 A 
ENDBRANCH  12  13
ENDBRANCH  11  12
ENDBRANCH   6  11
BRANCH   9  19
ATOM     19  C   UNL     1       5.621   3.559  18.336  0.00  0.00    +0.000 C 
BRANCH  19  20
ATOM     20  C   UNL     1       4.221   3.856  18.912  0.00  0.00    +0.000 C 
ATOM     21  O   UNL     1       3.876   3.504  20.030  0.00  0.00    +0.000 OA
ATOM     22  N   UNL     1       3.395   4.627  18.099  0.00  0.00    +0.000 N 
ATOM     23  H   UNL     1       3.590   4.704  17.104  0.00  0.00    +0.000 HD
BRANCH  22  24
ATOM     24  C   UNL     1       2.050   4.936  18.556  0.00  0.00    +0.000 C 
BRANCH  24  25
ATOM     25  C   UNL     1       1.853   6.335  19.094  0.00  0.00    +0.000 A 
ATOM     26  C   UNL     1       1.499   6.553  20.436  0.00  0.00    +0.000 A 
ATOM     27  C   UNL     1       1.210   7.834  20.934  0.00  0.00    +0.000 A 
ATOM     28  C   UNL     1       1.295   8.901  20.037  0.00  0.00    +0.000 A 
ATOM     29  N   UNL     1       1.076  10.245  20.189  0.00  0.00    +0.000 N 
ATOM     30  N   UNL     1       1.257  10.964  19.066  0.00  0.00    +0.000 NA
ATOM     31  C   UNL     1       1.603  10.042  18.164  0.00  0.00    +0.000 A 
ATOM     32  C   UNL     1       1.650   8.735  18.704  0.00  0.00    +0.000 A 
ATOM     33  C   UNL     1       1.936   7.442  18.221  0.00  0.00    +0.000 A 
ATOM     34  H   UNL     1       0.796  10.738  21.031  0.00  0.00    +0.000 HD
ENDBRANCH  24  25
ENDBRANCH  22  24
ENDBRANCH  19  20
ENDBRANCH   9  19
TORSDOF 7
ENDMDL
MODEL 5
REMARK VINA RESULT:      -7.8      1.034      1.276
REMARK  Name = 
REMARK  8 active torsions:
REMARK  status: ('A' for Active; 'I' for Inactive)
REMARK    1  A    between atoms: C_1  and  C_2
REMARK    2  A    between atoms: N_6  and  C_7
REMARK    3  A    between atoms: C_7  and  C_8
REMARK    4  A    between atoms: C_8  and  C_9
REMARK    5  A    between atoms: N_17  and  C_18
REMARK    6  A    between atoms: C_18  and  C_19
REMARK    7  A    between atoms: N_21  and  C_22
REMARK    8  A    between atoms: C_22  and  C_23
REMARK                            x       y       z     vdW  Elec       q    Type
REMARK                         _______ _______ _______ _____ _____    ______ ____
ROOT
ATOM      1  C   UNL     1       5.073   4.356  15.880  0.00  0.00    +0.000 C 
ATOM      2  C   UNL     1       5.909   5.250  16.746  0.00  0.00    +0.000 A 
ATOM      3  C   UNL     1       6.494   6.321  16.180  0.00  0.00    +0.000 A 
ATOM      4  N   UNL     1       7.295   7.227  16.799  0.00  0.00    +0.000 NA
ATOM      5  C   UNL     1       7.550   7.050  18.072  0.00  0.00    +0.000 A 
ATOM      6  N   UNL     1       8.398   7.924  18.724  0.00  0.00    +0.000 N 
ATOM      7  C   UNL     1       6.922   5.856  18.852  0.00  0.00    +0.000 A 
ATOM      8  O   UNL     1       7.179   5.743  20.046  0.00  0.00    +0.000 OA
ATOM      9  N   UNL     1       6.113   4.989  18.104  0.00  0.00    +0.000 N 
ATOM     10  H   UNL     1       8.516   7.748  19.719  0.00  0.00    +0.000 HD
ENDROOT
BRANCH   6  11
ATOM     11  C   UNL     1       8.501   9.307  18.263  0.00  0.00    +0.000 C 
BRANCH  11  12
ATOM     12  C   UNL     1       9.821   9.946  18.687  0.00  0.00    +0.000 C 
BRANCH  12  13
ATOM     13  C   UNL     1       9.604  11.146  19.582  0.00  0.00    +0.000 A 
ATOM     14  C   UNL     1       9.174  10.975  20.906  0.00  0.00    +0.000 A 
ATOM     15  C   UNL     1       8.964  12.080  21.734  0.00  0.00    +0.000 A 
ATOM     16  C   UNL     1       9.172  13.368  21.245  0.00  0.00    +0.000 A 
ATOM     17  C   UNL     1       9.583  13.552  19.926  0.00  0.00    +0.000 A 
ATOM     18  C   UNL     1       9.794  12.448  19.097  0.00  0.00    +0.000 A 
ENDBRANCH  12  13
ENDBRANCH  11  12
ENDBRANCH   6  11
BRANCH   9  19
ATOM     19  C   UNL     1       5.540   3.824  18.805  0.00  0.00    +0.000 C 
BRANCH  19  20
ATOM     20  C   UNL     1       4.161   4.044  19.462  0.00  0.00    +0.000 C 
ATOM     21  O   UNL     1       3.428   3.123  19.788  0.00  0.00    +0.000 OA
ATOM     22  N   UNL     1       3.836   5.370  19.731  0.00  0.00    +0.000 N 
ATOM     23  H   UNL     1       4.323   6.121  19.250  0.00  0.00    +0.000 HD
BRANCH  22  24
ATOM     24  C   UNL     1       2.545   5.669  20.330  0.00  0.00    +0.000 C 
BRANCH  24  25
ATOM     25  C   UNL     1       1.977   7.031  20.002  0.00  0.00    +0.000 A 
ATOM     26  C   UNL     1       2.181   7.618  18.743  0.00  0.00    +0.000 A 
ATOM     27  C   UNL     1       1.752   8.923  18.448  0.00  0.00    +0.000 A 
ATOM     28  C   UNL     1       1.100   9.624  19.465  0.00  0.00    +0.000 A 
ATOM     29  N   UNL     1       0.574  10.889  19.512  0.00  0.00    +0.000 N 
ATOM     30  N   UNL     1       0.021  11.211  20.696  0.00  0.00    +0.000 NA
ATOM     31  C   UNL     1       0.205  10.111  21.430  0.00  0.00    +0.000 A 
ATOM     32  C   UNL     1       0.867   9.082  20.722  0.00  0.00    +0.000 A 
ATOM     33  C   UNL     1       1.305   7.772  21.000  0.00  0.00    +0.000 A 
ATOM     34  H   UNL     1       0.561  11.586  18.774  0.00  0.00    +0.000 HD
ENDBRANCH  24  25
ENDBRANCH  22  24
ENDBRANCH  19  20
ENDBRANCH   9  19
TORSDOF 7
ENDMDL
MODEL 6
REMARK VINA RESULT:      -7.7      5.830      9.649
REMARK  Name = 
REMARK  8 active torsions:
REMARK  status: ('A' for Active; 'I' for Inactive)
REMARK    1  A    between atoms: C_1  and  C_2
REMARK    2  A    between atoms: N_6  and  C_7
REMARK    3  A    between atoms: C_7  and  C_8
REMARK    4  A    between atoms: C_8  and  C_9
REMARK    5  A    between atoms: N_17  and  C_18
REMARK    6  A    between atoms: C_18  and  C_19
REMARK    7  A    between atoms: N_21  and  C_22
REMARK    8  A    between atoms: C_22  and  C_23
REMARK                            x       y       z     vdW  Elec       q    Type
REMARK                         _______ _______ _______ _____ _____    ______ ____
ROOT
ATOM      1  C   UNL     1      -0.892  11.962  21.861  0.00  0.00    +0.000 C 
ATOM      2  C   UNL     1      -0.153  10.842  21.190  0.00  0.00    +0.000 A 
ATOM      3  C   UNL     1       0.494   9.952  21.964  0.00  0.00    +0.000 A 
ATOM      4  N   UNL     1       1.224   8.889  21.536  0.00  0.00    +0.000 NA
ATOM      5  C   UNL     1       1.337   8.704  20.245  0.00  0.00    +0.000 A 
ATOM      6  N   UNL     1       2.110   7.661  19.771  0.00  0.00    +0.000 N 
ATOM      7  C   UNL     1       0.623   9.655  19.238  0.00  0.00    +0.000 A 
ATOM      8  O   UNL     1       0.746   9.429  18.038  0.00  0.00    +0.000 OA
ATOM      9  N   UNL     1      -0.101  10.716  19.800  0.00  0.00    +0.000 N 
ATOM     10  H   UNL     1       2.118   7.555  18.759  0.00  0.00    +0.000 HD
ENDROOT
BRANCH   6  11
ATOM     11  C   UNL     1       2.269   6.456  20.581  0.00  0.00    +0.000 C 
BRANCH  11  12
ATOM     12  C   UNL     1       1.154   5.447  20.315  0.00  0.00    +0.000 C 
BRANCH  12  13
ATOM     13  C   UNL     1       1.624   4.307  19.438  0.00  0.00    +0.000 A 
ATOM     14  C   UNL     1       1.846   3.036  19.986  0.00  0.00    +0.000 A 
ATOM     15  C   UNL     1       2.287   1.982  19.183  0.00  0.00    +0.000 A 
ATOM     16  C   UNL     1       2.520   2.190  17.824  0.00  0.00    +0.000 A 
ATOM     17  C   UNL     1       2.318   3.453  17.271  0.00  0.00    +0.000 A 
ATOM     18  C   UNL     1       1.876   4.508  18.073  0.00  0.00    +0.000 A 
ENDBRANCH  12  13
ENDBRANCH  11  12
ENDBRANCH   6  11
BRANCH   9  19
ATOM     19  C   UNL     1      -0.752  11.659  18.870  0.00  0.00    +0.000 C 
BRANCH  19  20
ATOM     20  C   UNL     1      -2.221  11.350  18.514  0.00  0.00    +0.000 C 
ATOM     21  O   UNL     1      -2.554  10.364  17.875  0.00  0.00    +0.000 OA
ATOM     22  N   UNL     1      -3.159  12.234  19.039  0.00  0.00    +0.000 N 
ATOM     23  H   UNL     1      -2.869  13.158  19.350  0.00  0.00    +0.000 HD
BRANCH  22  24
ATOM     24  C   UNL     1      -4.565  12.029  18.734  0.00  0.00    +0.000 C 
BRANCH  24  25
ATOM     25  C   UNL     1      -5.491  11.999  19.930  0.00  0.00    +0.000 A 
ATOM     26  C   UNL     1      -6.756  11.394  19.852  0.00  0.00    +0.000 A 
ATOM     27  C   UNL     1      -7.674  11.444  20.914  0.00  0.00    +0.000 A 
ATOM     28  C   UNL     1      -7.276  12.120  22.070  0.00  0.00    +0.000 A 
ATOM     29  N   UNL     1      -7.917  12.357  23.258  0.00  0.00    +0.000 N 
ATOM     30  N   UNL     1      -7.192  13.066  24.143  0.00  0.00    +0.000 NA
ATOM     31  C   UNL     1      -6.048  13.292  23.491  0.00  0.00    +0.000 A 
ATOM     32  C   UNL     1      -6.032  12.725  22.196  0.00  0.00    +0.000 A 
ATOM     33  C   UNL     1      -5.124  12.666  21.119  0.00  0.00    +0.000 A 
ATOM     34  H   UNL     1      -8.850  12.066  23.531  0.00  0.00    +0.000 HD
ENDBRANCH  24  25
ENDBRANCH  22  24
ENDBRANCH  19  20
ENDBRANCH   9  19
TORSDOF 7
ENDMDL
MODEL 7
REMARK VINA RESULT:      -7.7      3.903      7.334
REMARK  Name = 
REMARK  8 active torsions:
REMARK  status: ('A' for Active; 'I' for Inactive)
REMARK    1  A    between atoms: C_1  and  C_2
REMARK    2  A    between atoms: N_6  and  C_7
REMARK    3  A    between atoms: C_7  and  C_8
REMARK    4  A    between atoms: C_8  and  C_9
REMARK    5  A    between atoms: N_17  and  C_18
REMARK    6  A    between atoms: C_18  and  C_19
REMARK    7  A    between atoms: N_21  and  C_22
REMARK    8  A    between atoms: C_22  and  C_23
REMARK                            x       y       z     vdW  Elec       q    Type
REMARK                         _______ _______ _______ _____ _____    ______ ____
ROOT
ATOM      1  C   UNL     1       0.661   9.253  22.116  0.00  0.00    +0.000 C 
ATOM      2  C   UNL     1       1.245   8.610  20.894  0.00  0.00    +0.000 A 
ATOM      3  C   UNL     1       1.644   7.329  20.976  0.00  0.00    +0.000 A 
ATOM      4  N   UNL     1       2.208   6.592  19.983  0.00  0.00    +0.000 NA
ATOM      5  C   UNL     1       2.406   7.173  18.827  0.00  0.00    +0.000 A 
ATOM      6  N   UNL     1       3.020   6.470  17.808  0.00  0.00    +0.000 N 
ATOM      7  C   UNL     1       1.975   8.651  18.593  0.00  0.00    +0.000 A 
ATOM      8  O   UNL     1       2.168   9.146  17.487  0.00  0.00    +0.000 OA
ATOM      9  N   UNL     1       1.405   9.308  19.693  0.00  0.00    +0.000 N 
ATOM     10  H   UNL     1       3.104   6.972  16.927  0.00  0.00    +0.000 HD
ENDROOT
BRANCH   6  11
ATOM     11  C   UNL     1       2.880   5.017  17.749  0.00  0.00    +0.000 C 
BRANCH  11  12
ATOM     12  C   UNL     1       4.123   4.353  17.161  0.00  0.00    +0.000 C 
BRANCH  12  13
ATOM     13  C   UNL     1       5.395   5.031  17.622  0.00  0.00    +0.000 A 
ATOM     14  C   UNL     1       5.807   4.930  18.959  0.00  0.00    +0.000 A 
ATOM     15  C   UNL     1       6.976   5.560  19.392  0.00  0.00    +0.000 A 
ATOM     16  C   UNL     1       7.740   6.306  18.496  0.00  0.00    +0.000 A 
ATOM     17  C   UNL     1       7.332   6.427  17.169  0.00  0.00    +0.000 A 
ATOM     18  C   UNL     1       6.163   5.797  16.734  0.00  0.00    +0.000 A 
ENDBRANCH  12  13
ENDBRANCH  11  12
ENDBRANCH   6  11
BRANCH   9  19
ATOM     19  C   UNL     1       1.026  10.723  19.516  0.00  0.00    +0.000 C 
BRANCH  19  20
ATOM     20  C   UNL     1      -0.451  10.986  19.157  0.00  0.00    +0.000 C 
ATOM     21  O   UNL     1      -1.212  10.102  18.792  0.00  0.00    +0.000 OA
ATOM     22  N   UNL     1      -0.887  12.294  19.351  0.00  0.00    +0.000 N 
ATOM     23  H   UNL     1      -0.210  13.050  19.416  0.00  0.00    +0.000 HD
BRANCH  22  24
ATOM     24  C   UNL     1      -2.260  12.634  19.017  0.00  0.00    +0.000 C 
BRANCH  24  25
ATOM     25  C   UNL     1      -3.249  12.536  20.157  0.00  0.00    +0.000 A 
ATOM     26  C   UNL     1      -4.632  12.574  19.921  0.00  0.00    +0.000 A 
ATOM     27  C   UNL     1      -5.568  12.589  20.969  0.00  0.00    +0.000 A 
ATOM     28  C   UNL     1      -5.067  12.558  22.272  0.00  0.00    +0.000 A 
ATOM     29  N   UNL     1      -5.690  12.569  23.493  0.00  0.00    +0.000 N 
ATOM     30  N   UNL     1      -4.847  12.535  24.542  0.00  0.00    +0.000 NA
ATOM     31  C   UNL     1      -3.643  12.504  23.966  0.00  0.00    +0.000 A 
ATOM     32  C   UNL     1      -3.707  12.511  22.553  0.00  0.00    +0.000 A 
ATOM     33  C   UNL     1      -2.783  12.498  21.490  0.00  0.00    +0.000 A 
ATOM     34  H   UNL     1      -6.686  12.603  23.683  0.00  0.00    +0.000 HD
ENDBRANCH  24  25
ENDBRANCH  22  24
ENDBRANCH  19  20
ENDBRANCH   9  19
TORSDOF 7
ENDMDL
MODEL 8
REMARK VINA RESULT:      -7.7      4.712      8.392
REMARK  Name = 
REMARK  8 active torsions:
REMARK  status: ('A' for Active; 'I' for Inactive)
REMARK    1  A    between atoms: C_1  and  C_2
REMARK    2  A    between atoms: N_6  and  C_7
REMARK    3  A    between atoms: C_7  and  C_8
REMARK    4  A    between atoms: C_8  and  C_9
REMARK    5  A    between atoms: N_17  and  C_18
REMARK    6  A    between atoms: C_18  and  C_19
REMARK    7  A    between atoms: N_21  and  C_22
REMARK    8  A    between atoms: C_22  and  C_23
REMARK                            x       y       z     vdW  Elec       q    Type
REMARK                         _______ _______ _______ _____ _____    ______ ____
ROOT
ATOM      1  C   UNL     1       0.150   9.891  22.481  0.00  0.00    +0.000 C 
ATOM      2  C   UNL     1       0.773   9.308  21.248  0.00  0.00    +0.000 A 
ATOM      3  C   UNL     1       1.192   8.031  21.288  0.00  0.00    +0.000 A 
ATOM      4  N   UNL     1       1.791   7.344  20.280  0.00  0.00    +0.000 NA
ATOM      5  C   UNL     1       2.005   7.974  19.153  0.00  0.00    +0.000 A 
ATOM      6  N   UNL     1       2.654   7.323  18.121  0.00  0.00    +0.000 N 
ATOM      7  C   UNL     1       1.554   9.454  18.969  0.00  0.00    +0.000 A 
ATOM      8  O   UNL     1       1.764   9.995  17.888  0.00  0.00    +0.000 OA
ATOM      9  N   UNL     1       0.948  10.056  20.080  0.00  0.00    +0.000 N 
ATOM     10  H   UNL     1       2.749   7.862  17.263  0.00  0.00    +0.000 HD
ENDROOT
BRANCH   6  11
ATOM     11  C   UNL     1       2.541   5.871  18.001  0.00  0.00    +0.000 C 
BRANCH  11  12
ATOM     12  C   UNL     1       3.777   5.161  18.548  0.00  0.00    +0.000 C 
BRANCH  12  13
ATOM     13  C   UNL     1       4.870   5.054  17.508  0.00  0.00    +0.000 A 
ATOM     14  C   UNL     1       4.808   4.069  16.512  0.00  0.00    +0.000 A 
ATOM     15  C   UNL     1       5.819   3.960  15.555  0.00  0.00    +0.000 A 
ATOM     16  C   UNL     1       6.907   4.830  15.588  0.00  0.00    +0.000 A 
ATOM     17  C   UNL     1       6.989   5.802  16.582  0.00  0.00    +0.000 A 
ATOM     18  C   UNL     1       5.978   5.913  17.541  0.00  0.00    +0.000 A 
ENDBRANCH  12  13
ENDBRANCH  11  12
ENDBRANCH   6  11
BRANCH   9  19
ATOM     19  C   UNL     1       0.549  11.471  19.951  0.00  0.00    +0.000 C 
BRANCH  19  20
ATOM     20  C   UNL     1      -0.916  11.723  19.538  0.00  0.00    +0.000 C 
ATOM     21  O   UNL     1      -1.341  11.479  18.419  0.00  0.00    +0.000 OA
ATOM     22  N   UNL     1      -1.750  12.181  20.555  0.00  0.00    +0.000 N 
ATOM     23  H   UNL     1      -1.350  12.603  21.389  0.00  0.00    +0.000 HD
BRANCH  22  24
ATOM     24  C   UNL     1      -3.142  12.465  20.247  0.00  0.00    +0.000 C 
BRANCH  24  25
ATOM     25  C   UNL     1      -4.027  12.742  21.442  0.00  0.00    +0.000 A 
ATOM     26  C   UNL     1      -3.478  12.994  22.709  0.00  0.00    +0.000 A 
ATOM     27  C   UNL     1      -4.278  13.152  23.852  0.00  0.00    +0.000 A 
ATOM     28  C   UNL     1      -5.661  13.055  23.681  0.00  0.00    +0.000 A 
ATOM     29  N   UNL     1      -6.702  13.149  24.567  0.00  0.00    +0.000 N 
ATOM     30  N   UNL     1      -7.916  12.989  24.010  0.00  0.00    +0.000 NA
ATOM     31  C   UNL     1      -7.637  12.783  22.720  0.00  0.00    +0.000 A 
ATOM     32  C   UNL     1      -6.250  12.816  22.446  0.00  0.00    +0.000 A 
ATOM     33  C   UNL     1      -5.431  12.659  21.310  0.00  0.00    +0.000 A 
ATOM     34  H   UNL     1      -6.655  13.317  25.567  0.00  0.00    +0.000 HD
ENDBRANCH  24  25
ENDBRANCH  22  24
ENDBRANCH  19  20
ENDBRANCH   9  19
TORSDOF 7
ENDMDL
MODEL 9
REMARK VINA RESULT:      -7.6      4.254      7.180
REMARK  Name = 
REMARK  8 active torsions:
REMARK  status: ('A' for Active; 'I' for Inactive)
REMARK    1  A    between atoms: C_1  and  C_2
REMARK    2  A    between atoms: N_6  and  C_7
REMARK    3  A    between atoms: C_7  and  C_8
REMARK    4  A    between atoms: C_8  and  C_9
REMARK    5  A    between atoms: N_17  and  C_18
REMARK    6  A    between atoms: C_18  and  C_19
REMARK    7  A    between atoms: N_21  and  C_22
REMARK    8  A    between atoms: C_22  and  C_23
REMARK                            x       y       z     vdW  Elec       q    Type
REMARK                         _______ _______ _______ _____ _____    ______ ____
ROOT
ATOM      1  C   UNL     1       0.620   8.873  21.822  0.00  0.00    +0.000 C 
ATOM      2  C   UNL     1       1.309   8.318  20.611  0.00  0.00    +0.000 A 
ATOM      3  C   UNL     1       1.893   7.110  20.706  0.00  0.00    +0.000 A 
ATOM      4  N   UNL     1       2.572   6.460  19.725  0.00  0.00    +0.000 NA
ATOM      5  C   UNL     1       2.697   7.059  18.568  0.00  0.00    +0.000 A 
ATOM      6  N   UNL     1       3.421   6.450  17.561  0.00  0.00    +0.000 N 
ATOM      7  C   UNL     1       2.054   8.456  18.319  0.00  0.00    +0.000 A 
ATOM      8  O   UNL     1       2.186   8.968  17.212  0.00  0.00    +0.000 OA
ATOM      9  N   UNL     1       1.379   9.026  19.408  0.00  0.00    +0.000 N 
ATOM     10  H   UNL     1       3.441   6.955  16.678  0.00  0.00    +0.000 HD
ENDROOT
BRANCH   6  11
ATOM     11  C   UNL     1       3.499   4.992  17.510  0.00  0.00    +0.000 C 
BRANCH  11  12
ATOM     12  C   UNL     1       4.851   4.517  16.984  0.00  0.00    +0.000 C 
BRANCH  12  13
ATOM     13  C   UNL     1       5.994   5.326  17.556  0.00  0.00    +0.000 A 
ATOM     14  C   UNL     1       6.527   5.010  18.814  0.00  0.00    +0.000 A 
ATOM     15  C   UNL     1       7.577   5.759  19.350  0.00  0.00    +0.000 A 
ATOM     16  C   UNL     1       8.099   6.838  18.639  0.00  0.00    +0.000 A 
ATOM     17  C   UNL     1       7.567   7.172  17.395  0.00  0.00    +0.000 A 
ATOM     18  C   UNL     1       6.517   6.424  16.857  0.00  0.00    +0.000 A 
ENDBRANCH  12  13
ENDBRANCH  11  12
ENDBRANCH   6  11
BRANCH   9  19
ATOM     19  C   UNL     1       0.796  10.368  19.217  0.00  0.00    +0.000 C 
BRANCH  19  20
ATOM     20  C   UNL     1      -0.645  10.406  18.668  0.00  0.00    +0.000 C 
ATOM     21  O   UNL     1      -1.390   9.439  18.695  0.00  0.00    +0.000 OA
ATOM     22  N   UNL     1      -1.072  11.648  18.205  0.00  0.00    +0.000 N 
ATOM     23  H   UNL     1      -0.391  12.363  17.965  0.00  0.00    +0.000 HD
BRANCH  22  24
ATOM     24  C   UNL     1      -2.411  11.768  17.651  0.00  0.00    +0.000 C 
BRANCH  24  25
ATOM     25  C   UNL     1      -3.519  11.951  18.664  0.00  0.00    +0.000 A 
ATOM     26  C   UNL     1      -3.270  12.547  19.910  0.00  0.00    +0.000 A 
ATOM     27  C   UNL     1      -4.257  12.636  20.906  0.00  0.00    +0.000 A 
ATOM     28  C   UNL     1      -5.515  12.108  20.606  0.00  0.00    +0.000 A 
ATOM     29  N   UNL     1      -6.671  12.025  21.337  0.00  0.00    +0.000 N 
ATOM     30  N   UNL     1      -7.691  11.429  20.690  0.00  0.00    +0.000 NA
ATOM     31  C   UNL     1      -7.161  11.119  19.504  0.00  0.00    +0.000 A 
ATOM     32  C   UNL     1      -5.810  11.518  19.383  0.00  0.00    +0.000 A 
ATOM     33  C   UNL     1      -4.807  11.437  18.396  0.00  0.00    +0.000 A 
ATOM     34  H   UNL     1      -6.834  12.352  22.284  0.00  0.00    +0.000 HD
ENDBRANCH  24  25
ENDBRANCH  22  24
ENDBRANCH  19  20
ENDBRANCH   9  19
TORSDOF 7
ENDMDL
