MODEL 1
REMARK VINA RESULT:      -7.7      0.000      0.000
REMARK  Name = 
REMARK  7 active torsions:
REMARK  status: ('A' for Active; 'I' for Inactive)
REMARK    1  A    between atoms: C_1  and  O_2
REMARK    2  A    between atoms: O_2  and  C_3
REMARK    3  A    between atoms: C_8  and  N_9
REMARK    4  A    between atoms: C_10  and  C_12
REMARK    5  A    between atoms: C_12  and  C_13
REMARK    6  A    between atoms: C_13  and  C_14
REMARK    7  A    between atoms: C_14  and  N_15
REMARK                            x       y       z     vdW  Elec       q    Type
REMARK                         _______ _______ _______ _____ _____    ______ ____
ROOT
ATOM      1  C   UNL     1       2.558   4.078  21.423  0.00  0.00    +0.000 C 
ENDROOT
BRANCH   1   3
ATOM      2  N   UNL     1       2.653   6.294  20.358  0.00  0.00    +0.000 N 
ATOM      3  C   UNL     1       1.951   5.101  20.474  0.00  0.00    +0.000 C 
ATOM      4  O   UNL     1       0.893   4.826  19.909  0.00  0.00    +0.000 OA
ATOM      5  H   UNL     1       3.616   6.333  20.682  0.00  0.00    +0.000 HD
BRANCH   2  11
ATOM      6  C   UNL     1       1.425   8.417  20.312  0.00  0.00    +0.000 A 
ATOM      7  C   UNL     1       0.957   9.535  19.602  0.00  0.00    +0.000 A 
ATOM      8  C   UNL     1       1.288   9.724  18.266  0.00  0.00    +0.000 A 
ATOM      9  C   UNL     1       2.073   8.782  17.614  0.00  0.00    +0.000 A 
ATOM     10  C   UNL     1       2.522   7.651  18.299  0.00  0.00    +0.000 A 
ATOM     11  C   UNL     1       2.216   7.451  19.651  0.00  0.00    +0.000 A 
BRANCH   6  13
ATOM     12  C   UNL     1      -0.178   8.561  22.053  0.00  0.00    +0.000 C 
ATOM     13  O   UNL     1       1.150   8.208  21.648  0.00  0.00    +0.000 OA
ENDBRANCH   6  13
ENDBRANCH   2  11
ENDBRANCH   1   3
BRANCH   1  14
ATOM     14  C   UNL     1       2.893   2.799  20.661  0.00  0.00    +0.000 C 
BRANCH  14  15
ATOM     15  C   UNL     1       4.385   2.659  20.322  0.00  0.00    +0.000 C 
BRANCH  15  16
ATOM     16  N   UNL     1       4.689   3.449  19.134  0.00  0.00    +0.000 N 
ATOM     17  C   UNL     1       4.127   3.218  17.913  0.00  0.00    +0.000 C 
ATOM     18  O   UNL     1       3.480   2.231  17.595  0.00  0.00    +0.000 OA
ATOM     19  C   UNL     1       4.342   4.431  17.038  0.00  0.00    +0.000 C 
ATOM     20  C   UNL     1       4.696   4.082  15.596  0.00  0.00    +0.000 C 
ATOM     21  C   UNL     1       6.062   4.475  15.142  0.00  0.00    +0.000 C 
ATOM     22  C   UNL     1       6.902   5.230  15.855  0.00  0.00    +0.000 C 
ATOM     23  C   UNL     1       6.596   5.787  17.207  0.00  0.00    +0.000 C 
ATOM     24  C   UNL     1       5.294   5.314  17.849  0.00  0.00    +0.000 C 
ATOM     25  C   UNL     1       5.506   4.543  19.134  0.00  0.00    +0.000 C 
ATOM     26  O   UNL     1       6.245   4.892  20.043  0.00  0.00    +0.000 OA
ENDBRANCH  15  16
ENDBRANCH  14  15
ENDBRANCH   1  14
TORSDOF 6
ENDMDL
MODEL 2
REMARK VINA RESULT:      -7.3      1.973      4.262
REMARK  Name = 
REMARK  7 active torsions:
REMARK  status: ('A' for Active; 'I' for Inactive)
REMARK    1  A    between atoms: C_1  and  O_2
REMARK    2  A    between atoms: O_2  and  C_3
REMARK    3  A    between atoms: C_8  and  N_9
REMARK    4  A    between atoms: C_10  and  C_12
REMARK    5  A    between atoms: C_12  and  C_13
REMARK    6  A    between atoms: C_13  and  C_14
REMARK    7  A    between atoms: C_14  and  N_15
REMARK                            x       y       z     vdW  Elec       q    Type
REMARK                         _______ _______ _______ _____ _____    ______ ____
ROOT
ATOM      1  C   UNL     1       3.138   7.583  17.499  0.00  0.00    +0.000 C 
ENDROOT
BRANCH   1   3
ATOM      2  N   UNL     1       1.596   8.871  18.919  0.00  0.00    +0.000 N 
ATOM      3  C   UNL     1       2.398   7.741  18.819  0.00  0.00    +0.000 C 
ATOM      4  O   UNL     1       2.574   6.898  19.699  0.00  0.00    +0.000 OA
ATOM      5  H   UNL     1       1.344   9.373  18.072  0.00  0.00    +0.000 HD
BRANCH   2  11
ATOM      6  C   UNL     1      -0.061  10.321  20.000  0.00  0.00    +0.000 A 
ATOM      7  C   UNL     1      -0.691  10.787  21.166  0.00  0.00    +0.000 A 
ATOM      8  C   UNL     1      -0.385  10.248  22.409  0.00  0.00    +0.000 A 
ATOM      9  C   UNL     1       0.575   9.249  22.506  0.00  0.00    +0.000 A 
ATOM     10  C   UNL     1       1.231   8.796  21.360  0.00  0.00    +0.000 A 
ATOM     11  C   UNL     1       0.924   9.312  20.095  0.00  0.00    +0.000 A 
BRANCH   6  13
ATOM     12  C   UNL     1      -1.750  10.769  18.398  0.00  0.00    +0.000 C 
ATOM     13  O   UNL     1      -0.359  10.802  18.743  0.00  0.00    +0.000 OA
ENDBRANCH   6  13
ENDBRANCH   2  11
ENDBRANCH   1   3
BRANCH   1  14
ATOM     14  C   UNL     1       4.334   6.652  17.684  0.00  0.00    +0.000 C 
BRANCH  14  15
ATOM     15  C   UNL     1       4.154   5.281  17.011  0.00  0.00    +0.000 C 
BRANCH  15  16
ATOM     16  N   UNL     1       3.586   4.341  17.971  0.00  0.00    +0.000 N 
ATOM     17  C   UNL     1       2.274   3.968  17.973  0.00  0.00    +0.000 C 
ATOM     18  O   UNL     1       1.375   4.501  17.339  0.00  0.00    +0.000 OA
ATOM     19  C   UNL     1       2.122   2.718  18.808  0.00  0.00    +0.000 C 
ATOM     20  C   UNL     1       0.870   2.721  19.679  0.00  0.00    +0.000 C 
ATOM     21  C   UNL     1       1.098   2.744  21.154  0.00  0.00    +0.000 C 
ATOM     22  C   UNL     1       2.294   2.606  21.732  0.00  0.00    +0.000 C 
ATOM     23  C   UNL     1       3.574   2.411  20.986  0.00  0.00    +0.000 C 
ATOM     24  C   UNL     1       3.492   2.538  19.467  0.00  0.00    +0.000 C 
ATOM     25  C   UNL     1       4.317   3.682  18.917  0.00  0.00    +0.000 C 
ATOM     26  O   UNL     1       5.474   3.922  19.232  0.00  0.00    +0.000 OA
ENDBRANCH  15  16
ENDBRANCH  14  15
ENDBRANCH   1  14
TORSDOF 6
ENDMDL
MODEL 3
REMARK VINA RESULT:      -7.1      0.804      1.973
REMARK  Name = 
REMARK  7 active torsions:
REMARK  status: ('A' for Active; 'I' for Inactive)
REMARK    1  A    between atoms: C_1  and  O_2
REMARK    2  A    between atoms: O_2  and  C_3
REMARK    3  A    between atoms: C_8  and  N_9
REMARK    4  A    between atoms: C_10  and  C_12
REMARK    5  A    between atoms: C_12  and  C_13
REMARK    6  A    between atoms: C_13  and  C_14
REMARK    7  A    between atoms: C_14  and  N_15
REMARK                            x       y       z     vdW  Elec       q    Type
REMARK                         _______ _______ _______ _____ _____    ______ ____
ROOT
ATOM      1  C   UNL     1       2.533   3.952  20.951  0.00  0.00    +0.000 C 
ENDROOT
BRANCH   1   3
ATOM      2  N   UNL     1       2.561   6.317  20.274  0.00  0.00    +0.000 N 
ATOM      3  C   UNL     1       2.056   5.049  20.011  0.00  0.00    +0.000 C 
ATOM      4  O   UNL     1       1.255   4.758  19.123  0.00  0.00    +0.000 OA
ATOM      5  H   UNL     1       3.376   6.409  20.874  0.00  0.00    +0.000 HD
BRANCH   2  11
ATOM      6  C   UNL     1       1.350   8.449  20.330  0.00  0.00    +0.000 A 
ATOM      7  C   UNL     1       0.914   9.616  19.681  0.00  0.00    +0.000 A 
ATOM      8  C   UNL     1       1.291   9.891  18.372  0.00  0.00    +0.000 A 
ATOM      9  C   UNL     1       2.092   8.988  17.685  0.00  0.00    +0.000 A 
ATOM     10  C   UNL     1       2.509   7.810  18.307  0.00  0.00    +0.000 A 
ATOM     11  C   UNL     1       2.156   7.522  19.632  0.00  0.00    +0.000 A 
BRANCH   6  13
ATOM     12  C   UNL     1       0.849   9.294  22.487  0.00  0.00    +0.000 C 
ATOM     13  O   UNL     1       1.028   8.154  21.638  0.00  0.00    +0.000 OA
ENDBRANCH   6  13
ENDBRANCH   2  11
ENDBRANCH   1   3
BRANCH   1  14
ATOM     14  C   UNL     1       2.936   2.719  20.145  0.00  0.00    +0.000 C 
BRANCH  14  15
ATOM     15  C   UNL     1       4.457   2.555  19.995  0.00  0.00    +0.000 C 
BRANCH  15  16
ATOM     16  N   UNL     1       4.939   3.445  18.945  0.00  0.00    +0.000 N 
ATOM     17  C   UNL     1       5.921   4.373  19.137  0.00  0.00    +0.000 C 
ATOM     18  O   UNL     1       6.371   4.729  20.216  0.00  0.00    +0.000 OA
ATOM     19  C   UNL     1       6.441   4.821  17.791  0.00  0.00    +0.000 C 
ATOM     20  C   UNL     1       6.712   6.320  17.716  0.00  0.00    +0.000 C 
ATOM     21  C   UNL     1       5.853   7.095  16.774  0.00  0.00    +0.000 C 
ATOM     22  C   UNL     1       4.998   6.543  15.909  0.00  0.00    +0.000 C 
ATOM     23  C   UNL     1       4.780   5.073  15.760  0.00  0.00    +0.000 C 
ATOM     24  C   UNL     1       5.478   4.183  16.786  0.00  0.00    +0.000 C 
ATOM     25  C   UNL     1       4.516   3.394  17.648  0.00  0.00    +0.000 C 
ATOM     26  O   UNL     1       3.557   2.765  17.226  0.00  0.00    +0.000 OA
ENDBRANCH  15  16
ENDBRANCH  14  15
ENDBRANCH   1  14
TORSDOF 6
ENDMDL
MODEL 4
REMARK VINA RESULT:      -7.0      2.678      7.123
REMARK  Name = 
REMARK  7 active torsions:
REMARK  status: ('A' for Active; 'I' for Inactive)
REMARK    1  A    between atoms: C_1  and  O_2
REMARK    2  A    between atoms: O_2  and  C_3
REMARK    3  A    between atoms: C_8  and  N_9
REMARK    4  A    between atoms: C_10  and  C_12
REMARK    5  A    between atoms: C_12  and  C_13
REMARK    6  A    between atoms: C_13  and  C_14
REMARK    7  A    between atoms: C_14  and  N_15
REMARK                            x       y       z     vdW  Elec       q    Type
REMARK                         _______ _______ _______ _____ _____    ______ ____
ROOT
ATOM      1  C   UNL     1       7.314   6.226  18.020  0.00  0.00    +0.000 C 
ENDROOT
BRANCH   1   3
ATOM      2  N   UNL     1       6.757   5.717  15.679  0.00  0.00    +0.000 N 
ATOM      3  C   UNL     1       7.416   5.290  16.825  0.00  0.00    +0.000 C 
ATOM      4  O   UNL     1       8.033   4.233  16.954  0.00  0.00    +0.000 OA
ATOM      5  H   UNL     1       6.476   6.691  15.605  0.00  0.00    +0.000 HD
BRANCH   2  11
ATOM      6  C   UNL     1       7.540   5.057  13.450  0.00  0.00    +0.000 A 
ATOM      7  C   UNL     1       7.347   4.341  12.257  0.00  0.00    +0.000 A 
ATOM      8  C   UNL     1       6.247   3.509  12.091  0.00  0.00    +0.000 A 
ATOM      9  C   UNL     1       5.310   3.399  13.111  0.00  0.00    +0.000 A 
ATOM     10  C   UNL     1       5.474   4.126  14.292  0.00  0.00    +0.000 A 
ATOM     11  C   UNL     1       6.586   4.956  14.486  0.00  0.00    +0.000 A 
BRANCH   6  13
ATOM     12  C   UNL     1       9.322   6.288  12.485  0.00  0.00    +0.000 C 
ATOM     13  O   UNL     1       8.636   5.866  13.670  0.00  0.00    +0.000 OA
ENDBRANCH   6  13
ENDBRANCH   2  11
ENDBRANCH   1   3
BRANCH   1  14
ATOM     14  C   UNL     1       6.006   5.973  18.766  0.00  0.00    +0.000 C 
BRANCH  14  15
ATOM     15  C   UNL     1       4.756   6.356  17.957  0.00  0.00    +0.000 C 
BRANCH  15  16
ATOM     16  N   UNL     1       3.682   5.413  18.250  0.00  0.00    +0.000 N 
ATOM     17  C   UNL     1       2.649   5.689  19.096  0.00  0.00    +0.000 C 
ATOM     18  O   UNL     1       2.583   6.639  19.865  0.00  0.00    +0.000 OA
ATOM     19  C   UNL     1       1.542   4.688  18.861  0.00  0.00    +0.000 C 
ATOM     20  C   UNL     1       0.877   4.208  20.147  0.00  0.00    +0.000 C 
ATOM     21  C   UNL     1       1.057   2.764  20.477  0.00  0.00    +0.000 C 
ATOM     22  C   UNL     1       1.614   1.869  19.658  0.00  0.00    +0.000 C 
ATOM     23  C   UNL     1       2.137   2.184  18.295  0.00  0.00    +0.000 C 
ATOM     24  C   UNL     1       2.162   3.661  17.910  0.00  0.00    +0.000 C 
ATOM     25  C   UNL     1       3.557   4.190  17.656  0.00  0.00    +0.000 C 
ATOM     26  O   UNL     1       4.401   3.630  16.971  0.00  0.00    +0.000 OA
ENDBRANCH  15  16
ENDBRANCH  14  15
ENDBRANCH   1  14
TORSDOF 6
ENDMDL
MODEL 5
REMARK VINA RESULT:      -6.9      5.520      7.353
REMARK  Name = 
REMARK  7 active torsions:
REMARK  status: ('A' for Active; 'I' for Inactive)
REMARK    1  A    between atoms: C_1  and  O_2
REMARK    2  A    between atoms: O_2  and  C_3
REMARK    3  A    between atoms: C_8  and  N_9
REMARK    4  A    between atoms: C_10  and  C_12
REMARK    5  A    between atoms: C_12  and  C_13
REMARK    6  A    between atoms: C_13  and  C_14
REMARK    7  A    between atoms: C_14  and  N_15
REMARK                            x       y       z     vdW  Elec       q    Type
REMARK                         _______ _______ _______ _____ _____    ______ ____
ROOT
ATOM      1  C   UNL     1       7.814   8.673  17.547  0.00  0.00    +0.000 C 
ENDROOT
BRANCH   1   3
ATOM      2  N   UNL     1       8.880  10.875  17.809  0.00  0.00    +0.000 N 
ATOM      3  C   UNL     1       8.673   9.621  18.371  0.00  0.00    +0.000 C 
ATOM      4  O   UNL     1       9.140   9.219  19.436  0.00  0.00    +0.000 OA
ATOM      5  H   UNL     1       8.276  11.182  17.051  0.00  0.00    +0.000 HD
BRANCH   2  11
ATOM      6  C   UNL     1       9.351  13.230  18.308  0.00  0.00    +0.000 A 
ATOM      7  C   UNL     1      10.235  14.222  18.763  0.00  0.00    +0.000 A 
ATOM      8  C   UNL     1      11.493  13.892  19.250  0.00  0.00    +0.000 A 
ATOM      9  C   UNL     1      11.894  12.562  19.266  0.00  0.00    +0.000 A 
ATOM     10  C   UNL     1      11.038  11.568  18.791  0.00  0.00    +0.000 A 
ATOM     11  C   UNL     1       9.758  11.877  18.313  0.00  0.00    +0.000 A 
BRANCH   6  13
ATOM     12  C   UNL     1       7.671  14.875  18.002  0.00  0.00    +0.000 C 
ATOM     13  O   UNL     1       8.081  13.510  17.850  0.00  0.00    +0.000 OA
ENDBRANCH   6  13
ENDBRANCH   2  11
ENDBRANCH   1   3
BRANCH   1  14
ATOM     14  C   UNL     1       7.858   7.274  18.156  0.00  0.00    +0.000 C 
BRANCH  14  15
ATOM     15  C   UNL     1       7.165   6.207  17.292  0.00  0.00    +0.000 C 
BRANCH  15  16
ATOM     16  N   UNL     1       5.836   5.937  17.829  0.00  0.00    +0.000 N 
ATOM     17  C   UNL     1       5.610   5.133  18.907  0.00  0.00    +0.000 C 
ATOM     18  O   UNL     1       6.424   4.384  19.428  0.00  0.00    +0.000 OA
ATOM     19  C   UNL     1       4.214   5.391  19.426  0.00  0.00    +0.000 C 
ATOM     20  C   UNL     1       3.482   4.122  19.849  0.00  0.00    +0.000 C 
ATOM     21  C   UNL     1       2.278   3.761  19.044  0.00  0.00    +0.000 C 
ATOM     22  C   UNL     1       1.737   4.545  18.108  0.00  0.00    +0.000 C 
ATOM     23  C   UNL     1       2.258   5.894  17.733  0.00  0.00    +0.000 C 
ATOM     24  C   UNL     1       3.585   6.302  18.369  0.00  0.00    +0.000 C 
ATOM     25  C   UNL     1       4.692   6.515  17.359  0.00  0.00    +0.000 C 
ATOM     26  O   UNL     1       4.580   7.159  16.326  0.00  0.00    +0.000 OA
ENDBRANCH  15  16
ENDBRANCH  14  15
ENDBRANCH   1  14
TORSDOF 6
ENDMDL
MODEL 6
REMARK VINA RESULT:      -6.9      6.704      9.383
REMARK  Name = 
REMARK  7 active torsions:
REMARK  status: ('A' for Active; 'I' for Inactive)
REMARK    1  A    between atoms: C_1  and  O_2
REMARK    2  A    between atoms: O_2  and  C_3
REMARK    3  A    between atoms: C_8  and  N_9
REMARK    4  A    between atoms: C_10  and  C_12
REMARK    5  A    between atoms: C_12  and  C_13
REMARK    6  A    between atoms: C_13  and  C_14
REMARK    7  A    between atoms: C_14  and  N_15
REMARK                            x       y       z     vdW  Elec       q    Type
REMARK                         _______ _______ _______ _____ _____    ______ ____
ROOT
ATOM      1  C   UNL     1       8.192   9.256  17.654  0.00  0.00    +0.000 C 
ENDROOT
BRANCH   1   3
ATOM      2  N   UNL     1       6.741   7.425  16.884  0.00  0.00    +0.000 N 
ATOM      3  C   UNL     1       7.716   7.818  17.793  0.00  0.00    +0.000 C 
ATOM      4  O   UNL     1       8.188   7.124  18.692  0.00  0.00    +0.000 OA
ATOM      5  H   UNL     1       6.586   7.989  16.052  0.00  0.00    +0.000 HD
BRANCH   2  11
ATOM      6  C   UNL     1       6.307   5.214  15.914  0.00  0.00    +0.000 A 
ATOM      7  C   UNL     1       5.581   4.012  15.906  0.00  0.00    +0.000 A 
ATOM      8  C   UNL     1       4.622   3.748  16.877  0.00  0.00    +0.000 A 
ATOM      9  C   UNL     1       4.361   4.697  17.857  0.00  0.00    +0.000 A 
ATOM     10  C   UNL     1       5.054   5.908  17.861  0.00  0.00    +0.000 A 
ATOM     11  C   UNL     1       6.037   6.186  16.903  0.00  0.00    +0.000 A 
BRANCH   6  13
ATOM     12  C   UNL     1       7.209   4.757  13.769  0.00  0.00    +0.000 C 
ATOM     13  O   UNL     1       7.291   5.502  14.991  0.00  0.00    +0.000 OA
ENDBRANCH   6  13
ENDBRANCH   2  11
ENDBRANCH   1   3
BRANCH   1  14
ATOM     14  C   UNL     1       9.256   9.552  18.708  0.00  0.00    +0.000 C 
BRANCH  14  15
ATOM     15  C   UNL     1       8.898  10.731  19.627  0.00  0.00    +0.000 C 
BRANCH  15  16
ATOM     16  N   UNL     1       9.646  11.914  19.213  0.00  0.00    +0.000 N 
ATOM     17  C   UNL     1      10.910  12.192  19.642  0.00  0.00    +0.000 C 
ATOM     18  O   UNL     1      11.497  11.635  20.559  0.00  0.00    +0.000 OA
ATOM     19  C   UNL     1      11.517  13.236  18.734  0.00  0.00    +0.000 C 
ATOM     20  C   UNL     1      12.331  14.288  19.480  0.00  0.00    +0.000 C 
ATOM     21  C   UNL     1      11.797  15.681  19.438  0.00  0.00    +0.000 C 
ATOM     22  C   UNL     1      10.770  16.070  18.678  0.00  0.00    +0.000 C 
ATOM     23  C   UNL     1      10.008  15.167  17.764  0.00  0.00    +0.000 C 
ATOM     24  C   UNL     1      10.352  13.682  17.846  0.00  0.00    +0.000 C 
ATOM     25  C   UNL     1       9.192  12.822  18.301  0.00  0.00    +0.000 C 
ATOM     26  O   UNL     1       8.053  12.900  17.864  0.00  0.00    +0.000 OA
ENDBRANCH  15  16
ENDBRANCH  14  15
ENDBRANCH   1  14
TORSDOF 6
ENDMDL
MODEL 7
REMARK VINA RESULT:      -6.9      1.638      3.742
REMARK  Name = 
REMARK  7 active torsions:
REMARK  status: ('A' for Active; 'I' for Inactive)
REMARK    1  A    between atoms: C_1  and  O_2
REMARK    2  A    between atoms: O_2  and  C_3
REMARK    3  A    between atoms: C_8  and  N_9
REMARK    4  A    between atoms: C_10  and  C_12
REMARK    5  A    between atoms: C_12  and  C_13
REMARK    6  A    between atoms: C_13  and  C_14
REMARK    7  A    between atoms: C_14  and  N_15
REMARK                            x       y       z     vdW  Elec       q    Type
REMARK                         _______ _______ _______ _____ _____    ______ ____
ROOT
ATOM      1  C   UNL     1       4.272   6.579  18.035  0.00  0.00    +0.000 C 
ENDROOT
BRANCH   1   3
ATOM      2  N   UNL     1       2.659   8.407  18.365  0.00  0.00    +0.000 N 
ATOM      3  C   UNL     1       2.829   7.043  18.159  0.00  0.00    +0.000 C 
ATOM      4  O   UNL     1       1.932   6.203  18.100  0.00  0.00    +0.000 OA
ATOM      5  H   UNL     1       3.436   9.035  18.174  0.00  0.00    +0.000 HD
BRANCH   2  11
ATOM      6  C   UNL     1       1.003   9.188  19.996  0.00  0.00    +0.000 A 
ATOM      7  C   UNL     1      -0.236   9.790  20.277  0.00  0.00    +0.000 A 
ATOM      8  C   UNL     1      -1.038  10.288  19.258  0.00  0.00    +0.000 A 
ATOM      9  C   UNL     1      -0.621  10.170  17.938  0.00  0.00    +0.000 A 
ATOM     10  C   UNL     1       0.593   9.549  17.641  0.00  0.00    +0.000 A 
ATOM     11  C   UNL     1       1.425   9.057  18.655  0.00  0.00    +0.000 A 
BRANCH   6  13
ATOM     12  C   UNL     1       1.424   8.987  22.320  0.00  0.00    +0.000 C 
ATOM     13  O   UNL     1       1.845   8.713  20.978  0.00  0.00    +0.000 OA
ENDBRANCH   6  13
ENDBRANCH   2  11
ENDBRANCH   1   3
BRANCH   1  14
ATOM     14  C   UNL     1       4.452   5.787  16.741  0.00  0.00    +0.000 C 
BRANCH  14  15
ATOM     15  C   UNL     1       4.983   4.362  16.963  0.00  0.00    +0.000 C 
BRANCH  15  16
ATOM     16  N   UNL     1       4.123   3.667  17.915  0.00  0.00    +0.000 N 
ATOM     17  C   UNL     1       2.885   3.189  17.599  0.00  0.00    +0.000 C 
ATOM     18  O   UNL     1       2.253   3.446  16.585  0.00  0.00    +0.000 OA
ATOM     19  C   UNL     1       2.457   2.201  18.660  0.00  0.00    +0.000 C 
ATOM     20  C   UNL     1       0.986   2.324  19.042  0.00  0.00    +0.000 C 
ATOM     21  C   UNL     1       0.706   2.764  20.440  0.00  0.00    +0.000 C 
ATOM     22  C   UNL     1       1.638   2.897  21.386  0.00  0.00    +0.000 C 
ATOM     23  C   UNL     1       3.093   2.627  21.182  0.00  0.00    +0.000 C 
ATOM     24  C   UNL     1       3.526   2.333  19.747  0.00  0.00    +0.000 C 
ATOM     25  C   UNL     1       4.492   3.357  19.192  0.00  0.00    +0.000 C 
ATOM     26  O   UNL     1       5.477   3.778  19.781  0.00  0.00    +0.000 OA
ENDBRANCH  15  16
ENDBRANCH  14  15
ENDBRANCH   1  14
TORSDOF 6
ENDMDL
MODEL 8
REMARK VINA RESULT:      -6.9      3.403      5.442
REMARK  Name = 
REMARK  7 active torsions:
REMARK  status: ('A' for Active; 'I' for Inactive)
REMARK    1  A    between atoms: C_1  and  O_2
REMARK    2  A    between atoms: O_2  and  C_3
REMARK    3  A    between atoms: C_8  and  N_9
REMARK    4  A    between atoms: C_10  and  C_12
REMARK    5  A    between atoms: C_12  and  C_13
REMARK    6  A    between atoms: C_13  and  C_14
REMARK    7  A    between atoms: C_14  and  N_15
REMARK                            x       y       z     vdW  Elec       q    Type
REMARK                         _______ _______ _______ _____ _____    ______ ____
ROOT
ATOM      1  C   UNL     1       1.826   9.762  18.103  0.00  0.00    +0.000 C 
ENDROOT
BRANCH   1   3
ATOM      2  N   UNL     1      -0.471  10.589  17.802  0.00  0.00    +0.000 N 
ATOM      3  C   UNL     1       0.421   9.953  18.655  0.00  0.00    +0.000 C 
ATOM      4  O   UNL     1       0.180   9.569  19.800  0.00  0.00    +0.000 OA
ATOM      5  H   UNL     1      -0.244  10.660  16.814  0.00  0.00    +0.000 HD
BRANCH   2  11
ATOM      6  C   UNL     1      -2.883  10.577  17.357  0.00  0.00    +0.000 A 
ATOM      7  C   UNL     1      -4.178  11.028  17.665  0.00  0.00    +0.000 A 
ATOM      8  C   UNL     1      -4.406  11.867  18.749  0.00  0.00    +0.000 A 
ATOM      9  C   UNL     1      -3.335  12.286  19.528  0.00  0.00    +0.000 A 
ATOM     10  C   UNL     1      -2.039  11.869  19.217  0.00  0.00    +0.000 A 
ATOM     11  C   UNL     1      -1.790  11.009  18.140  0.00  0.00    +0.000 A 
BRANCH   6  13
ATOM     12  C   UNL     1      -2.901  10.242  15.010  0.00  0.00    +0.000 C 
ATOM     13  O   UNL     1      -2.618   9.717  16.313  0.00  0.00    +0.000 OA
ENDBRANCH   6  13
ENDBRANCH   2  11
ENDBRANCH   1   3
BRANCH   1  14
ATOM     14  C   UNL     1       2.047   8.294  17.745  0.00  0.00    +0.000 C 
BRANCH  14  15
ATOM     15  C   UNL     1       2.972   7.556  18.726  0.00  0.00    +0.000 C 
BRANCH  15  16
ATOM     16  N   UNL     1       2.705   6.124  18.660  0.00  0.00    +0.000 N 
ATOM     17  C   UNL     1       1.865   5.475  19.517  0.00  0.00    +0.000 C 
ATOM     18  O   UNL     1       1.399   5.933  20.550  0.00  0.00    +0.000 OA
ATOM     19  C   UNL     1       1.515   4.127  18.931  0.00  0.00    +0.000 C 
ATOM     20  C   UNL     1       1.479   3.008  19.968  0.00  0.00    +0.000 C 
ATOM     21  C   UNL     1       2.510   1.941  19.814  0.00  0.00    +0.000 C 
ATOM     22  C   UNL     1       3.330   1.832  18.766  0.00  0.00    +0.000 C 
ATOM     23  C   UNL     1       3.333   2.763  17.598  0.00  0.00    +0.000 C 
ATOM     24  C   UNL     1       2.438   3.994  17.718  0.00  0.00    +0.000 C 
ATOM     25  C   UNL     1       3.206   5.298  17.696  0.00  0.00    +0.000 C 
ATOM     26  O   UNL     1       4.087   5.575  16.893  0.00  0.00    +0.000 OA
ENDBRANCH  15  16
ENDBRANCH  14  15
ENDBRANCH   1  14
TORSDOF 6
ENDMDL
MODEL 9
REMARK VINA RESULT:      -6.8      2.466      4.581
REMARK  Name = 
REMARK  7 active torsions:
REMARK  status: ('A' for Active; 'I' for Inactive)
REMARK    1  A    between atoms: C_1  and  O_2
REMARK    2  A    between atoms: O_2  and  C_3
REMARK    3  A    between atoms: C_8  and  N_9
REMARK    4  A    between atoms: C_10  and  C_12
REMARK    5  A    between atoms: C_12  and  C_13
REMARK    6  A    between atoms: C_13  and  C_14
REMARK    7  A    between atoms: C_14  and  N_15
REMARK                            x       y       z     vdW  Elec       q    Type
REMARK                         _______ _______ _______ _____ _____    ______ ____
ROOT
ATOM      1  C   UNL     1       2.689   7.988  17.207  0.00  0.00    +0.000 C 
ENDROOT
BRANCH   1   3
ATOM      2  N   UNL     1       1.181   9.811  17.880  0.00  0.00    +0.000 N 
ATOM      3  C   UNL     1       1.843   8.657  18.279  0.00  0.00    +0.000 C 
ATOM      4  O   UNL     1       1.822   8.164  19.407  0.00  0.00    +0.000 OA
ATOM      5  H   UNL     1       1.082  10.005  16.887  0.00  0.00    +0.000 HD
BRANCH   2  11
ATOM      6  C   UNL     1      -0.958  10.725  18.657  0.00  0.00    +0.000 A 
ATOM      7  C   UNL     1      -1.674  11.623  19.466  0.00  0.00    +0.000 A 
ATOM      8  C   UNL     1      -1.018  12.455  20.365  0.00  0.00    +0.000 A 
ATOM      9  C   UNL     1       0.367  12.416  20.451  0.00  0.00    +0.000 A 
ATOM     10  C   UNL     1       1.094  11.549  19.633  0.00  0.00    +0.000 A 
ATOM     11  C   UNL     1       0.452  10.689  18.733  0.00  0.00    +0.000 A 
BRANCH   6  13
ATOM     12  C   UNL     1      -2.202  10.483  16.653  0.00  0.00    +0.000 C 
ATOM     13  O   UNL     1      -1.571   9.858  17.777  0.00  0.00    +0.000 OA
ENDBRANCH   6  13
ENDBRANCH   2  11
ENDBRANCH   1   3
BRANCH   1  14
ATOM     14  C   UNL     1       3.828   7.206  17.858  0.00  0.00    +0.000 C 
BRANCH  14  15
ATOM     15  C   UNL     1       4.092   5.844  17.197  0.00  0.00    +0.000 C 
BRANCH  15  16
ATOM     16  N   UNL     1       3.576   4.782  18.054  0.00  0.00    +0.000 N 
ATOM     17  C   UNL     1       2.272   4.381  18.052  0.00  0.00    +0.000 C 
ATOM     18  O   UNL     1       1.341   4.966  17.517  0.00  0.00    +0.000 OA
ATOM     19  C   UNL     1       2.172   3.037  18.734  0.00  0.00    +0.000 C 
ATOM     20  C   UNL     1       0.951   2.906  19.639  0.00  0.00    +0.000 C 
ATOM     21  C   UNL     1       1.230   2.756  21.097  0.00  0.00    +0.000 C 
ATOM     22  C   UNL     1       2.447   2.577  21.616  0.00  0.00    +0.000 C 
ATOM     23  C   UNL     1       3.704   2.502  20.811  0.00  0.00    +0.000 C 
ATOM     24  C   UNL     1       3.567   2.810  19.322  0.00  0.00    +0.000 C 
ATOM     25  C   UNL     1       4.351   4.030  18.889  0.00  0.00    +0.000 C 
ATOM     26  O   UNL     1       5.514   4.257  19.194  0.00  0.00    +0.000 OA
ENDBRANCH  15  16
ENDBRANCH  14  15
ENDBRANCH   1  14
TORSDOF 6
ENDMDL
