MODEL 1
REMARK VINA RESULT:      -7.2      0.000      0.000
REMARK  Name = 
REMARK  3 active torsions:
REMARK  status: ('A' for Active; 'I' for Inactive)
REMARK    1  A    between atoms: C_1  and  O_2
REMARK    2  A    between atoms: O_2  and  C_3
REMARK    3  A    between atoms: C_3  and  C_5
REMARK                            x       y       z     vdW  Elec       q    Type
REMARK                         _______ _______ _______ _____ _____    ______ ____
ROOT
ATOM      1  C   UNL     1       5.245   6.168  17.427  0.00  0.00    +0.000 C 
ATOM      2  C   UNL     1       4.077   5.525  17.166  0.00  0.00    +0.000 C 
ATOM      3  C   UNL     1       2.950   5.997  18.070  0.00  0.00    +0.000 A 
ATOM      4  C   UNL     1       2.648   7.312  18.411  0.00  0.00    +0.000 A 
ATOM      5  C   UNL     1       2.092   7.566  19.673  0.00  0.00    +0.000 A 
ATOM      6  C   UNL     1       1.840   6.523  20.575  0.00  0.00    +0.000 A 
ATOM      7  C   UNL     1       2.001   5.199  20.178  0.00  0.00    +0.000 A 
ATOM      8  C   UNL     1       2.474   4.974  18.894  0.00  0.00    +0.000 A 
ATOM      9  S   UNL     1       2.955   3.435  18.244  0.00  0.00    +0.000 S 
ATOM     10  O   UNL     1       3.318   2.565  19.332  0.00  0.00    +0.000 OA
ATOM     11  O   UNL     1       1.997   3.078  17.228  0.00  0.00    +0.000 OA
ATOM     12  N   UNL     1       4.378   4.100  17.519  0.00  0.00    +0.000 N 
ATOM     13  C   UNL     1       5.587   4.108  18.417  0.00  0.00    +0.000 C 
ATOM     14  C   UNL     1       5.819   5.585  18.702  0.00  0.00    +0.000 C 
ENDROOT
BRANCH   1  15
ATOM     15  C   UNL     1       6.385   6.346  16.480  0.00  0.00    +0.000 C 
ATOM     16  O   UNL     1       7.513   6.596  16.887  0.00  0.00    +0.000 OA
BRANCH  15  18
ATOM     17  C   UNL     1       6.930   4.785  14.822  0.00  0.00    +0.000 C 
ATOM     18  O   UNL     1       6.087   5.861  15.242  0.00  0.00    +0.000 OA
ENDBRANCH  15  18
ENDBRANCH   1  15
TORSDOF 2
ENDMDL
MODEL 2
REMARK VINA RESULT:      -7.2      2.017      4.811
REMARK  Name = 
REMARK  3 active torsions:
REMARK  status: ('A' for Active; 'I' for Inactive)
REMARK    1  A    between atoms: C_1  and  O_2
REMARK    2  A    between atoms: O_2  and  C_3
REMARK    3  A    between atoms: C_3  and  C_5
REMARK                            x       y       z     vdW  Elec       q    Type
REMARK                         _______ _______ _______ _____ _____    ______ ____
ROOT
ATOM      1  C   UNL     1       1.886   3.892  18.979  0.00  0.00    +0.000 C 
ATOM      2  C   UNL     1       3.101   4.320  19.410  0.00  0.00    +0.000 C 
ATOM      3  C   UNL     1       3.325   5.794  19.115  0.00  0.00    +0.000 A 
ATOM      4  C   UNL     1       2.415   6.830  19.299  0.00  0.00    +0.000 A 
ATOM      5  C   UNL     1       2.465   7.928  18.429  0.00  0.00    +0.000 A 
ATOM      6  C   UNL     1       3.411   7.989  17.396  0.00  0.00    +0.000 A 
ATOM      7  C   UNL     1       4.413   7.029  17.306  0.00  0.00    +0.000 A 
ATOM      8  C   UNL     1       4.389   5.997  18.232  0.00  0.00    +0.000 A 
ATOM      9  S   UNL     1       5.394   4.578  18.199  0.00  0.00    +0.000 S 
ATOM     10  O   UNL     1       5.832   4.351  16.847  0.00  0.00    +0.000 OA
ATOM     11  O   UNL     1       6.294   4.661  19.322  0.00  0.00    +0.000 OA
ATOM     12  N   UNL     1       4.065   3.535  18.572  0.00  0.00    +0.000 N 
ATOM     13  C   UNL     1       3.308   3.038  17.369  0.00  0.00    +0.000 C 
ATOM     14  C   UNL     1       1.959   3.735  17.474  0.00  0.00    +0.000 C 
ENDROOT
BRANCH   1  15
ATOM     15  C   UNL     1       1.129   2.715  19.501  0.00  0.00    +0.000 C 
ATOM     16  O   UNL     1       0.237   2.193  18.843  0.00  0.00    +0.000 OA
BRANCH  15  18
ATOM     17  C   UNL     1       1.352   2.620  21.829  0.00  0.00    +0.000 C 
ATOM     18  O   UNL     1       1.771   2.134  20.552  0.00  0.00    +0.000 OA
ENDBRANCH  15  18
ENDBRANCH   1  15
TORSDOF 2
ENDMDL
MODEL 3
REMARK VINA RESULT:      -7.1      0.723      1.331
REMARK  Name = 
REMARK  3 active torsions:
REMARK  status: ('A' for Active; 'I' for Inactive)
REMARK    1  A    between atoms: C_1  and  O_2
REMARK    2  A    between atoms: O_2  and  C_3
REMARK    3  A    between atoms: C_3  and  C_5
REMARK                            x       y       z     vdW  Elec       q    Type
REMARK                         _______ _______ _______ _____ _____    ______ ____
ROOT
ATOM      1  C   UNL     1       5.224   6.095  17.802  0.00  0.00    +0.000 C 
ATOM      2  C   UNL     1       4.042   5.536  17.430  0.00  0.00    +0.000 C 
ATOM      3  C   UNL     1       2.884   6.031  18.280  0.00  0.00    +0.000 A 
ATOM      4  C   UNL     1       2.634   7.343  18.669  0.00  0.00    +0.000 A 
ATOM      5  C   UNL     1       2.007   7.569  19.903  0.00  0.00    +0.000 A 
ATOM      6  C   UNL     1       1.634   6.500  20.730  0.00  0.00    +0.000 A 
ATOM      7  C   UNL     1       1.747   5.190  20.276  0.00  0.00    +0.000 A 
ATOM      8  C   UNL     1       2.294   5.000  19.016  0.00  0.00    +0.000 A 
ATOM      9  S   UNL     1       2.731   3.468  18.319  0.00  0.00    +0.000 S 
ATOM     10  O   UNL     1       2.968   2.525  19.381  0.00  0.00    +0.000 OA
ATOM     11  O   UNL     1       1.827   3.219  17.224  0.00  0.00    +0.000 OA
ATOM     12  N   UNL     1       4.236   4.080  17.726  0.00  0.00    +0.000 N 
ATOM     13  C   UNL     1       5.379   3.972  18.702  0.00  0.00    +0.000 C 
ATOM     14  C   UNL     1       5.674   5.417  19.079  0.00  0.00    +0.000 C 
ENDROOT
BRANCH   1  15
ATOM     15  C   UNL     1       6.435   6.249  16.943  0.00  0.00    +0.000 C 
ATOM     16  O   UNL     1       6.345   6.289  15.722  0.00  0.00    +0.000 OA
BRANCH  15  18
ATOM     17  C   UNL     1       7.755   8.081  17.564  0.00  0.00    +0.000 C 
ATOM     18  O   UNL     1       7.509   6.676  17.665  0.00  0.00    +0.000 OA
ENDBRANCH  15  18
ENDBRANCH   1  15
TORSDOF 2
ENDMDL
MODEL 4
REMARK VINA RESULT:      -7.1      2.374      3.450
REMARK  Name = 
REMARK  3 active torsions:
REMARK  status: ('A' for Active; 'I' for Inactive)
REMARK    1  A    between atoms: C_1  and  O_2
REMARK    2  A    between atoms: O_2  and  C_3
REMARK    3  A    between atoms: C_3  and  C_5
REMARK                            x       y       z     vdW  Elec       q    Type
REMARK                         _______ _______ _______ _____ _____    ______ ____
ROOT
ATOM      1  C   UNL     1       5.836   4.417  17.997  0.00  0.00    +0.000 C 
ATOM      2  C   UNL     1       4.976   4.903  18.929  0.00  0.00    +0.000 C 
ATOM      3  C   UNL     1       3.796   3.973  19.158  0.00  0.00    +0.000 A 
ATOM      4  C   UNL     1       3.838   2.589  19.294  0.00  0.00    +0.000 A 
ATOM      5  C   UNL     1       2.744   1.837  18.842  0.00  0.00    +0.000 A 
ATOM      6  C   UNL     1       1.626   2.461  18.270  0.00  0.00    +0.000 A 
ATOM      7  C   UNL     1       1.521   3.848  18.271  0.00  0.00    +0.000 A 
ATOM      8  C   UNL     1       2.583   4.565  18.800  0.00  0.00    +0.000 A 
ATOM      9  S   UNL     1       2.781   6.292  18.724  0.00  0.00    +0.000 S 
ATOM     10  O   UNL     1       2.028   6.797  17.607  0.00  0.00    +0.000 OA
ATOM     11  O   UNL     1       2.647   6.800  20.067  0.00  0.00    +0.000 OA
ATOM     12  N   UNL     1       4.452   6.158  18.299  0.00  0.00    +0.000 N 
ATOM     13  C   UNL     1       4.710   6.055  16.819  0.00  0.00    +0.000 C 
ATOM     14  C   UNL     1       5.210   4.629  16.635  0.00  0.00    +0.000 C 
ENDROOT
BRANCH   1  15
ATOM     15  C   UNL     1       7.283   4.761  17.867  0.00  0.00    +0.000 C 
ATOM     16  O   UNL     1       7.904   4.511  16.841  0.00  0.00    +0.000 OA
BRANCH  15  18
ATOM     17  C   UNL     1       7.960   6.956  18.320  0.00  0.00    +0.000 C 
ATOM     18  O   UNL     1       7.674   5.649  18.824  0.00  0.00    +0.000 OA
ENDBRANCH  15  18
ENDBRANCH   1  15
TORSDOF 2
ENDMDL
MODEL 5
REMARK VINA RESULT:      -7.1      1.314      1.353
REMARK  Name = 
REMARK  3 active torsions:
REMARK  status: ('A' for Active; 'I' for Inactive)
REMARK    1  A    between atoms: C_1  and  O_2
REMARK    2  A    between atoms: O_2  and  C_3
REMARK    3  A    between atoms: C_3  and  C_5
REMARK                            x       y       z     vdW  Elec       q    Type
REMARK                         _______ _______ _______ _____ _____    ______ ____
ROOT
ATOM      1  C   UNL     1       4.882   4.823  17.701  0.00  0.00    +0.000 C 
ATOM      2  C   UNL     1       3.581   4.453  17.574  0.00  0.00    +0.000 C 
ATOM      3  C   UNL     1       2.640   5.424  18.268  0.00  0.00    +0.000 A 
ATOM      4  C   UNL     1       2.697   6.814  18.230  0.00  0.00    +0.000 A 
ATOM      5  C   UNL     1       2.263   7.534  19.352  0.00  0.00    +0.000 A 
ATOM      6  C   UNL     1       1.778   6.875  20.490  0.00  0.00    +0.000 A 
ATOM      7  C   UNL     1       1.581   5.497  20.471  0.00  0.00    +0.000 A 
ATOM      8  C   UNL     1       1.942   4.820  19.317  0.00  0.00    +0.000 A 
ATOM      9  S   UNL     1       1.992   3.092  19.126  0.00  0.00    +0.000 S 
ATOM     10  O   UNL     1       2.151   2.487  20.422  0.00  0.00    +0.000 OA
ATOM     11  O   UNL     1       0.944   2.730  18.204  0.00  0.00    +0.000 OA
ATOM     12  N   UNL     1       3.515   3.149  18.310  0.00  0.00    +0.000 N 
ATOM     13  C   UNL     1       4.712   3.091  19.222  0.00  0.00    +0.000 C 
ATOM     14  C   UNL     1       5.324   4.481  19.108  0.00  0.00    +0.000 C 
ENDROOT
BRANCH   1  15
ATOM     15  C   UNL     1       6.001   4.440  16.790  0.00  0.00    +0.000 C 
ATOM     16  O   UNL     1       7.165   4.467  17.171  0.00  0.00    +0.000 OA
BRANCH  15  18
ATOM     17  C   UNL     1       6.280   4.031  14.502  0.00  0.00    +0.000 C 
ATOM     18  O   UNL     1       5.548   3.760  15.699  0.00  0.00    +0.000 OA
ENDBRANCH  15  18
ENDBRANCH   1  15
TORSDOF 2
ENDMDL
MODEL 6
REMARK VINA RESULT:      -6.9      1.390      1.723
REMARK  Name = 
REMARK  3 active torsions:
REMARK  status: ('A' for Active; 'I' for Inactive)
REMARK    1  A    between atoms: C_1  and  O_2
REMARK    2  A    between atoms: O_2  and  C_3
REMARK    3  A    between atoms: C_3  and  C_5
REMARK                            x       y       z     vdW  Elec       q    Type
REMARK                         _______ _______ _______ _____ _____    ______ ____
ROOT
ATOM      1  C   UNL     1       4.777   4.648  17.749  0.00  0.00    +0.000 C 
ATOM      2  C   UNL     1       3.466   4.316  17.623  0.00  0.00    +0.000 C 
ATOM      3  C   UNL     1       2.555   5.303  18.333  0.00  0.00    +0.000 A 
ATOM      4  C   UNL     1       2.650   6.691  18.312  0.00  0.00    +0.000 A 
ATOM      5  C   UNL     1       2.240   7.410  19.444  0.00  0.00    +0.000 A 
ATOM      6  C   UNL     1       1.741   6.750  20.576  0.00  0.00    +0.000 A 
ATOM      7  C   UNL     1       1.507   5.379  20.542  0.00  0.00    +0.000 A 
ATOM      8  C   UNL     1       1.845   4.706  19.378  0.00  0.00    +0.000 A 
ATOM      9  S   UNL     1       1.847   2.980  19.166  0.00  0.00    +0.000 S 
ATOM     10  O   UNL     1       1.994   2.354  20.454  0.00  0.00    +0.000 OA
ATOM     11  O   UNL     1       0.786   2.658  18.244  0.00  0.00    +0.000 OA
ATOM     12  N   UNL     1       3.368   3.005  18.344  0.00  0.00    +0.000 N 
ATOM     13  C   UNL     1       4.566   2.904  19.250  0.00  0.00    +0.000 C 
ATOM     14  C   UNL     1       5.216   4.277  19.150  0.00  0.00    +0.000 C 
ENDROOT
BRANCH   1  15
ATOM     15  C   UNL     1       5.882   4.246  16.829  0.00  0.00    +0.000 C 
ATOM     16  O   UNL     1       5.645   3.752  15.733  0.00  0.00    +0.000 OA
BRANCH  15  18
ATOM     17  C   UNL     1       7.166   6.201  16.911  0.00  0.00    +0.000 C 
ATOM     18  O   UNL     1       7.068   4.804  17.197  0.00  0.00    +0.000 OA
ENDBRANCH  15  18
ENDBRANCH   1  15
TORSDOF 2
ENDMDL
MODEL 7
REMARK VINA RESULT:      -6.9      2.138      4.932
REMARK  Name = 
REMARK  3 active torsions:
REMARK  status: ('A' for Active; 'I' for Inactive)
REMARK    1  A    between atoms: C_1  and  O_2
REMARK    2  A    between atoms: O_2  and  C_3
REMARK    3  A    between atoms: C_3  and  C_5
REMARK                            x       y       z     vdW  Elec       q    Type
REMARK                         _______ _______ _______ _____ _____    ______ ____
ROOT
ATOM      1  C   UNL     1       4.872   4.429  19.055  0.00  0.00    +0.000 C 
ATOM      2  C   UNL     1       5.642   4.293  17.944  0.00  0.00    +0.000 C 
ATOM      3  C   UNL     1       6.868   5.191  17.984  0.00  0.00    +0.000 A 
ATOM      4  C   UNL     1       7.713   5.401  19.069  0.00  0.00    +0.000 A 
ATOM      5  C   UNL     1       8.332   6.652  19.205  0.00  0.00    +0.000 A 
ATOM      6  C   UNL     1       8.110   7.672  18.269  0.00  0.00    +0.000 A 
ATOM      7  C   UNL     1       7.387   7.414  17.109  0.00  0.00    +0.000 A 
ATOM      8  C   UNL     1       6.856   6.142  16.961  0.00  0.00    +0.000 A 
ATOM      9  S   UNL     1       5.749   5.641  15.717  0.00  0.00    +0.000 S 
ATOM     10  O   UNL     1       5.050   6.799  15.224  0.00  0.00    +0.000 OA
ATOM     11  O   UNL     1       6.451   4.714  14.864  0.00  0.00    +0.000 OA
ATOM     12  N   UNL     1       4.754   4.784  16.841  0.00  0.00    +0.000 N 
ATOM     13  C   UNL     1       3.673   5.619  17.477  0.00  0.00    +0.000 C 
ATOM     14  C   UNL     1       4.109   5.731  18.932  0.00  0.00    +0.000 C 
ENDROOT
BRANCH   1  15
ATOM     15  C   UNL     1       3.917   3.417  19.595  0.00  0.00    +0.000 C 
ATOM     16  O   UNL     1       3.017   3.741  20.360  0.00  0.00    +0.000 OA
BRANCH  15  18
ATOM     17  C   UNL     1       2.756   1.964  18.174  0.00  0.00    +0.000 C 
ATOM     18  O   UNL     1       3.962   2.256  18.883  0.00  0.00    +0.000 OA
ENDBRANCH  15  18
ENDBRANCH   1  15
TORSDOF 2
ENDMDL
MODEL 8
REMARK VINA RESULT:      -6.9      2.234      5.127
REMARK  Name = 
REMARK  3 active torsions:
REMARK  status: ('A' for Active; 'I' for Inactive)
REMARK    1  A    between atoms: C_1  and  O_2
REMARK    2  A    between atoms: O_2  and  C_3
REMARK    3  A    between atoms: C_3  and  C_5
REMARK                            x       y       z     vdW  Elec       q    Type
REMARK                         _______ _______ _______ _____ _____    ______ ____
ROOT
ATOM      1  C   UNL     1       5.011   4.373  19.095  0.00  0.00    +0.000 C 
ATOM      2  C   UNL     1       5.805   4.234  18.001  0.00  0.00    +0.000 C 
ATOM      3  C   UNL     1       6.977   5.201  18.019  0.00  0.00    +0.000 A 
ATOM      4  C   UNL     1       7.791   5.506  19.106  0.00  0.00    +0.000 A 
ATOM      5  C   UNL     1       8.335   6.795  19.195  0.00  0.00    +0.000 A 
ATOM      6  C   UNL     1       8.072   7.760  18.212  0.00  0.00    +0.000 A 
ATOM      7  C   UNL     1       7.384   7.411  17.055  0.00  0.00    +0.000 A 
ATOM      8  C   UNL     1       6.928   6.106  16.956  0.00  0.00    +0.000 A 
ATOM      9  S   UNL     1       5.872   5.489  15.719  0.00  0.00    +0.000 S 
ATOM     10  O   UNL     1       5.116   6.583  15.167  0.00  0.00    +0.000 OA
ATOM     11  O   UNL     1       6.639   4.568  14.917  0.00  0.00    +0.000 OA
ATOM     12  N   UNL     1       4.908   4.625  16.866  0.00  0.00    +0.000 N 
ATOM     13  C   UNL     1       3.772   5.424  17.450  0.00  0.00    +0.000 C 
ATOM     14  C   UNL     1       4.177   5.623  18.904  0.00  0.00    +0.000 C 
ENDROOT
BRANCH   1  15
ATOM     15  C   UNL     1       4.106   3.332  19.666  0.00  0.00    +0.000 C 
ATOM     16  O   UNL     1       4.453   2.159  19.734  0.00  0.00    +0.000 OA
BRANCH  15  18
ATOM     17  C   UNL     1       2.451   2.990  21.286  0.00  0.00    +0.000 C 
ATOM     18  O   UNL     1       3.085   3.890  20.375  0.00  0.00    +0.000 OA
ENDBRANCH  15  18
ENDBRANCH   1  15
TORSDOF 2
ENDMDL
MODEL 9
REMARK VINA RESULT:      -6.7      2.115      5.181
REMARK  Name = 
REMARK  3 active torsions:
REMARK  status: ('A' for Active; 'I' for Inactive)
REMARK    1  A    between atoms: C_1  and  O_2
REMARK    2  A    between atoms: O_2  and  C_3
REMARK    3  A    between atoms: C_3  and  C_5
REMARK                            x       y       z     vdW  Elec       q    Type
REMARK                         _______ _______ _______ _____ _____    ______ ____
ROOT
ATOM      1  C   UNL     1       3.781   5.408  18.012  0.00  0.00    +0.000 C 
ATOM      2  C   UNL     1       4.888   6.188  17.902  0.00  0.00    +0.000 C 
ATOM      3  C   UNL     1       5.583   6.007  16.563  0.00  0.00    +0.000 A 
ATOM      4  C   UNL     1       4.980   5.939  15.311  0.00  0.00    +0.000 A 
ATOM      5  C   UNL     1       5.579   5.149  14.320  0.00  0.00    +0.000 A 
ATOM      6  C   UNL     1       6.763   4.443  14.577  0.00  0.00    +0.000 A 
ATOM      7  C   UNL     1       7.444   4.629  15.775  0.00  0.00    +0.000 A 
ATOM      8  C   UNL     1       6.870   5.482  16.706  0.00  0.00    +0.000 A 
ATOM      9  S   UNL     1       7.411   5.712  18.343  0.00  0.00    +0.000 S 
ATOM     10  O   UNL     1       8.142   4.544  18.758  0.00  0.00    +0.000 OA
ATOM     11  O   UNL     1       7.935   7.052  18.438  0.00  0.00    +0.000 OA
ATOM     12  N   UNL     1       5.799   5.653  18.965  0.00  0.00    +0.000 N 
ATOM     13  C   UNL     1       5.317   4.268  19.310  0.00  0.00    +0.000 C 
ATOM     14  C   UNL     1       4.240   3.988  18.271  0.00  0.00    +0.000 C 
ENDROOT
BRANCH   1  15
ATOM     15  C   UNL     1       2.613   5.655  18.908  0.00  0.00    +0.000 C 
ATOM     16  O   UNL     1       2.315   6.790  19.262  0.00  0.00    +0.000 OA
BRANCH  15  18
ATOM     17  C   UNL     1       1.207   4.349  20.249  0.00  0.00    +0.000 C 
ATOM     18  O   UNL     1       1.785   4.575  18.961  0.00  0.00    +0.000 OA
ENDBRANCH  15  18
ENDBRANCH   1  15
TORSDOF 2
ENDMDL
