MODEL 1
REMARK VINA RESULT:      -7.9      0.000      0.000
REMARK  Name = 
REMARK  11 active torsions:
REMARK  status: ('A' for Active; 'I' for Inactive)
REMARK    1  A    between atoms: C_1  and  C_2
REMARK    2  A    between atoms: C_2  and  C_3
REMARK    3  A    between atoms: N_5  and  C_6
REMARK    4  A    between atoms: N_5  and  C_12
REMARK    5  A    between atoms: C_12  and  C_13
REMARK    6  A    between atoms: C_13  and  O_14
REMARK    7  A    between atoms: O_14  and  C_15
REMARK    8  A    between atoms: C_15  and  C_16
REMARK    9  A    between atoms: N_20  and  C_21
REMARK   10  A    between atoms: C_21  and  C_22
REMARK   11  A    between atoms: C_22  and  C_23
REMARK                            x       y       z     vdW  Elec       q    Type
REMARK                         _______ _______ _______ _____ _____    ______ ____
ROOT
ATOM      1  C   UNL     1       5.920   5.002  16.439  0.00  0.00    +0.000 C 
ATOM      2  C   UNL     1       7.156   4.510  17.235  0.00  0.00    +0.000 C 
ATOM      3  C   UNL     1       7.606   5.588  18.195  0.00  0.00    +0.000 C 
ATOM      4  N   UNL     1       8.010   6.843  17.545  0.00  0.00    +0.000 NA
ATOM      5  C   UNL     1       6.960   7.365  16.658  0.00  0.00    +0.000 C 
ATOM      6  C   UNL     1       6.402   6.298  15.722  0.00  0.00    +0.000 C 
ENDROOT
BRANCH   1   9
ATOM      7  C   UNL     1       3.996   6.337  17.400  0.00  0.00    +0.000 C 
ATOM      8  O   UNL     1       4.369   7.323  16.759  0.00  0.00    +0.000 OA
ATOM      9  N   UNL     1       4.722   5.124  17.411  0.00  0.00    +0.000 N 
BRANCH   9  10
ATOM     10  C   UNL     1       4.209   3.967  18.108  0.00  0.00    +0.000 A 
ATOM     11  C   UNL     1       4.660   3.601  19.391  0.00  0.00    +0.000 A 
ATOM     12  C   UNL     1       4.205   2.439  20.032  0.00  0.00    +0.000 A 
ATOM     13  C   UNL     1       3.240   1.649  19.419  0.00  0.00    +0.000 A 
ATOM     14  C   UNL     1       2.738   2.025  18.173  0.00  0.00    +0.000 A 
ATOM     15  C   UNL     1       3.240   3.154  17.503  0.00  0.00    +0.000 A 
ENDBRANCH   9  10
BRANCH   7  17
ATOM     16  C   UNL     1       2.343   7.870  18.546  0.00  0.00    +0.000 C 
ATOM     17  C   UNL     1       2.708   6.430  18.209  0.00  0.00    +0.000 C 
ENDBRANCH   7  17
ENDBRANCH   1   9
BRANCH   1  18
ATOM     18  C   UNL     1       5.652   3.958  15.298  0.00  0.00    +0.000 C 
BRANCH  18  19
ATOM     19  O   UNL     1       6.679   4.037  14.284  0.00  0.00    +0.000 OA
BRANCH  19  20
ATOM     20  C   UNL     1       6.276   3.862  12.999  0.00  0.00    +0.000 C 
ATOM     21  C   UNL     1       7.325   4.337  12.039  0.00  0.00    +0.000 C 
ATOM     22  O   UNL     1       5.213   3.375  12.640  0.00  0.00    +0.000 OA
ENDBRANCH  19  20
ENDBRANCH  18  19
ENDBRANCH   1  18
BRANCH   4  23
ATOM     23  C   UNL     1       8.285   7.855  18.592  0.00  0.00    +0.000 C 
BRANCH  23  24
ATOM     24  C   UNL     1       8.129   9.278  18.047  0.00  0.00    +0.000 C 
BRANCH  24  25
ATOM     25  C   UNL     1       9.127  10.226  18.639  0.00  0.00    +0.000 A 
ATOM     26  C   UNL     1       9.137  10.423  20.033  0.00  0.00    +0.000 A 
ATOM     27  C   UNL     1      10.087  11.265  20.597  0.00  0.00    +0.000 A 
ATOM     28  C   UNL     1      11.008  11.905  19.786  0.00  0.00    +0.000 A 
ATOM     29  C   UNL     1      10.993  11.729  18.401  0.00  0.00    +0.000 A 
ATOM     30  C   UNL     1      10.050  10.890  17.834  0.00  0.00    +0.000 A 
ENDBRANCH  24  25
ENDBRANCH  23  24
ENDBRANCH   4  23
TORSDOF 9
ENDMDL
MODEL 2
REMARK VINA RESULT:      -7.8      0.623      1.139
REMARK  Name = 
REMARK  11 active torsions:
REMARK  status: ('A' for Active; 'I' for Inactive)
REMARK    1  A    between atoms: C_1  and  C_2
REMARK    2  A    between atoms: C_2  and  C_3
REMARK    3  A    between atoms: N_5  and  C_6
REMARK    4  A    between atoms: N_5  and  C_12
REMARK    5  A    between atoms: C_12  and  C_13
REMARK    6  A    between atoms: C_13  and  O_14
REMARK    7  A    between atoms: O_14  and  C_15
REMARK    8  A    between atoms: C_15  and  C_16
REMARK    9  A    between atoms: N_20  and  C_21
REMARK   10  A    between atoms: C_21  and  C_22
REMARK   11  A    between atoms: C_22  and  C_23
REMARK                            x       y       z     vdW  Elec       q    Type
REMARK                         _______ _______ _______ _____ _____    ______ ____
ROOT
ATOM      1  C   UNL     1       6.101   4.954  16.681  0.00  0.00    +0.000 C 
ATOM      2  C   UNL     1       7.272   4.537  17.607  0.00  0.00    +0.000 C 
ATOM      3  C   UNL     1       7.650   5.696  18.502  0.00  0.00    +0.000 C 
ATOM      4  N   UNL     1       8.105   6.892  17.778  0.00  0.00    +0.000 NA
ATOM      5  C   UNL     1       7.127   7.331  16.772  0.00  0.00    +0.000 C 
ATOM      6  C   UNL     1       6.639   6.185  15.893  0.00  0.00    +0.000 C 
ENDROOT
BRANCH   1   9
ATOM      7  C   UNL     1       4.235   6.436  17.536  0.00  0.00    +0.000 C 
ATOM      8  O   UNL     1       4.765   7.406  16.989  0.00  0.00    +0.000 OA
ATOM      9  N   UNL     1       4.833   5.155  17.545  0.00  0.00    +0.000 N 
BRANCH   9  10
ATOM     10  C   UNL     1       4.142   4.026  18.126  0.00  0.00    +0.000 A 
ATOM     11  C   UNL     1       4.465   3.522  19.401  0.00  0.00    +0.000 A 
ATOM     12  C   UNL     1       3.836   2.385  19.928  0.00  0.00    +0.000 A 
ATOM     13  C   UNL     1       2.823   1.764  19.207  0.00  0.00    +0.000 A 
ATOM     14  C   UNL     1       2.448   2.281  17.967  0.00  0.00    +0.000 A 
ATOM     15  C   UNL     1       3.122   3.382  17.411  0.00  0.00    +0.000 A 
ENDBRANCH   9  10
BRANCH   7  17
ATOM     16  C   UNL     1       2.261   7.974  17.904  0.00  0.00    +0.000 C 
ATOM     17  C   UNL     1       2.891   6.625  18.228  0.00  0.00    +0.000 C 
ENDBRANCH   7  17
ENDBRANCH   1   9
BRANCH   1  18
ATOM     18  C   UNL     1       5.917   3.814  15.617  0.00  0.00    +0.000 C 
BRANCH  18  19
ATOM     19  O   UNL     1       5.394   4.350  14.381  0.00  0.00    +0.000 OA
BRANCH  19  20
ATOM     20  C   UNL     1       6.091   4.059  13.252  0.00  0.00    +0.000 C 
ATOM     21  C   UNL     1       5.283   3.193  12.332  0.00  0.00    +0.000 C 
ATOM     22  O   UNL     1       7.220   4.445  12.986  0.00  0.00    +0.000 OA
ENDBRANCH  19  20
ENDBRANCH  18  19
ENDBRANCH   1  18
BRANCH   4  23
ATOM     23  C   UNL     1       8.303   7.991  18.751  0.00  0.00    +0.000 C 
BRANCH  23  24
ATOM     24  C   UNL     1       8.311   9.357  18.057  0.00  0.00    +0.000 C 
BRANCH  24  25
ATOM     25  C   UNL     1       9.249  10.323  18.712  0.00  0.00    +0.000 A 
ATOM     26  C   UNL     1      10.143  11.057  17.908  0.00  0.00    +0.000 A 
ATOM     27  C   UNL     1      10.986  11.989  18.501  0.00  0.00    +0.000 A 
ATOM     28  C   UNL     1      10.945  12.182  19.872  0.00  0.00    +0.000 A 
ATOM     29  C   UNL     1      10.075  11.444  20.676  0.00  0.00    +0.000 A 
ATOM     30  C   UNL     1       9.231  10.516  20.091  0.00  0.00    +0.000 A 
ENDBRANCH  24  25
ENDBRANCH  23  24
ENDBRANCH   4  23
TORSDOF 9
ENDMDL
MODEL 3
REMARK VINA RESULT:      -7.8      2.827      7.125
REMARK  Name = 
REMARK  11 active torsions:
REMARK  status: ('A' for Active; 'I' for Inactive)
REMARK    1  A    between atoms: C_1  and  C_2
REMARK    2  A    between atoms: C_2  and  C_3
REMARK    3  A    between atoms: N_5  and  C_6
REMARK    4  A    between atoms: N_5  and  C_12
REMARK    5  A    between atoms: C_12  and  C_13
REMARK    6  A    between atoms: C_13  and  O_14
REMARK    7  A    between atoms: O_14  and  C_15
REMARK    8  A    between atoms: C_15  and  C_16
REMARK    9  A    between atoms: N_20  and  C_21
REMARK   10  A    between atoms: C_21  and  C_22
REMARK   11  A    between atoms: C_22  and  C_23
REMARK                            x       y       z     vdW  Elec       q    Type
REMARK                         _______ _______ _______ _____ _____    ______ ____
ROOT
ATOM      1  C   UNL     1       3.948   4.388  18.393  0.00  0.00    +0.000 C 
ATOM      2  C   UNL     1       2.611   4.719  17.680  0.00  0.00    +0.000 C 
ATOM      3  C   UNL     1       2.496   6.214  17.486  0.00  0.00    +0.000 C 
ATOM      4  N   UNL     1       2.495   6.986  18.737  0.00  0.00    +0.000 NA
ATOM      5  C   UNL     1       3.663   6.676  19.574  0.00  0.00    +0.000 C 
ATOM      6  C   UNL     1       3.886   5.177  19.735  0.00  0.00    +0.000 C 
ENDROOT
BRANCH   1   9
ATOM      7  C   UNL     1       5.015   4.222  16.104  0.00  0.00    +0.000 C 
ATOM      8  O   UNL     1       4.117   3.455  15.749  0.00  0.00    +0.000 OA
ATOM      9  N   UNL     1       5.116   4.705  17.429  0.00  0.00    +0.000 N 
BRANCH   9  10
ATOM     10  C   UNL     1       6.135   5.666  17.786  0.00  0.00    +0.000 A 
ATOM     11  C   UNL     1       6.197   6.946  17.204  0.00  0.00    +0.000 A 
ATOM     12  C   UNL     1       7.228   7.848  17.507  0.00  0.00    +0.000 A 
ATOM     13  C   UNL     1       8.189   7.500  18.449  0.00  0.00    +0.000 A 
ATOM     14  C   UNL     1       8.113   6.259  19.080  0.00  0.00    +0.000 A 
ATOM     15  C   UNL     1       7.116   5.331  18.730  0.00  0.00    +0.000 A 
ENDBRANCH   9  10
BRANCH   7  17
ATOM     16  C   UNL     1       5.938   3.890  13.773  0.00  0.00    +0.000 C 
ATOM     17  C   UNL     1       6.054   4.663  15.081  0.00  0.00    +0.000 C 
ENDBRANCH   7  17
ENDBRANCH   1   9
BRANCH   1  18
ATOM     18  C   UNL     1       3.903   2.869  18.789  0.00  0.00    +0.000 C 
BRANCH  18  19
ATOM     19  O   UNL     1       3.318   2.702  20.100  0.00  0.00    +0.000 OA
BRANCH  19  20
ATOM     20  C   UNL     1       2.003   2.362  20.139  0.00  0.00    +0.000 C 
ATOM     21  C   UNL     1       1.370   2.815  21.419  0.00  0.00    +0.000 C 
ATOM     22  O   UNL     1       1.388   1.775  19.260  0.00  0.00    +0.000 OA
ENDBRANCH  19  20
ENDBRANCH  18  19
ENDBRANCH   1  18
BRANCH   4  23
ATOM     23  C   UNL     1       2.525   8.430  18.406  0.00  0.00    +0.000 C 
BRANCH  23  24
ATOM     24  C   UNL     1       1.296   8.841  17.589  0.00  0.00    +0.000 C 
BRANCH  24  25
ATOM     25  C   UNL     1       0.401   9.778  18.340  0.00  0.00    +0.000 A 
ATOM     26  C   UNL     1      -0.892  10.031  17.843  0.00  0.00    +0.000 A 
ATOM     27  C   UNL     1      -1.747  10.863  18.556  0.00  0.00    +0.000 A 
ATOM     28  C   UNL     1      -1.318  11.440  19.739  0.00  0.00    +0.000 A 
ATOM     29  C   UNL     1      -0.032  11.209  20.228  0.00  0.00    +0.000 A 
ATOM     30  C   UNL     1       0.823  10.379  19.524  0.00  0.00    +0.000 A 
ENDBRANCH  24  25
ENDBRANCH  23  24
ENDBRANCH   4  23
TORSDOF 9
ENDMDL
MODEL 4
REMARK VINA RESULT:      -7.6      3.217      7.147
REMARK  Name = 
REMARK  11 active torsions:
REMARK  status: ('A' for Active; 'I' for Inactive)
REMARK    1  A    between atoms: C_1  and  C_2
REMARK    2  A    between atoms: C_2  and  C_3
REMARK    3  A    between atoms: N_5  and  C_6
REMARK    4  A    between atoms: N_5  and  C_12
REMARK    5  A    between atoms: C_12  and  C_13
REMARK    6  A    between atoms: C_13  and  O_14
REMARK    7  A    between atoms: O_14  and  C_15
REMARK    8  A    between atoms: C_15  and  C_16
REMARK    9  A    between atoms: N_20  and  C_21
REMARK   10  A    between atoms: C_21  and  C_22
REMARK   11  A    between atoms: C_22  and  C_23
REMARK                            x       y       z     vdW  Elec       q    Type
REMARK                         _______ _______ _______ _____ _____    ______ ____
ROOT
ATOM      1  C   UNL     1       3.846   4.436  18.658  0.00  0.00    +0.000 C 
ATOM      2  C   UNL     1       2.698   4.796  17.678  0.00  0.00    +0.000 C 
ATOM      3  C   UNL     1       2.539   6.298  17.611  0.00  0.00    +0.000 C 
ATOM      4  N   UNL     1       2.193   6.925  18.896  0.00  0.00    +0.000 NA
ATOM      5  C   UNL     1       3.146   6.566  19.956  0.00  0.00    +0.000 C 
ATOM      6  C   UNL     1       3.418   5.067  20.016  0.00  0.00    +0.000 C 
ENDROOT
BRANCH   1   9
ATOM      7  C   UNL     1       6.261   5.141  18.929  0.00  0.00    +0.000 C 
ATOM      8  O   UNL     1       6.120   5.128  20.154  0.00  0.00    +0.000 OA
ATOM      9  N   UNL     1       5.187   4.902  18.042  0.00  0.00    +0.000 N 
BRANCH   9  10
ATOM     10  C   UNL     1       5.410   4.845  16.615  0.00  0.00    +0.000 A 
ATOM     11  C   UNL     1       5.747   3.647  15.955  0.00  0.00    +0.000 A 
ATOM     12  C   UNL     1       6.027   3.614  14.581  0.00  0.00    +0.000 A 
ATOM     13  C   UNL     1       5.916   4.777  13.829  0.00  0.00    +0.000 A 
ATOM     14  C   UNL     1       5.527   5.962  14.453  0.00  0.00    +0.000 A 
ATOM     15  C   UNL     1       5.308   6.009  15.840  0.00  0.00    +0.000 A 
ENDBRANCH   9  10
BRANCH   7  17
ATOM     16  C   UNL     1       7.972   6.913  18.354  0.00  0.00    +0.000 C 
ATOM     17  C   UNL     1       7.642   5.426  18.350  0.00  0.00    +0.000 C 
ENDBRANCH   7  17
ENDBRANCH   1   9
BRANCH   1  18
ATOM     18  C   UNL     1       3.803   2.882  18.877  0.00  0.00    +0.000 C 
BRANCH  18  19
ATOM     19  O   UNL     1       3.244   2.566  20.172  0.00  0.00    +0.000 OA
BRANCH  19  20
ATOM     20  C   UNL     1       1.909   2.316  20.211  0.00  0.00    +0.000 C 
ATOM     21  C   UNL     1       1.350   2.606  21.571  0.00  0.00    +0.000 C 
ATOM     22  O   UNL     1       1.226   1.918  19.278  0.00  0.00    +0.000 OA
ENDBRANCH  19  20
ENDBRANCH  18  19
ENDBRANCH   1  18
BRANCH   4  23
ATOM     23  C   UNL     1       2.210   8.396  18.728  0.00  0.00    +0.000 C 
BRANCH  23  24
ATOM     24  C   UNL     1       1.182   8.851  17.687  0.00  0.00    +0.000 C 
BRANCH  24  25
ATOM     25  C   UNL     1       0.200   9.832  18.249  0.00  0.00    +0.000 A 
ATOM     26  C   UNL     1      -1.066   9.952  17.643  0.00  0.00    +0.000 A 
ATOM     27  C   UNL     1      -2.002  10.825  18.183  0.00  0.00    +0.000 A 
ATOM     28  C   UNL     1      -1.681  11.572  19.304  0.00  0.00    +0.000 A 
ATOM     29  C   UNL     1      -0.422  11.472  19.898  0.00  0.00    +0.000 A 
ATOM     30  C   UNL     1       0.514  10.602  19.366  0.00  0.00    +0.000 A 
ENDBRANCH  24  25
ENDBRANCH  23  24
ENDBRANCH   4  23
TORSDOF 9
ENDMDL
MODEL 5
REMARK VINA RESULT:      -7.6      2.702      6.958
REMARK  Name = 
REMARK  11 active torsions:
REMARK  status: ('A' for Active; 'I' for Inactive)
REMARK    1  A    between atoms: C_1  and  C_2
REMARK    2  A    between atoms: C_2  and  C_3
REMARK    3  A    between atoms: N_5  and  C_6
REMARK    4  A    between atoms: N_5  and  C_12
REMARK    5  A    between atoms: C_12  and  C_13
REMARK    6  A    between atoms: C_13  and  O_14
REMARK    7  A    between atoms: O_14  and  C_15
REMARK    8  A    between atoms: C_15  and  C_16
REMARK    9  A    between atoms: N_20  and  C_21
REMARK   10  A    between atoms: C_21  and  C_22
REMARK   11  A    between atoms: C_22  and  C_23
REMARK                            x       y       z     vdW  Elec       q    Type
REMARK                         _______ _______ _______ _____ _____    ______ ____
ROOT
ATOM      1  C   UNL     1       4.191   4.330  18.444  0.00  0.00    +0.000 C 
ATOM      2  C   UNL     1       2.880   4.576  17.655  0.00  0.00    +0.000 C 
ATOM      3  C   UNL     1       2.747   6.048  17.335  0.00  0.00    +0.000 C 
ATOM      4  N   UNL     1       2.682   6.918  18.519  0.00  0.00    +0.000 NA
ATOM      5  C   UNL     1       3.819   6.699  19.424  0.00  0.00    +0.000 C 
ATOM      6  C   UNL     1       4.060   5.222  19.715  0.00  0.00    +0.000 C 
ENDROOT
BRANCH   1   9
ATOM      7  C   UNL     1       5.363   3.987  16.227  0.00  0.00    +0.000 C 
ATOM      8  O   UNL     1       4.502   3.165  15.907  0.00  0.00    +0.000 OA
ATOM      9  N   UNL     1       5.392   4.592  17.505  0.00  0.00    +0.000 N 
BRANCH   9  10
ATOM     10  C   UNL     1       6.369   5.612  17.814  0.00  0.00    +0.000 A 
ATOM     11  C   UNL     1       7.356   5.432  18.802  0.00  0.00    +0.000 A 
ATOM     12  C   UNL     1       8.258   6.451  19.142  0.00  0.00    +0.000 A 
ATOM     13  C   UNL     1       8.223   7.656  18.451  0.00  0.00    +0.000 A 
ATOM     14  C   UNL     1       7.291   7.834  17.429  0.00  0.00    +0.000 A 
ATOM     15  C   UNL     1       6.346   6.836  17.132  0.00  0.00    +0.000 A 
ENDBRANCH   9  10
BRANCH   7  17
ATOM     16  C   UNL     1       6.027   4.012  13.787  0.00  0.00    +0.000 C 
ATOM     17  C   UNL     1       6.435   4.363  15.212  0.00  0.00    +0.000 C 
ENDBRANCH   7  17
ENDBRANCH   1   9
BRANCH   1  18
ATOM     18  C   UNL     1       4.155   2.847  18.960  0.00  0.00    +0.000 C 
BRANCH  18  19
ATOM     19  O   UNL     1       3.458   2.764  20.223  0.00  0.00    +0.000 OA
BRANCH  19  20
ATOM     20  C   UNL     1       2.143   2.430  20.168  0.00  0.00    +0.000 C 
ATOM     21  C   UNL     1       1.386   3.043  21.307  0.00  0.00    +0.000 C 
ATOM     22  O   UNL     1       1.613   1.735  19.312  0.00  0.00    +0.000 OA
ENDBRANCH  19  20
ENDBRANCH  18  19
ENDBRANCH   1  18
BRANCH   4  23
ATOM     23  C   UNL     1       2.700   8.330  18.074  0.00  0.00    +0.000 C 
BRANCH  23  24
ATOM     24  C   UNL     1       1.296   8.818  17.706  0.00  0.00    +0.000 C 
BRANCH  24  25
ATOM     25  C   UNL     1       0.653   9.591  18.816  0.00  0.00    +0.000 A 
ATOM     26  C   UNL     1      -0.303  10.576  18.498  0.00  0.00    +0.000 A 
ATOM     27  C   UNL     1      -0.939  11.266  19.522  0.00  0.00    +0.000 A 
ATOM     28  C   UNL     1      -0.625  10.986  20.841  0.00  0.00    +0.000 A 
ATOM     29  C   UNL     1       0.334  10.025  21.163  0.00  0.00    +0.000 A 
ATOM     30  C   UNL     1       0.970   9.332  20.148  0.00  0.00    +0.000 A 
ENDBRANCH  24  25
ENDBRANCH  23  24
ENDBRANCH   4  23
TORSDOF 9
ENDMDL
MODEL 6
REMARK VINA RESULT:      -7.6      2.797      7.030
REMARK  Name = 
REMARK  11 active torsions:
REMARK  status: ('A' for Active; 'I' for Inactive)
REMARK    1  A    between atoms: C_1  and  C_2
REMARK    2  A    between atoms: C_2  and  C_3
REMARK    3  A    between atoms: N_5  and  C_6
REMARK    4  A    between atoms: N_5  and  C_12
REMARK    5  A    between atoms: C_12  and  C_13
REMARK    6  A    between atoms: C_13  and  O_14
REMARK    7  A    between atoms: O_14  and  C_15
REMARK    8  A    between atoms: C_15  and  C_16
REMARK    9  A    between atoms: N_20  and  C_21
REMARK   10  A    between atoms: C_21  and  C_22
REMARK   11  A    between atoms: C_22  and  C_23
REMARK                            x       y       z     vdW  Elec       q    Type
REMARK                         _______ _______ _______ _____ _____    ______ ____
ROOT
ATOM      1  C   UNL     1       4.088   4.413  18.503  0.00  0.00    +0.000 C 
ATOM      2  C   UNL     1       2.744   4.622  17.759  0.00  0.00    +0.000 C 
ATOM      3  C   UNL     1       2.576   6.085  17.414  0.00  0.00    +0.000 C 
ATOM      4  N   UNL     1       2.542   6.979  18.582  0.00  0.00    +0.000 NA
ATOM      5  C   UNL     1       3.716   6.797  19.447  0.00  0.00    +0.000 C 
ATOM      6  C   UNL     1       3.991   5.331  19.759  0.00  0.00    +0.000 C 
ENDROOT
BRANCH   1   9
ATOM      7  C   UNL     1       5.144   4.105  16.224  0.00  0.00    +0.000 C 
ATOM      8  O   UNL     1       4.248   3.312  15.924  0.00  0.00    +0.000 OA
ATOM      9  N   UNL     1       5.249   4.674  17.514  0.00  0.00    +0.000 N 
BRANCH   9  10
ATOM     10  C   UNL     1       6.264   5.662  17.801  0.00  0.00    +0.000 A 
ATOM     11  C   UNL     1       7.296   5.429  18.731  0.00  0.00    +0.000 A 
ATOM     12  C   UNL     1       8.238   6.418  19.053  0.00  0.00    +0.000 A 
ATOM     13  C   UNL     1       8.196   7.644  18.402  0.00  0.00    +0.000 A 
ATOM     14  C   UNL     1       7.217   7.874  17.436  0.00  0.00    +0.000 A 
ATOM     15  C   UNL     1       6.235   6.907  17.159  0.00  0.00    +0.000 A 
ENDBRANCH   9  10
BRANCH   7  17
ATOM     16  C   UNL     1       5.848   3.888  13.804  0.00  0.00    +0.000 C 
ATOM     17  C   UNL     1       6.174   4.485  15.167  0.00  0.00    +0.000 C 
ENDBRANCH   7  17
ENDBRANCH   1   9
BRANCH   1  18
ATOM     18  C   UNL     1       4.096   2.942  19.050  0.00  0.00    +0.000 C 
BRANCH  18  19
ATOM     19  O   UNL     1       2.761   2.528  19.417  0.00  0.00    +0.000 OA
BRANCH  19  20
ATOM     20  C   UNL     1       2.432   2.637  20.731  0.00  0.00    +0.000 C 
ATOM     21  C   UNL     1       1.049   3.191  20.893  0.00  0.00    +0.000 C 
ATOM     22  O   UNL     1       3.141   2.324  21.676  0.00  0.00    +0.000 OA
ENDBRANCH  19  20
ENDBRANCH  18  19
ENDBRANCH   1  18
BRANCH   4  23
ATOM     23  C   UNL     1       2.521   8.382  18.107  0.00  0.00    +0.000 C 
BRANCH  23  24
ATOM     24  C   UNL     1       1.105   8.820  17.720  0.00  0.00    +0.000 C 
BRANCH  24  25
ATOM     25  C   UNL     1       0.459   9.658  18.780  0.00  0.00    +0.000 A 
ATOM     26  C   UNL     1       0.892   9.524  20.113  0.00  0.00    +0.000 A 
ATOM     27  C   UNL     1       0.331  10.329  21.097  0.00  0.00    +0.000 A 
ATOM     28  C   UNL     1      -0.648  11.248  20.760  0.00  0.00    +0.000 A 
ATOM     29  C   UNL     1      -1.095  11.373  19.444  0.00  0.00    +0.000 A 
ATOM     30  C   UNL     1      -0.539  10.575  18.459  0.00  0.00    +0.000 A 
ENDBRANCH  24  25
ENDBRANCH  23  24
ENDBRANCH   4  23
TORSDOF 9
ENDMDL
MODEL 7
REMARK VINA RESULT:      -7.6      3.148      7.177
REMARK  Name = 
REMARK  11 active torsions:
REMARK  status: ('A' for Active; 'I' for Inactive)
REMARK    1  A    between atoms: C_1  and  C_2
REMARK    2  A    between atoms: C_2  and  C_3
REMARK    3  A    between atoms: N_5  and  C_6
REMARK    4  A    between atoms: N_5  and  C_12
REMARK    5  A    between atoms: C_12  and  C_13
REMARK    6  A    between atoms: C_13  and  O_14
REMARK    7  A    between atoms: O_14  and  C_15
REMARK    8  A    between atoms: C_15  and  C_16
REMARK    9  A    between atoms: N_20  and  C_21
REMARK   10  A    between atoms: C_21  and  C_22
REMARK   11  A    between atoms: C_22  and  C_23
REMARK                            x       y       z     vdW  Elec       q    Type
REMARK                         _______ _______ _______ _____ _____    ______ ____
ROOT
ATOM      1  C   UNL     1       4.040   4.470  18.859  0.00  0.00    +0.000 C 
ATOM      2  C   UNL     1       2.873   4.424  17.839  0.00  0.00    +0.000 C 
ATOM      3  C   UNL     1       2.499   5.831  17.430  0.00  0.00    +0.000 C 
ATOM      4  N   UNL     1       2.040   6.679  18.541  0.00  0.00    +0.000 NA
ATOM      5  C   UNL     1       3.012   6.716  19.642  0.00  0.00    +0.000 C 
ATOM      6  C   UNL     1       3.497   5.326  20.042  0.00  0.00    +0.000 C 
ENDROOT
BRANCH   1   9
ATOM      7  C   UNL     1       6.425   5.315  18.938  0.00  0.00    +0.000 C 
ATOM      8  O   UNL     1       6.361   5.359  20.169  0.00  0.00    +0.000 OA
ATOM      9  N   UNL     1       5.312   4.972  18.136  0.00  0.00    +0.000 N 
BRANCH   9  10
ATOM     10  C   UNL     1       5.449   4.851  16.702  0.00  0.00    +0.000 A 
ATOM     11  C   UNL     1       5.753   3.627  16.077  0.00  0.00    +0.000 A 
ATOM     12  C   UNL     1       5.950   3.532  14.691  0.00  0.00    +0.000 A 
ATOM     13  C   UNL     1       5.786   4.660  13.896  0.00  0.00    +0.000 A 
ATOM     14  C   UNL     1       5.427   5.870  14.488  0.00  0.00    +0.000 A 
ATOM     15  C   UNL     1       5.293   5.979  15.883  0.00  0.00    +0.000 A 
ENDBRANCH   9  10
BRANCH   7  17
ATOM     16  C   UNL     1       7.985   7.142  18.150  0.00  0.00    +0.000 C 
ATOM     17  C   UNL     1       7.748   5.641  18.257  0.00  0.00    +0.000 C 
ENDBRANCH   7  17
ENDBRANCH   1   9
BRANCH   1  18
ATOM     18  C   UNL     1       4.218   3.019  19.431  0.00  0.00    +0.000 C 
BRANCH  18  19
ATOM     19  O   UNL     1       2.933   2.395  19.648  0.00  0.00    +0.000 OA
BRANCH  19  20
ATOM     20  C   UNL     1       2.383   2.555  20.880  0.00  0.00    +0.000 C 
ATOM     21  C   UNL     1       0.955   2.999  20.776  0.00  0.00    +0.000 C 
ATOM     22  O   UNL     1       2.945   2.360  21.948  0.00  0.00    +0.000 OA
ENDBRANCH  19  20
ENDBRANCH  18  19
ENDBRANCH   1  18
BRANCH   4  23
ATOM     23  C   UNL     1       1.846   8.059  18.039  0.00  0.00    +0.000 C 
BRANCH  23  24
ATOM     24  C   UNL     1       1.649   9.049  19.190  0.00  0.00    +0.000 C 
BRANCH  24  25
ATOM     25  C   UNL     1       0.380   9.833  19.055  0.00  0.00    +0.000 A 
ATOM     26  C   UNL     1      -0.012  10.682  20.108  0.00  0.00    +0.000 A 
ATOM     27  C   UNL     1      -1.164  11.448  19.975  0.00  0.00    +0.000 A 
ATOM     28  C   UNL     1      -1.916  11.365  18.815  0.00  0.00    +0.000 A 
ATOM     29  C   UNL     1      -1.543  10.512  17.776  0.00  0.00    +0.000 A 
ATOM     30  C   UNL     1      -0.396   9.748  17.902  0.00  0.00    +0.000 A 
ENDBRANCH  24  25
ENDBRANCH  23  24
ENDBRANCH   4  23
TORSDOF 9
ENDMDL
MODEL 8
REMARK VINA RESULT:      -7.6      3.178      7.196
REMARK  Name = 
REMARK  11 active torsions:
REMARK  status: ('A' for Active; 'I' for Inactive)
REMARK    1  A    between atoms: C_1  and  C_2
REMARK    2  A    between atoms: C_2  and  C_3
REMARK    3  A    between atoms: N_5  and  C_6
REMARK    4  A    between atoms: N_5  and  C_12
REMARK    5  A    between atoms: C_12  and  C_13
REMARK    6  A    between atoms: C_13  and  O_14
REMARK    7  A    between atoms: O_14  and  C_15
REMARK    8  A    between atoms: C_15  and  C_16
REMARK    9  A    between atoms: N_20  and  C_21
REMARK   10  A    between atoms: C_21  and  C_22
REMARK   11  A    between atoms: C_22  and  C_23
REMARK                            x       y       z     vdW  Elec       q    Type
REMARK                         _______ _______ _______ _____ _____    ______ ____
ROOT
ATOM      1  C   UNL     1       3.975   4.454  18.747  0.00  0.00    +0.000 C 
ATOM      2  C   UNL     1       2.811   4.617  17.736  0.00  0.00    +0.000 C 
ATOM      3  C   UNL     1       2.528   6.086  17.518  0.00  0.00    +0.000 C 
ATOM      4  N   UNL     1       2.120   6.807  18.733  0.00  0.00    +0.000 NA
ATOM      5  C   UNL     1       3.089   6.637  19.825  0.00  0.00    +0.000 C 
ATOM      6  C   UNL     1       3.483   5.180  20.035  0.00  0.00    +0.000 C 
ENDROOT
BRANCH   1   9
ATOM      7  C   UNL     1       6.365   5.264  18.943  0.00  0.00    +0.000 C 
ATOM      8  O   UNL     1       6.257   5.264  20.171  0.00  0.00    +0.000 OA
ATOM      9  N   UNL     1       5.278   4.966  18.089  0.00  0.00    +0.000 N 
BRANCH   9  10
ATOM     10  C   UNL     1       5.466   4.896  16.657  0.00  0.00    +0.000 A 
ATOM     11  C   UNL     1       5.315   6.022  15.824  0.00  0.00    +0.000 A 
ATOM     12  C   UNL     1       5.433   5.931  14.429  0.00  0.00    +0.000 A 
ATOM     13  C   UNL     1       5.765   4.714  13.846  0.00  0.00    +0.000 A 
ATOM     14  C   UNL     1       5.975   3.599  14.658  0.00  0.00    +0.000 A 
ATOM     15  C   UNL     1       5.794   3.676  16.050  0.00  0.00    +0.000 A 
ENDBRANCH   9  10
BRANCH   7  17
ATOM     16  C   UNL     1       7.965   7.099  18.260  0.00  0.00    +0.000 C 
ATOM     17  C   UNL     1       7.716   5.598  18.323  0.00  0.00    +0.000 C 
ENDBRANCH   7  17
ENDBRANCH   1   9
BRANCH   1  18
ATOM     18  C   UNL     1       4.059   2.931  19.121  0.00  0.00    +0.000 C 
BRANCH  18  19
ATOM     19  O   UNL     1       3.391   2.678  20.377  0.00  0.00    +0.000 OA
BRANCH  19  20
ATOM     20  C   UNL     1       2.089   2.297  20.304  0.00  0.00    +0.000 C 
ATOM     21  C   UNL     1       1.353   2.662  21.558  0.00  0.00    +0.000 C 
ATOM     22  O   UNL     1       1.555   1.741  19.355  0.00  0.00    +0.000 OA
ENDBRANCH  19  20
ENDBRANCH  18  19
ENDBRANCH   1  18
BRANCH   4  23
ATOM     23  C   UNL     1       2.016   8.251  18.419  0.00  0.00    +0.000 C 
BRANCH  23  24
ATOM     24  C   UNL     1       1.459   9.042  19.606  0.00  0.00    +0.000 C 
BRANCH  24  25
ATOM     25  C   UNL     1       0.270   9.872  19.229  0.00  0.00    +0.000 A 
ATOM     26  C   UNL     1      -0.310   9.695  17.958  0.00  0.00    +0.000 A 
ATOM     27  C   UNL     1      -1.441  10.426  17.616  0.00  0.00    +0.000 A 
ATOM     28  C   UNL     1      -1.980  11.325  18.520  0.00  0.00    +0.000 A 
ATOM     29  C   UNL     1      -1.399  11.519  19.774  0.00  0.00    +0.000 A 
ATOM     30  C   UNL     1      -0.274  10.792  20.122  0.00  0.00    +0.000 A 
ENDBRANCH  24  25
ENDBRANCH  23  24
ENDBRANCH   4  23
TORSDOF 9
ENDMDL
MODEL 9
REMARK VINA RESULT:      -7.6      1.945      2.755
REMARK  Name = 
REMARK  11 active torsions:
REMARK  status: ('A' for Active; 'I' for Inactive)
REMARK    1  A    between atoms: C_1  and  C_2
REMARK    2  A    between atoms: C_2  and  C_3
REMARK    3  A    between atoms: N_5  and  C_6
REMARK    4  A    between atoms: N_5  and  C_12
REMARK    5  A    between atoms: C_12  and  C_13
REMARK    6  A    between atoms: C_13  and  O_14
REMARK    7  A    between atoms: O_14  and  C_15
REMARK    8  A    between atoms: C_15  and  C_16
REMARK    9  A    between atoms: N_20  and  C_21
REMARK   10  A    between atoms: C_21  and  C_22
REMARK   11  A    between atoms: C_22  and  C_23
REMARK                            x       y       z     vdW  Elec       q    Type
REMARK                         _______ _______ _______ _____ _____    ______ ____
ROOT
ATOM      1  C   UNL     1       4.768   5.058  17.320  0.00  0.00    +0.000 C 
ATOM      2  C   UNL     1       5.878   4.473  18.230  0.00  0.00    +0.000 C 
ATOM      3  C   UNL     1       6.701   5.598  18.816  0.00  0.00    +0.000 C 
ATOM      4  N   UNL     1       7.388   6.427  17.813  0.00  0.00    +0.000 NA
ATOM      5  C   UNL     1       6.456   6.955  16.807  0.00  0.00    +0.000 C 
ATOM      6  C   UNL     1       5.534   5.881  16.241  0.00  0.00    +0.000 C 
ENDROOT
BRANCH   1   9
ATOM      7  C   UNL     1       3.431   7.142  17.844  0.00  0.00    +0.000 C 
ATOM      8  O   UNL     1       4.036   7.746  16.956  0.00  0.00    +0.000 OA
ATOM      9  N   UNL     1       3.747   5.812  18.205  0.00  0.00    +0.000 N 
BRANCH   9  10
ATOM     10  C   UNL     1       2.961   5.112  19.195  0.00  0.00    +0.000 A 
ATOM     11  C   UNL     1       3.481   4.755  20.454  0.00  0.00    +0.000 A 
ATOM     12  C   UNL     1       2.733   4.017  21.382  0.00  0.00    +0.000 A 
ATOM     13  C   UNL     1       1.420   3.671  21.086  0.00  0.00    +0.000 A 
ATOM     14  C   UNL     1       0.866   4.064  19.868  0.00  0.00    +0.000 A 
ATOM     15  C   UNL     1       1.636   4.749  18.912  0.00  0.00    +0.000 A 
ENDBRANCH   9  10
BRANCH   7  17
ATOM     16  C   UNL     1       1.804   9.078  17.824  0.00  0.00    +0.000 C 
ATOM     17  C   UNL     1       2.303   7.854  18.581  0.00  0.00    +0.000 C 
ENDBRANCH   7  17
ENDBRANCH   1   9
BRANCH   1  18
ATOM     18  C   UNL     1       4.111   3.856  16.552  0.00  0.00    +0.000 C 
BRANCH  18  19
ATOM     19  O   UNL     1       4.386   2.609  17.229  0.00  0.00    +0.000 OA
BRANCH  19  20
ATOM     20  C   UNL     1       3.316   1.957  17.755  0.00  0.00    +0.000 C 
ATOM     21  C   UNL     1       3.706   1.195  18.985  0.00  0.00    +0.000 C 
ATOM     22  O   UNL     1       2.175   1.978  17.315  0.00  0.00    +0.000 OA
ENDBRANCH  19  20
ENDBRANCH  18  19
ENDBRANCH   1  18
BRANCH   4  23
ATOM     23  C   UNL     1       8.033   7.569  18.500  0.00  0.00    +0.000 C 
BRANCH  23  24
ATOM     24  C   UNL     1       8.018   8.827  17.627  0.00  0.00    +0.000 C 
BRANCH  24  25
ATOM     25  C   UNL     1       8.592  10.017  18.333  0.00  0.00    +0.000 A 
ATOM     26  C   UNL     1       9.208   9.835  19.587  0.00  0.00    +0.000 A 
ATOM     27  C   UNL     1       9.785  10.923  20.229  0.00  0.00    +0.000 A 
ATOM     28  C   UNL     1       9.743  12.174  19.636  0.00  0.00    +0.000 A 
ATOM     29  C   UNL     1       9.118  12.365  18.403  0.00  0.00    +0.000 A 
ATOM     30  C   UNL     1       8.544  11.285  17.757  0.00  0.00    +0.000 A 
ENDBRANCH  24  25
ENDBRANCH  23  24
ENDBRANCH   4  23
TORSDOF 9
ENDMDL
