MODEL 1
REMARK VINA RESULT:      -8.1      0.000      0.000
REMARK  Name = 
REMARK  5 active torsions:
REMARK  status: ('A' for Active; 'I' for Inactive)
REMARK    1  A    between atoms: C_1  and  C_2
REMARK    2  A    between atoms: C_8  and  C_9
REMARK    3  A    between atoms: C_12  and  N_13
REMARK    4  A    between atoms: C_14  and  C_15
REMARK    5  A    between atoms: C_18  and  N_19
REMARK                            x       y       z     vdW  Elec       q    Type
REMARK                         _______ _______ _______ _____ _____    ______ ____
ROOT
ATOM      1  C   UNL     1       3.708   6.696  17.758  0.00  0.00    +0.000 A 
ATOM      2  C   UNL     1       3.207   6.104  18.918  0.00  0.00    +0.000 A 
ATOM      3  C   UNL     1       2.328   6.817  19.742  0.00  0.00    +0.000 A 
ATOM      4  C   UNL     1       1.934   8.121  19.431  0.00  0.00    +0.000 A 
ATOM      5  C   UNL     1       2.393   8.686  18.238  0.00  0.00    +0.000 A 
ATOM      6  C   UNL     1       3.279   7.984  17.412  0.00  0.00    +0.000 A 
ENDROOT
BRANCH   1  14
ATOM      7  C   UNL     1       6.458   4.769  18.111  0.00  0.00    +0.000 C 
ATOM      8  C   UNL     1       5.207   4.618  17.243  0.00  0.00    +0.000 C 
ATOM      9  C   UNL     1       5.491   3.817  15.984  0.00  0.00    +0.000 C 
ATOM     10  C   UNL     1       6.241   4.633  14.971  0.00  0.00    +0.000 C 
ATOM     11  O   UNL     1       7.028   4.133  14.170  0.00  0.00    +0.000 OA
ATOM     12  N   UNL     1       5.927   5.967  14.940  0.00  0.00    +0.000 N 
ATOM     13  N   UNL     1       5.062   6.604  15.773  0.00  0.00    +0.000 NA
ATOM     14  C   UNL     1       4.665   5.989  16.848  0.00  0.00    +0.000 C 
ATOM     15  H   UNL     1       6.326   6.520  14.188  0.00  0.00    +0.000 HD
ENDBRANCH   1  14
BRANCH   4  16
ATOM     16  N   UNL     1       1.065   8.761  20.328  0.00  0.00    +0.000 NA
ATOM     17  C   UNL     1       0.465   9.852  19.982  0.00  0.00    +0.000 C 
BRANCH  17  18
ATOM     18  C   UNL     1      -0.412  10.577  20.923  0.00  0.00    +0.000 A 
ATOM     19  C   UNL     1      -1.217  11.629  20.473  0.00  0.00    +0.000 A 
ATOM     20  C   UNL     1      -2.059  12.297  21.365  0.00  0.00    +0.000 A 
ATOM     21  C   UNL     1      -2.087  11.906  22.710  0.00  0.00    +0.000 A 
ATOM     22  C   UNL     1      -1.280  10.852  23.165  0.00  0.00    +0.000 A 
ATOM     23  C   UNL     1      -0.443  10.183  22.265  0.00  0.00    +0.000 A 
BRANCH  21  24
ATOM     24  N   UNL     1      -2.971  12.607  23.650  0.00  0.00    +0.000 N 
ATOM     25  O   UNL     1      -3.928  11.978  24.122  0.00  0.00    +0.000 OA
ATOM     26  O   UNL     1      -2.708  13.790  23.913  0.00  0.00    +0.000 OA
ENDBRANCH  21  24
ENDBRANCH  17  18
ENDBRANCH   4  16
TORSDOF 4
ENDMDL
MODEL 2
REMARK VINA RESULT:      -8.1      0.086      1.157
REMARK  Name = 
REMARK  5 active torsions:
REMARK  status: ('A' for Active; 'I' for Inactive)
REMARK    1  A    between atoms: C_1  and  C_2
REMARK    2  A    between atoms: C_8  and  C_9
REMARK    3  A    between atoms: C_12  and  N_13
REMARK    4  A    between atoms: C_14  and  C_15
REMARK    5  A    between atoms: C_18  and  N_19
REMARK                            x       y       z     vdW  Elec       q    Type
REMARK                         _______ _______ _______ _____ _____    ______ ____
ROOT
ATOM      1  C   UNL     1       3.691   6.710  17.785  0.00  0.00    +0.000 A 
ATOM      2  C   UNL     1       3.263   6.143  18.986  0.00  0.00    +0.000 A 
ATOM      3  C   UNL     1       2.386   6.848  19.819  0.00  0.00    +0.000 A 
ATOM      4  C   UNL     1       1.921   8.121  19.476  0.00  0.00    +0.000 A 
ATOM      5  C   UNL     1       2.307   8.658  18.244  0.00  0.00    +0.000 A 
ATOM      6  C   UNL     1       3.191   7.965  17.410  0.00  0.00    +0.000 A 
ENDROOT
BRANCH   1  14
ATOM      7  C   UNL     1       6.350   4.654  18.106  0.00  0.00    +0.000 C 
ATOM      8  C   UNL     1       5.117   4.600  17.201  0.00  0.00    +0.000 C 
ATOM      9  C   UNL     1       5.403   3.853  15.909  0.00  0.00    +0.000 C 
ATOM     10  C   UNL     1       6.213   4.688  14.959  0.00  0.00    +0.000 C 
ATOM     11  O   UNL     1       6.999   4.196  14.153  0.00  0.00    +0.000 OA
ATOM     12  N   UNL     1       5.953   6.034  14.990  0.00  0.00    +0.000 N 
ATOM     13  N   UNL     1       5.094   6.663  15.832  0.00  0.00    +0.000 NA
ATOM     14  C   UNL     1       4.642   6.011  16.865  0.00  0.00    +0.000 C 
ATOM     15  H   UNL     1       6.395   6.607  14.278  0.00  0.00    +0.000 HD
ENDBRANCH   1  14
BRANCH   4  16
ATOM     16  N   UNL     1       1.060   8.756  20.383  0.00  0.00    +0.000 NA
ATOM     17  C   UNL     1       0.399   9.807  20.021  0.00  0.00    +0.000 C 
BRANCH  17  18
ATOM     18  C   UNL     1      -0.473  10.529  20.969  0.00  0.00    +0.000 A 
ATOM     19  C   UNL     1      -0.530  10.143  22.313  0.00  0.00    +0.000 A 
ATOM     20  C   UNL     1      -1.342  10.843  23.209  0.00  0.00    +0.000 A 
ATOM     21  C   UNL     1      -2.096  11.931  22.749  0.00  0.00    +0.000 A 
ATOM     22  C   UNL     1      -2.040  12.321  21.402  0.00  0.00    +0.000 A 
ATOM     23  C   UNL     1      -1.222  11.618  20.511  0.00  0.00    +0.000 A 
BRANCH  21  24
ATOM     24  N   UNL     1      -2.949  12.669  23.688  0.00  0.00    +0.000 N 
ATOM     25  O   UNL     1      -2.636  13.836  23.960  0.00  0.00    +0.000 OA
ATOM     26  O   UNL     1      -3.933  12.077  24.158  0.00  0.00    +0.000 OA
ENDBRANCH  21  24
ENDBRANCH  17  18
ENDBRANCH   4  16
TORSDOF 4
ENDMDL
MODEL 3
REMARK VINA RESULT:      -8.0      0.187      1.378
REMARK  Name = 
REMARK  5 active torsions:
REMARK  status: ('A' for Active; 'I' for Inactive)
REMARK    1  A    between atoms: C_1  and  C_2
REMARK    2  A    between atoms: C_8  and  C_9
REMARK    3  A    between atoms: C_12  and  N_13
REMARK    4  A    between atoms: C_14  and  C_15
REMARK    5  A    between atoms: C_18  and  N_19
REMARK                            x       y       z     vdW  Elec       q    Type
REMARK                         _______ _______ _______ _____ _____    ______ ____
ROOT
ATOM      1  C   UNL     1       3.704   6.713  17.796  0.00  0.00    +0.000 A 
ATOM      2  C   UNL     1       3.166   7.971  17.521  0.00  0.00    +0.000 A 
ATOM      3  C   UNL     1       2.289   8.571  18.432  0.00  0.00    +0.000 A 
ATOM      4  C   UNL     1       1.932   7.936  19.625  0.00  0.00    +0.000 A 
ATOM      5  C   UNL     1       2.520   6.702  19.921  0.00  0.00    +0.000 A 
ATOM      6  C   UNL     1       3.391   6.091  19.012  0.00  0.00    +0.000 A 
ENDROOT
BRANCH   1  14
ATOM      7  C   UNL     1       6.367   4.653  18.047  0.00  0.00    +0.000 C 
ATOM      8  C   UNL     1       5.112   4.603  17.171  0.00  0.00    +0.000 C 
ATOM      9  C   UNL     1       5.366   3.860  15.870  0.00  0.00    +0.000 C 
ATOM     10  C   UNL     1       6.155   4.697  14.904  0.00  0.00    +0.000 C 
ATOM     11  O   UNL     1       6.921   4.207  14.078  0.00  0.00    +0.000 OA
ATOM     12  N   UNL     1       5.898   6.043  14.945  0.00  0.00    +0.000 N 
ATOM     13  N   UNL     1       5.059   6.671  15.810  0.00  0.00    +0.000 NA
ATOM     14  C   UNL     1       4.632   6.016  16.850  0.00  0.00    +0.000 C 
ATOM     15  H   UNL     1       6.324   6.618  14.225  0.00  0.00    +0.000 HD
ENDBRANCH   1  14
BRANCH   4  16
ATOM     16  N   UNL     1       1.032   8.607  20.466  0.00  0.00    +0.000 NA
ATOM     17  C   UNL     1       0.510   9.730  20.092  0.00  0.00    +0.000 C 
BRANCH  17  18
ATOM     18  C   UNL     1      -0.397  10.487  20.977  0.00  0.00    +0.000 A 
ATOM     19  C   UNL     1      -0.448  10.205  22.347  0.00  0.00    +0.000 A 
ATOM     20  C   UNL     1      -1.294  10.939  23.182  0.00  0.00    +0.000 A 
ATOM     21  C   UNL     1      -2.090  11.955  22.635  0.00  0.00    +0.000 A 
ATOM     22  C   UNL     1      -2.041  12.240  21.262  0.00  0.00    +0.000 A 
ATOM     23  C   UNL     1      -1.188  11.504  20.432  0.00  0.00    +0.000 A 
BRANCH  21  24
ATOM     24  N   UNL     1      -2.979  12.728  23.510  0.00  0.00    +0.000 N 
ATOM     25  O   UNL     1      -4.106  12.269  23.740  0.00  0.00    +0.000 OA
ATOM     26  O   UNL     1      -2.550  13.799  23.965  0.00  0.00    +0.000 OA
ENDBRANCH  21  24
ENDBRANCH  17  18
ENDBRANCH   4  16
TORSDOF 4
ENDMDL
MODEL 4
REMARK VINA RESULT:      -7.7      2.932     10.758
REMARK  Name = 
REMARK  5 active torsions:
REMARK  status: ('A' for Active; 'I' for Inactive)
REMARK    1  A    between atoms: C_1  and  C_2
REMARK    2  A    between atoms: C_8  and  C_9
REMARK    3  A    between atoms: C_12  and  N_13
REMARK    4  A    between atoms: C_14  and  C_15
REMARK    5  A    between atoms: C_18  and  N_19
REMARK                            x       y       z     vdW  Elec       q    Type
REMARK                         _______ _______ _______ _____ _____    ______ ____
ROOT
ATOM      1  C   UNL     1      -0.756  11.435  22.491  0.00  0.00    +0.000 A 
ATOM      2  C   UNL     1      -0.040  11.544  21.298  0.00  0.00    +0.000 A 
ATOM      3  C   UNL     1       0.658  10.439  20.798  0.00  0.00    +0.000 A 
ATOM      4  C   UNL     1       0.658   9.213  21.469  0.00  0.00    +0.000 A 
ATOM      5  C   UNL     1      -0.108   9.093  22.632  0.00  0.00    +0.000 A 
ATOM      6  C   UNL     1      -0.802  10.195  23.144  0.00  0.00    +0.000 A 
ENDROOT
BRANCH   1  14
ATOM      7  C   UNL     1      -3.546  13.185  21.750  0.00  0.00    +0.000 C 
ATOM      8  C   UNL     1      -3.032  12.585  23.061  0.00  0.00    +0.000 C 
ATOM      9  C   UNL     1      -3.545  13.351  24.268  0.00  0.00    +0.000 C 
ATOM     10  C   UNL     1      -2.821  14.655  24.440  0.00  0.00    +0.000 C 
ATOM     11  O   UNL     1      -3.351  15.645  24.939  0.00  0.00    +0.000 OA
ATOM     12  N   UNL     1      -1.497  14.645  24.083  0.00  0.00    +0.000 N 
ATOM     13  N   UNL     1      -0.824  13.597  23.540  0.00  0.00    +0.000 NA
ATOM     14  C   UNL     1      -1.505  12.587  23.083  0.00  0.00    +0.000 C 
ATOM     15  H   UNL     1      -0.952  15.473  24.301  0.00  0.00    +0.000 HD
ENDBRANCH   1  14
BRANCH   4  16
ATOM     16  N   UNL     1       1.402   8.169  20.899  0.00  0.00    +0.000 NA
ATOM     17  C   UNL     1       1.033   6.942  21.070  0.00  0.00    +0.000 C 
BRANCH  17  18
ATOM     18  C   UNL     1       1.826   5.820  20.530  0.00  0.00    +0.000 A 
ATOM     19  C   UNL     1       2.964   6.066  19.753  0.00  0.00    +0.000 A 
ATOM     20  C   UNL     1       3.720   4.999  19.262  0.00  0.00    +0.000 A 
ATOM     21  C   UNL     1       3.329   3.685  19.552  0.00  0.00    +0.000 A 
ATOM     22  C   UNL     1       2.188   3.435  20.331  0.00  0.00    +0.000 A 
ATOM     23  C   UNL     1       1.438   4.508  20.824  0.00  0.00    +0.000 A 
BRANCH  21  24
ATOM     24  N   UNL     1       4.122   2.563  19.037  0.00  0.00    +0.000 N 
ATOM     25  O   UNL     1       3.984   2.255  17.846  0.00  0.00    +0.000 OA
ATOM     26  O   UNL     1       4.883   1.986  19.829  0.00  0.00    +0.000 OA
ENDBRANCH  21  24
ENDBRANCH  17  18
ENDBRANCH   4  16
TORSDOF 4
ENDMDL
MODEL 5
REMARK VINA RESULT:      -7.5      2.976     10.333
REMARK  Name = 
REMARK  5 active torsions:
REMARK  status: ('A' for Active; 'I' for Inactive)
REMARK    1  A    between atoms: C_1  and  C_2
REMARK    2  A    between atoms: C_8  and  C_9
REMARK    3  A    between atoms: C_12  and  N_13
REMARK    4  A    between atoms: C_14  and  C_15
REMARK    5  A    between atoms: C_18  and  N_19
REMARK                            x       y       z     vdW  Elec       q    Type
REMARK                         _______ _______ _______ _____ _____    ______ ____
ROOT
ATOM      1  C   UNL     1      -1.447  10.497  18.583  0.00  0.00    +0.000 A 
ATOM      2  C   UNL     1      -1.047   9.808  17.437  0.00  0.00    +0.000 A 
ATOM      3  C   UNL     1       0.218   9.210  17.387  0.00  0.00    +0.000 A 
ATOM      4  C   UNL     1       1.103   9.286  18.467  0.00  0.00    +0.000 A 
ATOM      5  C   UNL     1       0.673   9.926  19.632  0.00  0.00    +0.000 A 
ATOM      6  C   UNL     1      -0.586  10.534  19.689  0.00  0.00    +0.000 A 
ENDROOT
BRANCH   1  14
ATOM      7  C   UNL     1      -3.912  11.394  16.458  0.00  0.00    +0.000 C 
ATOM      8  C   UNL     1      -3.937  10.689  17.816  0.00  0.00    +0.000 C 
ATOM      9  C   UNL     1      -5.244  10.934  18.551  0.00  0.00    +0.000 C 
ATOM     10  C   UNL     1      -5.296  12.317  19.134  0.00  0.00    +0.000 C 
ATOM     11  O   UNL     1      -6.349  12.934  19.278  0.00  0.00    +0.000 OA
ATOM     12  N   UNL     1      -4.098  12.815  19.576  0.00  0.00    +0.000 N 
ATOM     13  N   UNL     1      -2.890  12.201  19.473  0.00  0.00    +0.000 NA
ATOM     14  C   UNL     1      -2.779  11.170  18.687  0.00  0.00    +0.000 C 
ATOM     15  H   UNL     1      -4.121  13.694  20.083  0.00  0.00    +0.000 HD
ENDBRANCH   1  14
BRANCH   4  16
ATOM     16  N   UNL     1       2.355   8.672  18.315  0.00  0.00    +0.000 NA
ATOM     17  C   UNL     1       2.432   7.395  18.124  0.00  0.00    +0.000 C 
BRANCH  17  18
ATOM     18  C   UNL     1       3.737   6.713  18.016  0.00  0.00    +0.000 A 
ATOM     19  C   UNL     1       4.117   5.757  18.965  0.00  0.00    +0.000 A 
ATOM     20  C   UNL     1       5.345   5.101  18.844  0.00  0.00    +0.000 A 
ATOM     21  C   UNL     1       6.189   5.411  17.770  0.00  0.00    +0.000 A 
ATOM     22  C   UNL     1       5.810   6.368  16.816  0.00  0.00    +0.000 A 
ATOM     23  C   UNL     1       4.577   7.018  16.940  0.00  0.00    +0.000 A 
BRANCH  21  24
ATOM     24  N   UNL     1       7.479   4.723  17.641  0.00  0.00    +0.000 N 
ATOM     25  O   UNL     1       8.114   4.486  18.677  0.00  0.00    +0.000 OA
ATOM     26  O   UNL     1       7.859   4.422  16.499  0.00  0.00    +0.000 OA
ENDBRANCH  21  24
ENDBRANCH  17  18
ENDBRANCH   4  16
TORSDOF 4
ENDMDL
MODEL 6
REMARK VINA RESULT:      -7.5      0.777      1.294
REMARK  Name = 
REMARK  5 active torsions:
REMARK  status: ('A' for Active; 'I' for Inactive)
REMARK    1  A    between atoms: C_1  and  C_2
REMARK    2  A    between atoms: C_8  and  C_9
REMARK    3  A    between atoms: C_12  and  N_13
REMARK    4  A    between atoms: C_14  and  C_15
REMARK    5  A    between atoms: C_18  and  N_19
REMARK                            x       y       z     vdW  Elec       q    Type
REMARK                         _______ _______ _______ _____ _____    ______ ____
ROOT
ATOM      1  C   UNL     1       3.324   6.922  18.095  0.00  0.00    +0.000 A 
ATOM      2  C   UNL     1       2.816   8.157  17.693  0.00  0.00    +0.000 A 
ATOM      3  C   UNL     1       1.909   8.840  18.513  0.00  0.00    +0.000 A 
ATOM      4  C   UNL     1       1.494   8.311  19.739  0.00  0.00    +0.000 A 
ATOM      5  C   UNL     1       2.052   7.101  20.162  0.00  0.00    +0.000 A 
ATOM      6  C   UNL     1       2.952   6.408  19.345  0.00  0.00    +0.000 A 
ENDROOT
BRANCH   1  14
ATOM      7  C   UNL     1       5.822   4.714  18.629  0.00  0.00    +0.000 C 
ATOM      8  C   UNL     1       4.644   4.711  17.652  0.00  0.00    +0.000 C 
ATOM      9  C   UNL     1       4.958   3.911  16.399  0.00  0.00    +0.000 C 
ATOM     10  C   UNL     1       5.875   4.665  15.480  0.00  0.00    +0.000 C 
ATOM     11  O   UNL     1       6.675   4.103  14.736  0.00  0.00    +0.000 OA
ATOM     12  N   UNL     1       5.701   6.025  15.461  0.00  0.00    +0.000 N 
ATOM     13  N   UNL     1       4.834   6.731  16.234  0.00  0.00    +0.000 NA
ATOM     14  C   UNL     1       4.282   6.139  17.252  0.00  0.00    +0.000 C 
ATOM     15  H   UNL     1       6.220   6.549  14.763  0.00  0.00    +0.000 HD
ENDBRANCH   1  14
BRANCH   4  16
ATOM     16  N   UNL     1       0.568   9.060  20.481  0.00  0.00    +0.000 NA
ATOM     17  C   UNL     1       0.220  10.239  20.081  0.00  0.00    +0.000 C 
BRANCH  17  18
ATOM     18  C   UNL     1      -0.709  11.073  20.869  0.00  0.00    +0.000 A 
ATOM     19  C   UNL     1      -1.606  11.934  20.228  0.00  0.00    +0.000 A 
ATOM     20  C   UNL     1      -2.496  12.705  20.980  0.00  0.00    +0.000 A 
ATOM     21  C   UNL     1      -2.480  12.608  22.378  0.00  0.00    +0.000 A 
ATOM     22  C   UNL     1      -1.582  11.745  23.024  0.00  0.00    +0.000 A 
ATOM     23  C   UNL     1      -0.697  10.972  22.265  0.00  0.00    +0.000 A 
BRANCH  21  24
ATOM     24  N   UNL     1      -3.414  13.417  23.170  0.00  0.00    +0.000 N 
ATOM     25  O   UNL     1      -3.108  13.673  24.342  0.00  0.00    +0.000 OA
ATOM     26  O   UNL     1      -4.460  13.793  22.619  0.00  0.00    +0.000 OA
ENDBRANCH  21  24
ENDBRANCH  17  18
ENDBRANCH   4  16
TORSDOF 4
ENDMDL
MODEL 7
REMARK VINA RESULT:      -7.5      1.186      1.282
REMARK  Name = 
REMARK  5 active torsions:
REMARK  status: ('A' for Active; 'I' for Inactive)
REMARK    1  A    between atoms: C_1  and  C_2
REMARK    2  A    between atoms: C_8  and  C_9
REMARK    3  A    between atoms: C_12  and  N_13
REMARK    4  A    between atoms: C_14  and  C_15
REMARK    5  A    between atoms: C_18  and  N_19
REMARK                            x       y       z     vdW  Elec       q    Type
REMARK                         _______ _______ _______ _____ _____    ______ ____
ROOT
ATOM      1  C   UNL     1       3.095   7.205  18.220  0.00  0.00    +0.000 A 
ATOM      2  C   UNL     1       2.629   6.872  19.493  0.00  0.00    +0.000 A 
ATOM      3  C   UNL     1       1.733   7.722  20.153  0.00  0.00    +0.000 A 
ATOM      4  C   UNL     1       1.287   8.909  19.566  0.00  0.00    +0.000 A 
ATOM      5  C   UNL     1       1.712   9.207  18.267  0.00  0.00    +0.000 A 
ATOM      6  C   UNL     1       2.615   8.368  17.603  0.00  0.00    +0.000 A 
ENDROOT
BRANCH   1  14
ATOM      7  C   UNL     1       5.482   4.951  19.009  0.00  0.00    +0.000 C 
ATOM      8  C   UNL     1       4.358   4.931  17.971  0.00  0.00    +0.000 C 
ATOM      9  C   UNL     1       4.708   4.051  16.782  0.00  0.00    +0.000 C 
ATOM     10  C   UNL     1       5.697   4.723  15.875  0.00  0.00    +0.000 C 
ATOM     11  O   UNL     1       6.514   4.093  15.206  0.00  0.00    +0.000 OA
ATOM     12  N   UNL     1       5.572   6.084  15.772  0.00  0.00    +0.000 N 
ATOM     13  N   UNL     1       4.692   6.860  16.456  0.00  0.00    +0.000 NA
ATOM     14  C   UNL     1       4.067   6.345  17.475  0.00  0.00    +0.000 C 
ATOM     15  H   UNL     1       6.145   6.550  15.075  0.00  0.00    +0.000 HD
ENDBRANCH   1  14
BRANCH   4  16
ATOM     16  N   UNL     1       0.405   9.704  20.313  0.00  0.00    +0.000 NA
ATOM     17  C   UNL     1       0.822  10.805  20.849  0.00  0.00    +0.000 C 
BRANCH  17  18
ATOM     18  C   UNL     1      -0.068  11.634  21.686  0.00  0.00    +0.000 A 
ATOM     19  C   UNL     1       0.037  13.030  21.665  0.00  0.00    +0.000 A 
ATOM     20  C   UNL     1      -0.821  13.808  22.445  0.00  0.00    +0.000 A 
ATOM     21  C   UNL     1      -1.784  13.180  23.247  0.00  0.00    +0.000 A 
ATOM     22  C   UNL     1      -1.893  11.781  23.269  0.00  0.00    +0.000 A 
ATOM     23  C   UNL     1      -1.033  11.007  22.482  0.00  0.00    +0.000 A 
BRANCH  21  24
ATOM     24  N   UNL     1      -2.687  13.996  24.066  0.00  0.00    +0.000 N 
ATOM     25  O   UNL     1      -3.672  13.440  24.571  0.00  0.00    +0.000 OA
ATOM     26  O   UNL     1      -2.412  15.198  24.202  0.00  0.00    +0.000 OA
ENDBRANCH  21  24
ENDBRANCH  17  18
ENDBRANCH   4  16
TORSDOF 4
ENDMDL
MODEL 8
REMARK VINA RESULT:      -7.5      1.554      2.103
REMARK  Name = 
REMARK  5 active torsions:
REMARK  status: ('A' for Active; 'I' for Inactive)
REMARK    1  A    between atoms: C_1  and  C_2
REMARK    2  A    between atoms: C_8  and  C_9
REMARK    3  A    between atoms: C_12  and  N_13
REMARK    4  A    between atoms: C_14  and  C_15
REMARK    5  A    between atoms: C_18  and  N_19
REMARK                            x       y       z     vdW  Elec       q    Type
REMARK                         _______ _______ _______ _____ _____    ______ ____
ROOT
ATOM      1  C   UNL     1       3.706   6.848  18.560  0.00  0.00    +0.000 A 
ATOM      2  C   UNL     1       2.992   6.443  19.688  0.00  0.00    +0.000 A 
ATOM      3  C   UNL     1       1.897   7.195  20.131  0.00  0.00    +0.000 A 
ATOM      4  C   UNL     1       1.495   8.357  19.465  0.00  0.00    +0.000 A 
ATOM      5  C   UNL     1       2.178   8.724  18.302  0.00  0.00    +0.000 A 
ATOM      6  C   UNL     1       3.279   7.983  17.857  0.00  0.00    +0.000 A 
ENDROOT
BRANCH   1  14
ATOM      7  C   UNL     1       5.122   6.238  15.557  0.00  0.00    +0.000 C 
ATOM      8  C   UNL     1       5.716   6.668  16.900  0.00  0.00    +0.000 C 
ATOM      9  C   UNL     1       7.159   6.214  17.047  0.00  0.00    +0.000 C 
ATOM     10  C   UNL     1       7.245   4.745  17.342  0.00  0.00    +0.000 C 
ATOM     11  O   UNL     1       8.196   4.053  16.984  0.00  0.00    +0.000 OA
ATOM     12  N   UNL     1       6.232   4.239  18.114  0.00  0.00    +0.000 N 
ATOM     13  N   UNL     1       5.152   4.927  18.567  0.00  0.00    +0.000 NA
ATOM     14  C   UNL     1       4.895   6.094  18.052  0.00  0.00    +0.000 C 
ATOM     15  H   UNL     1       6.326   3.279  18.431  0.00  0.00    +0.000 HD
ENDBRANCH   1  14
BRANCH   4  16
ATOM     16  N   UNL     1       0.398   9.053  19.994  0.00  0.00    +0.000 NA
ATOM     17  C   UNL     1       0.556  10.248  20.463  0.00  0.00    +0.000 C 
BRANCH  17  18
ATOM     18  C   UNL     1      -0.567  10.985  21.077  0.00  0.00    +0.000 A 
ATOM     19  C   UNL     1      -0.813  10.886  22.451  0.00  0.00    +0.000 A 
ATOM     20  C   UNL     1      -1.865  11.602  23.027  0.00  0.00    +0.000 A 
ATOM     21  C   UNL     1      -2.670  12.415  22.218  0.00  0.00    +0.000 A 
ATOM     22  C   UNL     1      -2.426  12.516  20.840  0.00  0.00    +0.000 A 
ATOM     23  C   UNL     1      -1.368  11.800  20.270  0.00  0.00    +0.000 A 
BRANCH  21  24
ATOM     24  N   UNL     1      -3.776  13.168  22.822  0.00  0.00    +0.000 N 
ATOM     25  O   UNL     1      -3.723  14.404  22.782  0.00  0.00    +0.000 OA
ATOM     26  O   UNL     1      -4.697  12.520  23.340  0.00  0.00    +0.000 OA
ENDBRANCH  21  24
ENDBRANCH  17  18
ENDBRANCH   4  16
TORSDOF 4
ENDMDL
MODEL 9
REMARK VINA RESULT:      -7.5      1.993     10.798
REMARK  Name = 
REMARK  5 active torsions:
REMARK  status: ('A' for Active; 'I' for Inactive)
REMARK    1  A    between atoms: C_1  and  C_2
REMARK    2  A    between atoms: C_8  and  C_9
REMARK    3  A    between atoms: C_12  and  N_13
REMARK    4  A    between atoms: C_14  and  C_15
REMARK    5  A    between atoms: C_18  and  N_19
REMARK                            x       y       z     vdW  Elec       q    Type
REMARK                         _______ _______ _______ _____ _____    ______ ____
ROOT
ATOM      1  C   UNL     1      -1.445  11.458  22.441  0.00  0.00    +0.000 A 
ATOM      2  C   UNL     1      -0.970  10.426  23.252  0.00  0.00    +0.000 A 
ATOM      3  C   UNL     1      -0.066   9.491  22.735  0.00  0.00    +0.000 A 
ATOM      4  C   UNL     1       0.380   9.562  21.412  0.00  0.00    +0.000 A 
ATOM      5  C   UNL     1      -0.054  10.632  20.624  0.00  0.00    +0.000 A 
ATOM      6  C   UNL     1      -0.965  11.567  21.129  0.00  0.00    +0.000 A 
ENDROOT
BRANCH   1  14
ATOM      7  C   UNL     1      -1.299  14.480  23.940  0.00  0.00    +0.000 C 
ATOM      8  C   UNL     1      -2.123  13.961  22.759  0.00  0.00    +0.000 C 
ATOM      9  C   UNL     1      -3.432  14.719  22.613  0.00  0.00    +0.000 C 
ATOM     10  C   UNL     1      -4.430  14.296  23.651  0.00  0.00    +0.000 C 
ATOM     11  O   UNL     1      -5.286  15.059  24.094  0.00  0.00    +0.000 OA
ATOM     12  N   UNL     1      -4.381  12.974  24.012  0.00  0.00    +0.000 N 
ATOM     13  N   UNL     1      -3.484  12.057  23.566  0.00  0.00    +0.000 NA
ATOM     14  C   UNL     1      -2.426  12.475  22.934  0.00  0.00    +0.000 C 
ATOM     15  H   UNL     1      -5.119  12.632  24.619  0.00  0.00    +0.000 HD
ENDBRANCH   1  14
BRANCH   4  16
ATOM     16  N   UNL     1       1.271   8.569  20.980  0.00  0.00    +0.000 NA
ATOM     17  C   UNL     1       1.533   8.438  19.720  0.00  0.00    +0.000 C 
BRANCH  17  18
ATOM     18  C   UNL     1       2.423   7.367  19.230  0.00  0.00    +0.000 A 
ATOM     19  C   UNL     1       3.085   7.502  18.004  0.00  0.00    +0.000 A 
ATOM     20  C   UNL     1       3.941   6.493  17.557  0.00  0.00    +0.000 A 
ATOM     21  C   UNL     1       4.129   5.348  18.343  0.00  0.00    +0.000 A 
ATOM     22  C   UNL     1       3.467   5.210  19.573  0.00  0.00    +0.000 A 
ATOM     23  C   UNL     1       2.614   6.226  20.018  0.00  0.00    +0.000 A 
BRANCH  21  24
ATOM     24  N   UNL     1       5.028   4.287  17.875  0.00  0.00    +0.000 N 
ATOM     25  O   UNL     1       4.884   3.876  16.715  0.00  0.00    +0.000 OA
ATOM     26  O   UNL     1       5.879   3.861  18.671  0.00  0.00    +0.000 OA
ENDBRANCH  21  24
ENDBRANCH  17  18
ENDBRANCH   4  16
TORSDOF 4
ENDMDL
