MODEL 1
REMARK VINA RESULT:      -8.3      0.000      0.000
REMARK  Name = 
REMARK  8 active torsions:
REMARK  status: ('A' for Active; 'I' for Inactive)
REMARK    1  A    between atoms: C_1  and  C_2
REMARK    2  A    between atoms: C_3  and  C_4
REMARK    3  A    between atoms: C_4  and  N_5
REMARK    4  A    between atoms: C_11  and  N_12
REMARK    5  A    between atoms: N_19  and  C_20
REMARK    6  A    between atoms: C_20  and  C_21
REMARK    7  A    between atoms: C_21  and  C_23
REMARK    8  A    between atoms: N_31  and  C_32
REMARK                            x       y       z     vdW  Elec       q    Type
REMARK                         _______ _______ _______ _____ _____    ______ ____
ROOT
ATOM      1  N   UNL     1       2.296   7.395  18.765  0.00  0.00    +0.000 N 
ATOM      2  C   UNL     1       2.069   6.525  19.877  0.00  0.00    +0.000 A 
ATOM      3  N   UNL     1       2.257   5.168  19.893  0.00  0.00    +0.000 N 
ATOM      4  C   UNL     1       1.370   4.351  20.771  0.00  0.00    +0.000 C 
ATOM      5  C   UNL     1       1.235   2.982  20.084  0.00  0.00    +0.000 C 
ATOM      6  C   UNL     1       2.606   2.318  19.875  0.00  0.00    +0.000 C 
ATOM      7  C   UNL     1       3.637   3.296  19.267  0.00  0.00    +0.000 C 
ATOM      8  C   UNL     1       3.631   4.638  20.037  0.00  0.00    +0.000 C 
ATOM      9  N   UNL     1       1.546   7.170  20.895  0.00  0.00    +0.000 NA
ATOM     10  C   UNL     1       1.433   8.457  20.495  0.00  0.00    +0.000 A 
ATOM     11  C   UNL     1       1.876   8.681  19.232  0.00  0.00    +0.000 A 
ATOM     12  C   UNL     1       1.805  10.024  18.649  0.00  0.00    +0.000 A 
ATOM     13  O   UNL     1       2.223  10.307  17.554  0.00  0.00    +0.000 OA
ATOM     14  N   UNL     1       1.200  11.012  19.517  0.00  0.00    +0.000 N 
ATOM     15  C   UNL     1       0.828  10.752  20.843  0.00  0.00    +0.000 A 
ATOM     16  O   UNL     1       0.451  11.643  21.598  0.00  0.00    +0.000 OA
ATOM     17  N   UNL     1       0.904   9.452  21.309  0.00  0.00    +0.000 N 
ATOM     18  C   UNL     1       0.421   9.186  22.654  0.00  0.00    +0.000 C 
ENDROOT
BRANCH   7  19
ATOM     19  N   UNL     1       4.951   2.657  19.186  0.00  0.00    +0.000 NA
ATOM     20  H   UNL     1       5.304   2.677  18.230  0.00  0.00    +0.000 HD
ATOM     21  H   UNL     1       4.868   1.676  19.450  0.00  0.00    +0.000 HD
ENDBRANCH   7  19
BRANCH   1  22
ATOM     22  C   UNL     1       2.787   6.997  17.355  0.00  0.00    +0.000 C 
BRANCH  22  25
ATOM     23  C   UNL     1       7.129   6.860  17.396  0.00  0.00    +0.000 C 
ATOM     24  C   UNL     1       5.610   6.908  17.381  0.00  0.00    +0.000 C 
ATOM     25  C   UNL     1       4.307   6.949  17.369  0.00  0.00    +0.000 C 
ENDBRANCH  22  25
ENDBRANCH   1  22
BRANCH  14  26
ATOM     26  C   UNL     1       1.088  12.448  19.065  0.00  0.00    +0.000 C 
BRANCH  26  27
ATOM     27  C   UNL     1      -0.280  13.106  18.628  0.00  0.00    +0.000 C 
ATOM     28  O   UNL     1      -0.462  14.311  18.453  0.00  0.00    +0.000 OA
BRANCH  27  29
ATOM     29  C   UNL     1      -1.533  12.272  18.526  0.00  0.00    +0.000 A 
ATOM     30  C   UNL     1      -1.700  11.508  17.356  0.00  0.00    +0.000 A 
ATOM     31  C   UNL     1      -2.934  10.945  17.036  0.00  0.00    +0.000 A 
ATOM     32  C   UNL     1      -3.997  11.112  17.912  0.00  0.00    +0.000 A 
ATOM     33  C   UNL     1      -3.827  11.828  19.105  0.00  0.00    +0.000 A 
ATOM     34  C   UNL     1      -2.594  12.405  19.425  0.00  0.00    +0.000 A 
ENDBRANCH  27  29
ENDBRANCH  26  27
ENDBRANCH  14  26
TORSDOF 6
ENDMDL
MODEL 2
REMARK VINA RESULT:      -8.0      1.920      3.081
REMARK  Name = 
REMARK  8 active torsions:
REMARK  status: ('A' for Active; 'I' for Inactive)
REMARK    1  A    between atoms: C_1  and  C_2
REMARK    2  A    between atoms: C_3  and  C_4
REMARK    3  A    between atoms: C_4  and  N_5
REMARK    4  A    between atoms: C_11  and  N_12
REMARK    5  A    between atoms: N_19  and  C_20
REMARK    6  A    between atoms: C_20  and  C_21
REMARK    7  A    between atoms: C_21  and  C_23
REMARK    8  A    between atoms: N_31  and  C_32
REMARK                            x       y       z     vdW  Elec       q    Type
REMARK                         _______ _______ _______ _____ _____    ______ ____
ROOT
ATOM      1  N   UNL     1       2.248   7.482  18.791  0.00  0.00    +0.000 N 
ATOM      2  C   UNL     1       2.070   6.599  19.901  0.00  0.00    +0.000 A 
ATOM      3  N   UNL     1       2.303   5.248  19.904  0.00  0.00    +0.000 N 
ATOM      4  C   UNL     1       1.460   4.397  20.792  0.00  0.00    +0.000 C 
ATOM      5  C   UNL     1       1.356   3.029  20.098  0.00  0.00    +0.000 C 
ATOM      6  C   UNL     1       2.745   2.412  19.860  0.00  0.00    +0.000 C 
ATOM      7  C   UNL     1       3.731   3.427  19.240  0.00  0.00    +0.000 C 
ATOM      8  C   UNL     1       3.696   4.763  20.019  0.00  0.00    +0.000 C 
ATOM      9  N   UNL     1       1.546   7.219  20.932  0.00  0.00    +0.000 NA
ATOM     10  C   UNL     1       1.383   8.505  20.544  0.00  0.00    +0.000 A 
ATOM     11  C   UNL     1       1.795   8.751  19.274  0.00  0.00    +0.000 A 
ATOM     12  C   UNL     1       1.670  10.095  18.702  0.00  0.00    +0.000 A 
ATOM     13  O   UNL     1       2.058  10.398  17.601  0.00  0.00    +0.000 OA
ATOM     14  N   UNL     1       1.049  11.057  19.588  0.00  0.00    +0.000 N 
ATOM     15  C   UNL     1       0.710  10.776  20.919  0.00  0.00    +0.000 A 
ATOM     16  O   UNL     1       0.318  11.650  21.687  0.00  0.00    +0.000 OA
ATOM     17  N   UNL     1       0.837   9.477  21.374  0.00  0.00    +0.000 N 
ATOM     18  C   UNL     1       0.387   9.186  22.726  0.00  0.00    +0.000 C 
ENDROOT
BRANCH   7  19
ATOM     19  N   UNL     1       5.064   2.831  19.130  0.00  0.00    +0.000 NA
ATOM     20  H   UNL     1       5.463   2.667  20.054  0.00  0.00    +0.000 HD
ATOM     21  H   UNL     1       5.687   3.478  18.650  0.00  0.00    +0.000 HD
ENDBRANCH   7  19
BRANCH   1  22
ATOM     22  C   UNL     1       2.726   7.110  17.370  0.00  0.00    +0.000 C 
BRANCH  22  25
ATOM     23  C   UNL     1       7.061   6.829  17.401  0.00  0.00    +0.000 C 
ATOM     24  C   UNL     1       5.544   6.928  17.390  0.00  0.00    +0.000 C 
ATOM     25  C   UNL     1       4.243   7.011  17.381  0.00  0.00    +0.000 C 
ENDBRANCH  22  25
ENDBRANCH   1  22
BRANCH  14  26
ATOM     26  C   UNL     1       0.882  12.491  19.148  0.00  0.00    +0.000 C 
BRANCH  26  27
ATOM     27  C   UNL     1       2.008  13.583  19.336  0.00  0.00    +0.000 C 
ATOM     28  O   UNL     1       2.918  13.526  20.164  0.00  0.00    +0.000 OA
BRANCH  27  29
ATOM     29  C   UNL     1       1.955  14.879  18.567  0.00  0.00    +0.000 A 
ATOM     30  C   UNL     1       3.092  15.224  17.812  0.00  0.00    +0.000 A 
ATOM     31  C   UNL     1       3.258  16.514  17.312  0.00  0.00    +0.000 A 
ATOM     32  C   UNL     1       2.262  17.455  17.533  0.00  0.00    +0.000 A 
ATOM     33  C   UNL     1       1.103  17.107  18.240  0.00  0.00    +0.000 A 
ATOM     34  C   UNL     1       0.936  15.817  18.754  0.00  0.00    +0.000 A 
ENDBRANCH  27  29
ENDBRANCH  26  27
ENDBRANCH  14  26
TORSDOF 6
ENDMDL
MODEL 3
REMARK VINA RESULT:      -7.7      1.453      2.258
REMARK  Name = 
REMARK  8 active torsions:
REMARK  status: ('A' for Active; 'I' for Inactive)
REMARK    1  A    between atoms: C_1  and  C_2
REMARK    2  A    between atoms: C_3  and  C_4
REMARK    3  A    between atoms: C_4  and  N_5
REMARK    4  A    between atoms: C_11  and  N_12
REMARK    5  A    between atoms: N_19  and  C_20
REMARK    6  A    between atoms: C_20  and  C_21
REMARK    7  A    between atoms: C_21  and  C_23
REMARK    8  A    between atoms: N_31  and  C_32
REMARK                            x       y       z     vdW  Elec       q    Type
REMARK                         _______ _______ _______ _____ _____    ______ ____
ROOT
ATOM      1  N   UNL     1       2.316   7.429  18.747  0.00  0.00    +0.000 N 
ATOM      2  C   UNL     1       2.083   6.562  19.860  0.00  0.00    +0.000 A 
ATOM      3  N   UNL     1       2.266   5.203  19.878  0.00  0.00    +0.000 N 
ATOM      4  C   UNL     1       1.374   4.392  20.755  0.00  0.00    +0.000 C 
ATOM      5  C   UNL     1       1.235   3.022  20.070  0.00  0.00    +0.000 C 
ATOM      6  C   UNL     1       2.604   2.353  19.865  0.00  0.00    +0.000 C 
ATOM      7  C   UNL     1       3.640   3.326  19.258  0.00  0.00    +0.000 C 
ATOM      8  C   UNL     1       3.638   4.669  20.026  0.00  0.00    +0.000 C 
ATOM      9  N   UNL     1       1.561   7.209  20.875  0.00  0.00    +0.000 NA
ATOM     10  C   UNL     1       1.453   8.497  20.474  0.00  0.00    +0.000 A 
ATOM     11  C   UNL     1       1.899   8.717  19.211  0.00  0.00    +0.000 A 
ATOM     12  C   UNL     1       1.835  10.060  18.626  0.00  0.00    +0.000 A 
ATOM     13  O   UNL     1       2.257  10.340  17.531  0.00  0.00    +0.000 OA
ATOM     14  N   UNL     1       1.232  11.051  19.491  0.00  0.00    +0.000 N 
ATOM     15  C   UNL     1       0.856  10.795  20.817  0.00  0.00    +0.000 A 
ATOM     16  O   UNL     1       0.481  11.688  21.571  0.00  0.00    +0.000 OA
ATOM     17  N   UNL     1       0.926   9.495  21.285  0.00  0.00    +0.000 N 
ATOM     18  C   UNL     1       0.439   9.232  22.630  0.00  0.00    +0.000 C 
ENDROOT
BRANCH   7  19
ATOM     19  N   UNL     1       4.952   2.681  19.180  0.00  0.00    +0.000 NA
ATOM     20  H   UNL     1       4.853   1.685  18.988  0.00  0.00    +0.000 HD
ATOM     21  H   UNL     1       5.424   2.763  20.079  0.00  0.00    +0.000 HD
ENDBRANCH   7  19
BRANCH   1  22
ATOM     22  C   UNL     1       2.808   7.027  17.339  0.00  0.00    +0.000 C 
BRANCH  22  25
ATOM     23  C   UNL     1       7.150   6.878  17.388  0.00  0.00    +0.000 C 
ATOM     24  C   UNL     1       5.630   6.930  17.371  0.00  0.00    +0.000 C 
ATOM     25  C   UNL     1       4.328   6.974  17.356  0.00  0.00    +0.000 C 
ENDBRANCH  22  25
ENDBRANCH   1  22
BRANCH  14  26
ATOM     26  C   UNL     1       1.127  12.487  19.037  0.00  0.00    +0.000 C 
BRANCH  26  27
ATOM     27  C   UNL     1      -0.251  13.179  18.695  0.00  0.00    +0.000 C 
ATOM     28  O   UNL     1      -1.089  12.737  17.908  0.00  0.00    +0.000 OA
BRANCH  27  29
ATOM     29  C   UNL     1      -0.576  14.550  19.235  0.00  0.00    +0.000 A 
ATOM     30  C   UNL     1      -1.491  14.617  20.301  0.00  0.00    +0.000 A 
ATOM     31  C   UNL     1      -2.074  15.828  20.673  0.00  0.00    +0.000 A 
ATOM     32  C   UNL     1      -1.707  16.985  19.999  0.00  0.00    +0.000 A 
ATOM     33  C   UNL     1      -0.758  16.936  18.969  0.00  0.00    +0.000 A 
ATOM     34  C   UNL     1      -0.179  15.722  18.585  0.00  0.00    +0.000 A 
ENDBRANCH  27  29
ENDBRANCH  26  27
ENDBRANCH  14  26
TORSDOF 6
ENDMDL
MODEL 4
REMARK VINA RESULT:      -7.5      1.893      3.623
REMARK  Name = 
REMARK  8 active torsions:
REMARK  status: ('A' for Active; 'I' for Inactive)
REMARK    1  A    between atoms: C_1  and  C_2
REMARK    2  A    between atoms: C_3  and  C_4
REMARK    3  A    between atoms: C_4  and  N_5
REMARK    4  A    between atoms: C_11  and  N_12
REMARK    5  A    between atoms: N_19  and  C_20
REMARK    6  A    between atoms: C_20  and  C_21
REMARK    7  A    between atoms: C_21  and  C_23
REMARK    8  A    between atoms: N_31  and  C_32
REMARK                            x       y       z     vdW  Elec       q    Type
REMARK                         _______ _______ _______ _____ _____    ______ ____
ROOT
ATOM      1  N   UNL     1       2.251   7.565  18.765  0.00  0.00    +0.000 N 
ATOM      2  C   UNL     1       2.065   6.681  19.873  0.00  0.00    +0.000 A 
ATOM      3  N   UNL     1       2.294   5.329  19.875  0.00  0.00    +0.000 N 
ATOM      4  C   UNL     1       1.443   4.479  20.757  0.00  0.00    +0.000 C 
ATOM      5  C   UNL     1       1.340   3.112  20.060  0.00  0.00    +0.000 C 
ATOM      6  C   UNL     1       2.729   2.492  19.829  0.00  0.00    +0.000 C 
ATOM      7  C   UNL     1       3.721   3.505  19.216  0.00  0.00    +0.000 C 
ATOM      8  C   UNL     1       3.685   4.840  19.997  0.00  0.00    +0.000 C 
ATOM      9  N   UNL     1       1.536   7.300  20.902  0.00  0.00    +0.000 NA
ATOM     10  C   UNL     1       1.379   8.587  20.515  0.00  0.00    +0.000 A 
ATOM     11  C   UNL     1       1.798   8.835  19.248  0.00  0.00    +0.000 A 
ATOM     12  C   UNL     1       1.680  10.180  18.678  0.00  0.00    +0.000 A 
ATOM     13  O   UNL     1       2.075  10.484  17.579  0.00  0.00    +0.000 OA
ATOM     14  N   UNL     1       1.057  11.142  19.561  0.00  0.00    +0.000 N 
ATOM     15  C   UNL     1       0.709  10.860  20.890  0.00  0.00    +0.000 A 
ATOM     16  O   UNL     1       0.316  11.733  21.657  0.00  0.00    +0.000 OA
ATOM     17  N   UNL     1       0.830   9.559  21.344  0.00  0.00    +0.000 N 
ATOM     18  C   UNL     1       0.373   9.267  22.693  0.00  0.00    +0.000 C 
ENDROOT
BRANCH   7  19
ATOM     19  N   UNL     1       5.053   2.906  19.113  0.00  0.00    +0.000 NA
ATOM     20  H   UNL     1       5.536   3.241  18.281  0.00  0.00    +0.000 HD
ATOM     21  H   UNL     1       4.964   1.896  19.017  0.00  0.00    +0.000 HD
ENDBRANCH   7  19
BRANCH   1  22
ATOM     22  C   UNL     1       2.736   7.194  17.346  0.00  0.00    +0.000 C 
BRANCH  22  25
ATOM     23  C   UNL     1       7.065   6.838  17.419  0.00  0.00    +0.000 C 
ATOM     24  C   UNL     1       5.550   6.963  17.394  0.00  0.00    +0.000 C 
ATOM     25  C   UNL     1       4.251   7.069  17.371  0.00  0.00    +0.000 C 
ENDBRANCH  22  25
ENDBRANCH   1  22
BRANCH  14  26
ATOM     26  C   UNL     1       0.896  12.577  19.123  0.00  0.00    +0.000 C 
BRANCH  26  27
ATOM     27  C   UNL     1       1.637  13.779  19.832  0.00  0.00    +0.000 C 
ATOM     28  O   UNL     1       1.100  14.604  20.571  0.00  0.00    +0.000 OA
BRANCH  27  29
ATOM     29  C   UNL     1       3.084  14.075  19.524  0.00  0.00    +0.000 A 
ATOM     30  C   UNL     1       3.890  14.508  20.593  0.00  0.00    +0.000 A 
ATOM     31  C   UNL     1       5.141  15.080  20.365  0.00  0.00    +0.000 A 
ATOM     32  C   UNL     1       5.604  15.183  19.061  0.00  0.00    +0.000 A 
ATOM     33  C   UNL     1       4.831  14.708  17.993  0.00  0.00    +0.000 A 
ATOM     34  C   UNL     1       3.571  14.144  18.216  0.00  0.00    +0.000 A 
ENDBRANCH  27  29
ENDBRANCH  26  27
ENDBRANCH  14  26
TORSDOF 6
ENDMDL
MODEL 5
REMARK VINA RESULT:      -7.4      1.934      3.240
REMARK  Name = 
REMARK  8 active torsions:
REMARK  status: ('A' for Active; 'I' for Inactive)
REMARK    1  A    between atoms: C_1  and  C_2
REMARK    2  A    between atoms: C_3  and  C_4
REMARK    3  A    between atoms: C_4  and  N_5
REMARK    4  A    between atoms: C_11  and  N_12
REMARK    5  A    between atoms: N_19  and  C_20
REMARK    6  A    between atoms: C_20  and  C_21
REMARK    7  A    between atoms: C_21  and  C_23
REMARK    8  A    between atoms: N_31  and  C_32
REMARK                            x       y       z     vdW  Elec       q    Type
REMARK                         _______ _______ _______ _____ _____    ______ ____
ROOT
ATOM      1  N   UNL     1       2.263   7.462  18.747  0.00  0.00    +0.000 N 
ATOM      2  C   UNL     1       2.086   6.612  19.884  0.00  0.00    +0.000 A 
ATOM      3  N   UNL     1       2.311   5.261  19.924  0.00  0.00    +0.000 N 
ATOM      4  C   UNL     1       1.468   4.441  20.841  0.00  0.00    +0.000 C 
ATOM      5  C   UNL     1       1.353   3.054  20.188  0.00  0.00    +0.000 C 
ATOM      6  C   UNL     1       2.737   2.422  19.961  0.00  0.00    +0.000 C 
ATOM      7  C   UNL     1       3.726   3.413  19.306  0.00  0.00    +0.000 C 
ATOM      8  C   UNL     1       3.702   4.771  20.047  0.00  0.00    +0.000 C 
ATOM      9  N   UNL     1       1.570   7.265  20.900  0.00  0.00    +0.000 NA
ATOM     10  C   UNL     1       1.413   8.540  20.475  0.00  0.00    +0.000 A 
ATOM     11  C   UNL     1       1.819   8.747  19.196  0.00  0.00    +0.000 A 
ATOM     12  C   UNL     1       1.698  10.075  18.587  0.00  0.00    +0.000 A 
ATOM     13  O   UNL     1       2.082  10.344  17.475  0.00  0.00    +0.000 OA
ATOM     14  N   UNL     1       1.088  11.065  19.447  0.00  0.00    +0.000 N 
ATOM     15  C   UNL     1       0.754  10.825  20.787  0.00  0.00    +0.000 A 
ATOM     16  O   UNL     1       0.371  11.723  21.532  0.00  0.00    +0.000 OA
ATOM     17  N   UNL     1       0.876   9.538  21.279  0.00  0.00    +0.000 N 
ATOM     18  C   UNL     1       0.432   9.290  22.641  0.00  0.00    +0.000 C 
ENDROOT
BRANCH   7  19
ATOM     19  N   UNL     1       5.055   2.807  19.207  0.00  0.00    +0.000 NA
ATOM     20  H   UNL     1       5.041   1.849  19.556  0.00  0.00    +0.000 HD
ATOM     21  H   UNL     1       5.709   3.326  19.791  0.00  0.00    +0.000 HD
ENDBRANCH   7  19
BRANCH   1  22
ATOM     22  C   UNL     1       2.731   7.046  17.335  0.00  0.00    +0.000 C 
BRANCH  22  25
ATOM     23  C   UNL     1       7.069   6.804  17.335  0.00  0.00    +0.000 C 
ATOM     24  C   UNL     1       5.550   6.889  17.335  0.00  0.00    +0.000 C 
ATOM     25  C   UNL     1       4.249   6.961  17.336  0.00  0.00    +0.000 C 
ENDBRANCH  22  25
ENDBRANCH   1  22
BRANCH  14  26
ATOM     26  C   UNL     1       0.926  12.487  18.967  0.00  0.00    +0.000 C 
BRANCH  26  27
ATOM     27  C   UNL     1       2.120  13.521  18.928  0.00  0.00    +0.000 C 
ATOM     28  O   UNL     1       3.205  13.328  18.378  0.00  0.00    +0.000 OA
BRANCH  27  29
ATOM     29  C   UNL     1       2.046  14.807  19.711  0.00  0.00    +0.000 A 
ATOM     30  C   UNL     1       1.892  15.997  18.975  0.00  0.00    +0.000 A 
ATOM     31  C   UNL     1       2.105  17.241  19.568  0.00  0.00    +0.000 A 
ATOM     32  C   UNL     1       2.433  17.296  20.915  0.00  0.00    +0.000 A 
ATOM     33  C   UNL     1       2.538  16.120  21.669  0.00  0.00    +0.000 A 
ATOM     34  C   UNL     1       2.337  14.869  21.077  0.00  0.00    +0.000 A 
ENDBRANCH  27  29
ENDBRANCH  26  27
ENDBRANCH  14  26
TORSDOF 6
ENDMDL
MODEL 6
REMARK VINA RESULT:      -7.4      1.069      1.722
REMARK  Name = 
REMARK  8 active torsions:
REMARK  status: ('A' for Active; 'I' for Inactive)
REMARK    1  A    between atoms: C_1  and  C_2
REMARK    2  A    between atoms: C_3  and  C_4
REMARK    3  A    between atoms: C_4  and  N_5
REMARK    4  A    between atoms: C_11  and  N_12
REMARK    5  A    between atoms: N_19  and  C_20
REMARK    6  A    between atoms: C_20  and  C_21
REMARK    7  A    between atoms: C_21  and  C_23
REMARK    8  A    between atoms: N_31  and  C_32
REMARK                            x       y       z     vdW  Elec       q    Type
REMARK                         _______ _______ _______ _____ _____    ______ ____
ROOT
ATOM      1  N   UNL     1       2.243   7.421  18.841  0.00  0.00    +0.000 N 
ATOM      2  C   UNL     1       2.052   6.516  19.932  0.00  0.00    +0.000 A 
ATOM      3  N   UNL     1       2.259   5.161  19.902  0.00  0.00    +0.000 N 
ATOM      4  C   UNL     1       1.403   4.306  20.774  0.00  0.00    +0.000 C 
ATOM      5  C   UNL     1       1.271   2.957  20.049  0.00  0.00    +0.000 C 
ATOM      6  C   UNL     1       2.646   2.319  19.791  0.00  0.00    +0.000 C 
ATOM      7  C   UNL     1       3.650   3.329  19.191  0.00  0.00    +0.000 C 
ATOM      8  C   UNL     1       3.643   4.647  20.001  0.00  0.00    +0.000 C 
ATOM      9  N   UNL     1       1.544   7.122  20.979  0.00  0.00    +0.000 NA
ATOM     10  C   UNL     1       1.405   8.419  20.621  0.00  0.00    +0.000 A 
ATOM     11  C   UNL     1       1.816   8.687  19.356  0.00  0.00    +0.000 A 
ATOM     12  C   UNL     1       1.715  10.046  18.816  0.00  0.00    +0.000 A 
ATOM     13  O   UNL     1       2.104  10.367  17.720  0.00  0.00    +0.000 OA
ATOM     14  N   UNL     1       1.116  10.998  19.725  0.00  0.00    +0.000 N 
ATOM     15  C   UNL     1       0.776  10.694  21.051  0.00  0.00    +0.000 A 
ATOM     16  O   UNL     1       0.404  11.556  21.841  0.00  0.00    +0.000 OA
ATOM     17  N   UNL     1       0.880   9.382  21.476  0.00  0.00    +0.000 N 
ATOM     18  C   UNL     1       0.430   9.068  22.822  0.00  0.00    +0.000 C 
ENDROOT
BRANCH   7  19
ATOM     19  N   UNL     1       4.970   2.710  19.062  0.00  0.00    +0.000 NA
ATOM     20  H   UNL     1       5.180   2.507  18.086  0.00  0.00    +0.000 HD
ATOM     21  H   UNL     1       4.978   1.820  19.557  0.00  0.00    +0.000 HD
ENDBRANCH   7  19
BRANCH   1  22
ATOM     22  C   UNL     1       2.708   7.072  17.410  0.00  0.00    +0.000 C 
BRANCH  22  25
ATOM     23  C   UNL     1       7.045   6.816  17.394  0.00  0.00    +0.000 C 
ATOM     24  C   UNL     1       5.528   6.906  17.400  0.00  0.00    +0.000 C 
ATOM     25  C   UNL     1       4.226   6.982  17.405  0.00  0.00    +0.000 C 
ENDBRANCH  22  25
ENDBRANCH   1  22
BRANCH  14  26
ATOM     26  C   UNL     1       0.975  12.446  19.320  0.00  0.00    +0.000 C 
BRANCH  26  27
ATOM     27  C   UNL     1      -0.389  13.068  18.822  0.00  0.00    +0.000 C 
ATOM     28  O   UNL     1      -0.635  13.397  17.661  0.00  0.00    +0.000 OA
BRANCH  27  29
ATOM     29  C   UNL     1      -1.470  13.435  19.809  0.00  0.00    +0.000 A 
ATOM     30  C   UNL     1      -1.208  14.513  20.674  0.00  0.00    +0.000 A 
ATOM     31  C   UNL     1      -2.000  14.742  21.798  0.00  0.00    +0.000 A 
ATOM     32  C   UNL     1      -3.086  13.911  22.035  0.00  0.00    +0.000 A 
ATOM     33  C   UNL     1      -3.385  12.865  21.151  0.00  0.00    +0.000 A 
ATOM     34  C   UNL     1      -2.587  12.624  20.029  0.00  0.00    +0.000 A 
ENDBRANCH  27  29
ENDBRANCH  26  27
ENDBRANCH  14  26
TORSDOF 6
ENDMDL
MODEL 7
REMARK VINA RESULT:      -7.4      1.919      3.562
REMARK  Name = 
REMARK  8 active torsions:
REMARK  status: ('A' for Active; 'I' for Inactive)
REMARK    1  A    between atoms: C_1  and  C_2
REMARK    2  A    between atoms: C_3  and  C_4
REMARK    3  A    between atoms: C_4  and  N_5
REMARK    4  A    between atoms: C_11  and  N_12
REMARK    5  A    between atoms: N_19  and  C_20
REMARK    6  A    between atoms: C_20  and  C_21
REMARK    7  A    between atoms: C_21  and  C_23
REMARK    8  A    between atoms: N_31  and  C_32
REMARK                            x       y       z     vdW  Elec       q    Type
REMARK                         _______ _______ _______ _____ _____    ______ ____
ROOT
ATOM      1  N   UNL     1       2.247   7.522  18.787  0.00  0.00    +0.000 N 
ATOM      2  C   UNL     1       2.063   6.644  19.901  0.00  0.00    +0.000 A 
ATOM      3  N   UNL     1       2.279   5.290  19.906  0.00  0.00    +0.000 N 
ATOM      4  C   UNL     1       1.429   4.453  20.801  0.00  0.00    +0.000 C 
ATOM      5  C   UNL     1       1.304   3.084  20.111  0.00  0.00    +0.000 C 
ATOM      6  C   UNL     1       2.683   2.448  19.867  0.00  0.00    +0.000 C 
ATOM      7  C   UNL     1       3.679   3.449  19.238  0.00  0.00    +0.000 C 
ATOM      8  C   UNL     1       3.666   4.787  20.015  0.00  0.00    +0.000 C 
ATOM      9  N   UNL     1       1.553   7.273  20.934  0.00  0.00    +0.000 NA
ATOM     10  C   UNL     1       1.406   8.560  20.543  0.00  0.00    +0.000 A 
ATOM     11  C   UNL     1       1.813   8.798  19.270  0.00  0.00    +0.000 A 
ATOM     12  C   UNL     1       1.702  10.142  18.696  0.00  0.00    +0.000 A 
ATOM     13  O   UNL     1       2.088  10.437  17.592  0.00  0.00    +0.000 OA
ATOM     14  N   UNL     1       1.099  11.114  19.582  0.00  0.00    +0.000 N 
ATOM     15  C   UNL     1       0.764  10.841  20.916  0.00  0.00    +0.000 A 
ATOM     16  O   UNL     1       0.388  11.721  21.684  0.00  0.00    +0.000 OA
ATOM     17  N   UNL     1       0.876   9.541  21.374  0.00  0.00    +0.000 N 
ATOM     18  C   UNL     1       0.431   9.259  22.729  0.00  0.00    +0.000 C 
ENDROOT
BRANCH   7  19
ATOM     19  N   UNL     1       5.003   2.835  19.123  0.00  0.00    +0.000 NA
ATOM     20  H   UNL     1       5.683   3.507  18.769  0.00  0.00    +0.000 HD
ATOM     21  H   UNL     1       4.966   2.070  18.450  0.00  0.00    +0.000 HD
ENDBRANCH   7  19
BRANCH   1  22
ATOM     22  C   UNL     1       2.712   7.140  17.365  0.00  0.00    +0.000 C 
BRANCH  22  25
ATOM     23  C   UNL     1       7.043   6.805  17.374  0.00  0.00    +0.000 C 
ATOM     24  C   UNL     1       5.527   6.921  17.371  0.00  0.00    +0.000 C 
ATOM     25  C   UNL     1       4.228   7.022  17.368  0.00  0.00    +0.000 C 
ENDBRANCH  22  25
ENDBRANCH   1  22
BRANCH  14  26
ATOM     26  C   UNL     1       0.949  12.549  19.140  0.00  0.00    +0.000 C 
BRANCH  26  27
ATOM     27  C   UNL     1       2.165  13.426  18.641  0.00  0.00    +0.000 C 
ATOM     28  O   UNL     1       2.523  13.537  17.468  0.00  0.00    +0.000 OA
BRANCH  27  29
ATOM     29  C   UNL     1       3.079  14.102  19.632  0.00  0.00    +0.000 A 
ATOM     30  C   UNL     1       4.179  14.808  19.110  0.00  0.00    +0.000 A 
ATOM     31  C   UNL     1       5.230  15.212  19.932  0.00  0.00    +0.000 A 
ATOM     32  C   UNL     1       5.160  14.944  21.292  0.00  0.00    +0.000 A 
ATOM     33  C   UNL     1       4.046  14.286  21.829  0.00  0.00    +0.000 A 
ATOM     34  C   UNL     1       2.994  13.868  21.007  0.00  0.00    +0.000 A 
ENDBRANCH  27  29
ENDBRANCH  26  27
ENDBRANCH  14  26
TORSDOF 6
ENDMDL
MODEL 8
REMARK VINA RESULT:      -7.3      2.457      4.678
REMARK  Name = 
REMARK  8 active torsions:
REMARK  status: ('A' for Active; 'I' for Inactive)
REMARK    1  A    between atoms: C_1  and  C_2
REMARK    2  A    between atoms: C_3  and  C_4
REMARK    3  A    between atoms: C_4  and  N_5
REMARK    4  A    between atoms: C_11  and  N_12
REMARK    5  A    between atoms: N_19  and  C_20
REMARK    6  A    between atoms: C_20  and  C_21
REMARK    7  A    between atoms: C_21  and  C_23
REMARK    8  A    between atoms: N_31  and  C_32
REMARK                            x       y       z     vdW  Elec       q    Type
REMARK                         _______ _______ _______ _____ _____    ______ ____
ROOT
ATOM      1  N   UNL     1       3.157   6.337  19.259  0.00  0.00    +0.000 N 
ATOM      2  C   UNL     1       3.857   6.828  18.112  0.00  0.00    +0.000 A 
ATOM      3  N   UNL     1       4.910   6.215  17.485  0.00  0.00    +0.000 N 
ATOM      4  C   UNL     1       5.935   7.082  16.835  0.00  0.00    +0.000 C 
ATOM      5  C   UNL     1       7.260   6.306  16.913  0.00  0.00    +0.000 C 
ATOM      6  C   UNL     1       7.151   4.934  16.229  0.00  0.00    +0.000 C 
ATOM      7  C   UNL     1       5.879   4.170  16.662  0.00  0.00    +0.000 C 
ATOM      8  C   UNL     1       4.637   5.088  16.566  0.00  0.00    +0.000 C 
ATOM      9  N   UNL     1       3.437   8.023  17.765  0.00  0.00    +0.000 NA
ATOM     10  C   UNL     1       2.458   8.337  18.644  0.00  0.00    +0.000 A 
ATOM     11  C   UNL     1       2.216   7.371  19.567  0.00  0.00    +0.000 A 
ATOM     12  C   UNL     1       1.193   7.570  20.597  0.00  0.00    +0.000 A 
ATOM     13  O   UNL     1       0.891   6.738  21.417  0.00  0.00    +0.000 OA
ATOM     14  N   UNL     1       0.545   8.863  20.543  0.00  0.00    +0.000 N 
ATOM     15  C   UNL     1       0.773   9.800  19.525  0.00  0.00    +0.000 A 
ATOM     16  O   UNL     1       0.105  10.825  19.425  0.00  0.00    +0.000 OA
ATOM     17  N   UNL     1       1.772   9.546  18.603  0.00  0.00    +0.000 N 
ATOM     18  C   UNL     1       2.059  10.574  17.616  0.00  0.00    +0.000 C 
ENDROOT
BRANCH   7  19
ATOM     19  N   UNL     1       5.761   2.921  15.908  0.00  0.00    +0.000 NA
ATOM     20  H   UNL     1       4.798   2.587  15.910  0.00  0.00    +0.000 HD
ATOM     21  H   UNL     1       6.325   2.200  16.356  0.00  0.00    +0.000 HD
ENDBRANCH   7  19
BRANCH   1  22
ATOM     22  C   UNL     1       3.439   5.031  20.034  0.00  0.00    +0.000 C 
BRANCH  22  25
ATOM     23  C   UNL     1       0.569   2.027  18.764  0.00  0.00    +0.000 C 
ATOM     24  C   UNL     1       1.573   3.078  19.209  0.00  0.00    +0.000 C 
ATOM     25  C   UNL     1       2.434   3.980  19.589  0.00  0.00    +0.000 C 
ENDBRANCH  22  25
ENDBRANCH   1  22
BRANCH  14  26
ATOM     26  C   UNL     1      -0.554   9.200  21.522  0.00  0.00    +0.000 C 
BRANCH  26  27
ATOM     27  C   UNL     1      -0.329  10.135  22.775  0.00  0.00    +0.000 C 
ATOM     28  O   UNL     1       0.275   9.813  23.799  0.00  0.00    +0.000 OA
BRANCH  27  29
ATOM     29  C   UNL     1      -0.984  11.491  22.847  0.00  0.00    +0.000 A 
ATOM     30  C   UNL     1      -2.288  11.545  23.372  0.00  0.00    +0.000 A 
ATOM     31  C   UNL     1      -3.081  12.681  23.213  0.00  0.00    +0.000 A 
ATOM     32  C   UNL     1      -2.550  13.784  22.560  0.00  0.00    +0.000 A 
ATOM     33  C   UNL     1      -1.235  13.759  22.077  0.00  0.00    +0.000 A 
ATOM     34  C   UNL     1      -0.440  12.618  22.224  0.00  0.00    +0.000 A 
ENDBRANCH  27  29
ENDBRANCH  26  27
ENDBRANCH  14  26
TORSDOF 6
ENDMDL
MODEL 9
REMARK VINA RESULT:      -7.1      2.599      4.521
REMARK  Name = 
REMARK  8 active torsions:
REMARK  status: ('A' for Active; 'I' for Inactive)
REMARK    1  A    between atoms: C_1  and  C_2
REMARK    2  A    between atoms: C_3  and  C_4
REMARK    3  A    between atoms: C_4  and  N_5
REMARK    4  A    between atoms: C_11  and  N_12
REMARK    5  A    between atoms: N_19  and  C_20
REMARK    6  A    between atoms: C_20  and  C_21
REMARK    7  A    between atoms: C_21  and  C_23
REMARK    8  A    between atoms: N_31  and  C_32
REMARK                            x       y       z     vdW  Elec       q    Type
REMARK                         _______ _______ _______ _____ _____    ______ ____
ROOT
ATOM      1  N   UNL     1       2.149   6.944  19.876  0.00  0.00    +0.000 N 
ATOM      2  C   UNL     1       3.053   7.097  18.778  0.00  0.00    +0.000 A 
ATOM      3  N   UNL     1       4.024   6.205  18.402  0.00  0.00    +0.000 N 
ATOM      4  C   UNL     1       5.266   6.749  17.780  0.00  0.00    +0.000 C 
ATOM      5  C   UNL     1       6.393   5.773  18.156  0.00  0.00    +0.000 C 
ATOM      6  C   UNL     1       6.086   4.345  17.674  0.00  0.00    +0.000 C 
ATOM      7  C   UNL     1       4.648   3.909  18.034  0.00  0.00    +0.000 C 
ATOM      8  C   UNL     1       3.632   5.005  17.631  0.00  0.00    +0.000 C 
ATOM      9  N   UNL     1       2.921   8.269  18.203  0.00  0.00    +0.000 NA
ATOM     10  C   UNL     1       1.935   8.901  18.881  0.00  0.00    +0.000 A 
ATOM     11  C   UNL     1       1.407   8.168  19.893  0.00  0.00    +0.000 A 
ATOM     12  C   UNL     1       0.339   8.722  20.730  0.00  0.00    +0.000 A 
ATOM     13  O   UNL     1      -0.210   8.112  21.614  0.00  0.00    +0.000 OA
ATOM     14  N   UNL     1      -0.028  10.081  20.395  0.00  0.00    +0.000 N 
ATOM     15  C   UNL     1       0.491  10.773  19.291  0.00  0.00    +0.000 A 
ATOM     16  O   UNL     1       0.057  11.868  18.948  0.00  0.00    +0.000 OA
ATOM     17  N   UNL     1       1.513  10.188  18.566  0.00  0.00    +0.000 N 
ATOM     18  C   UNL     1       2.105  10.962  17.486  0.00  0.00    +0.000 C 
ENDROOT
BRANCH   7  19
ATOM     19  N   UNL     1       4.364   2.590  17.465  0.00  0.00    +0.000 NA
ATOM     20  H   UNL     1       4.994   1.888  17.851  0.00  0.00    +0.000 HD
ATOM     21  H   UNL     1       4.527   2.612  16.459  0.00  0.00    +0.000 HD
ENDBRANCH   7  19
BRANCH   1  22
ATOM     22  C   UNL     1       2.078   5.762  20.868  0.00  0.00    +0.000 C 
BRANCH  22  25
ATOM     23  C   UNL     1       0.574   2.278  18.753  0.00  0.00    +0.000 C 
ATOM     24  C   UNL     1       1.101   3.498  19.493  0.00  0.00    +0.000 C 
ATOM     25  C   UNL     1       1.552   4.543  20.128  0.00  0.00    +0.000 C 
ENDBRANCH  22  25
ENDBRANCH   1  22
BRANCH  14  26
ATOM     26  C   UNL     1      -1.137  10.773  21.150  0.00  0.00    +0.000 C 
BRANCH  26  27
ATOM     27  C   UNL     1      -0.968  11.297  22.631  0.00  0.00    +0.000 C 
ATOM     28  O   UNL     1      -0.240  10.788  23.484  0.00  0.00    +0.000 OA
BRANCH  27  29
ATOM     29  C   UNL     1      -1.829  12.422  23.149  0.00  0.00    +0.000 A 
ATOM     30  C   UNL     1      -1.192  13.651  23.405  0.00  0.00    +0.000 A 
ATOM     31  C   UNL     1      -1.824  14.647  24.149  0.00  0.00    +0.000 A 
ATOM     32  C   UNL     1      -3.116  14.427  24.604  0.00  0.00    +0.000 A 
ATOM     33  C   UNL     1      -3.778  13.228  24.310  0.00  0.00    +0.000 A 
ATOM     34  C   UNL     1      -3.145  12.221  23.574  0.00  0.00    +0.000 A 
ENDBRANCH  27  29
ENDBRANCH  26  27
ENDBRANCH  14  26
TORSDOF 6
ENDMDL
