MODEL 1
REMARK VINA RESULT:      -6.8      0.000      0.000
REMARK  Name = 
REMARK  4 active torsions:
REMARK  status: ('A' for Active; 'I' for Inactive)
REMARK    1  A    between atoms: C_1  and  C_2
REMARK    2  A    between atoms: C_2  and  O_3
REMARK    3  A    between atoms: O_3  and  C_4
REMARK    4  A    between atoms: C_4  and  C_6
REMARK                            x       y       z     vdW  Elec       q    Type
REMARK                         _______ _______ _______ _____ _____    ______ ____
ROOT
ATOM      1  C   UNL     1       5.445   4.533  17.133  0.00  0.00    +0.000 C 
ATOM      2  C   UNL     1       4.134   4.120  16.489  0.00  0.00    +0.000 C 
ATOM      3  C   UNL     1       4.156   4.608  17.910  0.00  0.00    +0.000 C 
ATOM      4  C   UNL     1       3.994   3.659  19.074  0.00  0.00    +0.000 C 
ATOM      5  O   UNL     1       4.427   2.520  19.114  0.00  0.00    +0.000 OA
ATOM      6  N   UNL     1       3.296   4.331  20.058  0.00  0.00    +0.000 N 
ATOM      7  C   UNL     1       2.938   5.614  19.648  0.00  0.00    +0.000 A 
ATOM      8  C   UNL     1       2.210   6.535  20.374  0.00  0.00    +0.000 A 
ATOM      9  C   UNL     1       1.929   7.751  19.754  0.00  0.00    +0.000 A 
ATOM     10  C   UNL     1       2.353   7.991  18.435  0.00  0.00    +0.000 A 
ATOM     11 CL   UNL     1       1.979   9.502  17.697  0.00  0.00    +0.000 Cl
ATOM     12  C   UNL     1       3.080   7.034  17.714  0.00  0.00    +0.000 A 
ATOM     13  C   UNL     1       3.410   5.840  18.339  0.00  0.00    +0.000 A 
ATOM     14  H   UNL     1       3.066   3.908  20.943  0.00  0.00    +0.000 HD
ENDROOT
BRANCH   1  15
ATOM     15  C   UNL     1       6.206   5.669  16.571  0.00  0.00    +0.000 C 
ATOM     16  O   UNL     1       5.776   6.350  15.647  0.00  0.00    +0.000 OA
BRANCH  15  17
ATOM     17  O   UNL     1       7.468   5.717  17.075  0.00  0.00    +0.000 OA
BRANCH  17  19
ATOM     18  C   UNL     1       7.905   5.785  19.424  0.00  0.00    +0.000 C 
ATOM     19  C   UNL     1       7.631   6.621  18.184  0.00  0.00    +0.000 C 
ENDBRANCH  17  19
ENDBRANCH  15  17
ENDBRANCH   1  15
TORSDOF 3
ENDMDL
MODEL 2
REMARK VINA RESULT:      -6.8      1.464      1.722
REMARK  Name = 
REMARK  4 active torsions:
REMARK  status: ('A' for Active; 'I' for Inactive)
REMARK    1  A    between atoms: C_1  and  C_2
REMARK    2  A    between atoms: C_2  and  O_3
REMARK    3  A    between atoms: O_3  and  C_4
REMARK    4  A    between atoms: C_4  and  C_6
REMARK                            x       y       z     vdW  Elec       q    Type
REMARK                         _______ _______ _______ _____ _____    ______ ____
ROOT
ATOM      1  C   UNL     1       3.880   3.346  18.063  0.00  0.00    +0.000 C 
ATOM      2  C   UNL     1       2.490   3.322  17.452  0.00  0.00    +0.000 C 
ATOM      3  C   UNL     1       2.720   3.985  18.780  0.00  0.00    +0.000 C 
ATOM      4  C   UNL     1       2.267   3.345  20.072  0.00  0.00    +0.000 C 
ATOM      5  O   UNL     1       2.275   2.147  20.300  0.00  0.00    +0.000 OA
ATOM      6  N   UNL     1       1.875   4.362  20.920  0.00  0.00    +0.000 N 
ATOM      7  C   UNL     1       1.977   5.610  20.306  0.00  0.00    +0.000 A 
ATOM      8  C   UNL     1       1.637   6.827  20.860  0.00  0.00    +0.000 A 
ATOM      9  C   UNL     1       1.782   7.954  20.052  0.00  0.00    +0.000 A 
ATOM     10  C   UNL     1       2.228   7.823  18.725  0.00  0.00    +0.000 A 
ATOM     11 CL   UNL     1       2.386   9.236  17.752  0.00  0.00    +0.000 Cl
ATOM     12  C   UNL     1       2.555   6.573  18.182  0.00  0.00    +0.000 A 
ATOM     13  C   UNL     1       2.463   5.451  18.993  0.00  0.00    +0.000 A 
ATOM     14  H   UNL     1       1.535   4.188  21.853  0.00  0.00    +0.000 HD
ENDROOT
BRANCH   1  15
ATOM     15  C   UNL     1       4.974   4.043  17.355  0.00  0.00    +0.000 C 
ATOM     16  O   UNL     1       5.040   4.082  16.132  0.00  0.00    +0.000 OA
BRANCH  15  17
ATOM     17  O   UNL     1       5.947   4.441  18.218  0.00  0.00    +0.000 OA
BRANCH  17  19
ATOM     18  C   UNL     1       7.318   6.322  17.675  0.00  0.00    +0.000 C 
ATOM     19  C   UNL     1       7.187   4.810  17.586  0.00  0.00    +0.000 C 
ENDBRANCH  17  19
ENDBRANCH  15  17
ENDBRANCH   1  15
TORSDOF 3
ENDMDL
MODEL 3
REMARK VINA RESULT:      -6.7      2.232      4.203
REMARK  Name = 
REMARK  4 active torsions:
REMARK  status: ('A' for Active; 'I' for Inactive)
REMARK    1  A    between atoms: C_1  and  C_2
REMARK    2  A    between atoms: C_2  and  O_3
REMARK    3  A    between atoms: O_3  and  C_4
REMARK    4  A    between atoms: C_4  and  C_6
REMARK                            x       y       z     vdW  Elec       q    Type
REMARK                         _______ _______ _______ _____ _____    ______ ____
ROOT
ATOM      1  C   UNL     1       3.446   2.869  17.972  0.00  0.00    +0.000 C 
ATOM      2  C   UNL     1       4.539   3.232  18.961  0.00  0.00    +0.000 C 
ATOM      3  C   UNL     1       4.060   4.245  17.960  0.00  0.00    +0.000 C 
ATOM      4  C   UNL     1       4.891   4.621  16.756  0.00  0.00    +0.000 C 
ATOM      5  O   UNL     1       5.601   3.854  16.128  0.00  0.00    +0.000 OA
ATOM      6  N   UNL     1       4.672   5.962  16.508  0.00  0.00    +0.000 N 
ATOM      7  C   UNL     1       3.817   6.526  17.453  0.00  0.00    +0.000 A 
ATOM      8  C   UNL     1       3.418   7.846  17.516  0.00  0.00    +0.000 A 
ATOM      9  C   UNL     1       2.585   8.206  18.573  0.00  0.00    +0.000 A 
ATOM     10  C   UNL     1       2.207   7.254  19.536  0.00  0.00    +0.000 A 
ATOM     11 CL   UNL     1       1.184   7.738  20.835  0.00  0.00    +0.000 Cl
ATOM     12  C   UNL     1       2.636   5.922  19.457  0.00  0.00    +0.000 A 
ATOM     13  C   UNL     1       3.424   5.541  18.381  0.00  0.00    +0.000 A 
ATOM     14  H   UNL     1       5.115   6.450  15.745  0.00  0.00    +0.000 HD
ENDROOT
BRANCH   1  15
ATOM     15  C   UNL     1       2.103   2.504  18.472  0.00  0.00    +0.000 C 
ATOM     16  O   UNL     1       1.076   2.859  17.907  0.00  0.00    +0.000 OA
BRANCH  15  17
ATOM     17  O   UNL     1       2.176   1.915  19.696  0.00  0.00    +0.000 OA
BRANCH  17  19
ATOM     18  C   UNL     1       2.208   3.115  21.764  0.00  0.00    +0.000 C 
ATOM     19  C   UNL     1       1.319   2.506  20.691  0.00  0.00    +0.000 C 
ENDBRANCH  17  19
ENDBRANCH  15  17
ENDBRANCH   1  15
TORSDOF 3
ENDMDL
MODEL 4
REMARK VINA RESULT:      -6.6      2.064      4.177
REMARK  Name = 
REMARK  4 active torsions:
REMARK  status: ('A' for Active; 'I' for Inactive)
REMARK    1  A    between atoms: C_1  and  C_2
REMARK    2  A    between atoms: C_2  and  O_3
REMARK    3  A    between atoms: O_3  and  C_4
REMARK    4  A    between atoms: C_4  and  C_6
REMARK                            x       y       z     vdW  Elec       q    Type
REMARK                         _______ _______ _______ _____ _____    ______ ____
ROOT
ATOM      1  C   UNL     1       4.495   3.590  17.738  0.00  0.00    +0.000 C 
ATOM      2  C   UNL     1       5.532   4.247  18.630  0.00  0.00    +0.000 C 
ATOM      3  C   UNL     1       4.639   5.089  17.764  0.00  0.00    +0.000 C 
ATOM      4  C   UNL     1       5.153   5.756  16.510  0.00  0.00    +0.000 C 
ATOM      5  O   UNL     1       5.985   5.281  15.755  0.00  0.00    +0.000 OA
ATOM      6  N   UNL     1       4.495   6.964  16.387  0.00  0.00    +0.000 N 
ATOM      7  C   UNL     1       3.630   7.188  17.457  0.00  0.00    +0.000 A 
ATOM      8  C   UNL     1       2.848   8.307  17.659  0.00  0.00    +0.000 A 
ATOM      9  C   UNL     1       2.081   8.342  18.822  0.00  0.00    +0.000 A 
ATOM     10  C   UNL     1       2.144   7.284  19.747  0.00  0.00    +0.000 A 
ATOM     11 CL   UNL     1       1.190   7.366  21.178  0.00  0.00    +0.000 Cl
ATOM     12  C   UNL     1       2.957   6.164  19.524  0.00  0.00    +0.000 A 
ATOM     13  C   UNL     1       3.685   6.096  18.345  0.00  0.00    +0.000 A 
ATOM     14  H   UNL     1       4.664   7.596  15.620  0.00  0.00    +0.000 HD
ENDROOT
BRANCH   1  15
ATOM     15  C   UNL     1       3.408   2.795  18.349  0.00  0.00    +0.000 C 
ATOM     16  O   UNL     1       3.626   1.766  18.979  0.00  0.00    +0.000 OA
BRANCH  15  17
ATOM     17  O   UNL     1       2.186   3.246  17.960  0.00  0.00    +0.000 OA
BRANCH  17  19
ATOM     18  C   UNL     1       0.829   3.416  19.920  0.00  0.00    +0.000 C 
ATOM     19  C   UNL     1       1.080   2.629  18.644  0.00  0.00    +0.000 C 
ENDBRANCH  17  19
ENDBRANCH  15  17
ENDBRANCH   1  15
TORSDOF 3
ENDMDL
MODEL 5
REMARK VINA RESULT:      -6.6      1.695      2.300
REMARK  Name = 
REMARK  4 active torsions:
REMARK  status: ('A' for Active; 'I' for Inactive)
REMARK    1  A    between atoms: C_1  and  C_2
REMARK    2  A    between atoms: C_2  and  O_3
REMARK    3  A    between atoms: O_3  and  C_4
REMARK    4  A    between atoms: C_4  and  C_6
REMARK                            x       y       z     vdW  Elec       q    Type
REMARK                         _______ _______ _______ _____ _____    ______ ____
ROOT
ATOM      1  C   UNL     1       4.085   3.657  17.732  0.00  0.00    +0.000 C 
ATOM      2  C   UNL     1       2.669   3.558  17.190  0.00  0.00    +0.000 C 
ATOM      3  C   UNL     1       2.921   4.166  18.541  0.00  0.00    +0.000 C 
ATOM      4  C   UNL     1       2.588   3.426  19.815  0.00  0.00    +0.000 C 
ATOM      5  O   UNL     1       2.699   2.222  19.975  0.00  0.00    +0.000 OA
ATOM      6  N   UNL     1       2.168   4.364  20.738  0.00  0.00    +0.000 N 
ATOM      7  C   UNL     1       2.142   5.646  20.192  0.00  0.00    +0.000 A 
ATOM      8  C   UNL     1       1.743   6.802  20.830  0.00  0.00    +0.000 A 
ATOM      9  C   UNL     1       1.759   7.978  20.080  0.00  0.00    +0.000 A 
ATOM     10  C   UNL     1       2.141   7.952  18.728  0.00  0.00    +0.000 A 
ATOM     11 CL   UNL     1       2.140   9.422  17.830  0.00  0.00    +0.000 Cl
ATOM     12  C   UNL     1       2.530   6.761  18.099  0.00  0.00    +0.000 A 
ATOM     13  C   UNL     1       2.567   5.595  18.849  0.00  0.00    +0.000 A 
ATOM     14  H   UNL     1       1.893   4.115  21.676  0.00  0.00    +0.000 HD
ENDROOT
BRANCH   1  15
ATOM     15  C   UNL     1       5.084   4.474  17.010  0.00  0.00    +0.000 C 
ATOM     16  O   UNL     1       5.712   5.372  17.557  0.00  0.00    +0.000 OA
BRANCH  15  17
ATOM     17  O   UNL     1       5.057   4.221  15.674  0.00  0.00    +0.000 OA
BRANCH  17  19
ATOM     18  C   UNL     1       6.162   3.790  13.598  0.00  0.00    +0.000 C 
ATOM     19  C   UNL     1       6.350   4.228  15.042  0.00  0.00    +0.000 C 
ENDBRANCH  17  19
ENDBRANCH  15  17
ENDBRANCH   1  15
TORSDOF 3
ENDMDL
MODEL 6
REMARK VINA RESULT:      -6.6      1.654      2.103
REMARK  Name = 
REMARK  4 active torsions:
REMARK  status: ('A' for Active; 'I' for Inactive)
REMARK    1  A    between atoms: C_1  and  C_2
REMARK    2  A    between atoms: C_2  and  O_3
REMARK    3  A    between atoms: O_3  and  C_4
REMARK    4  A    between atoms: C_4  and  C_6
REMARK                            x       y       z     vdW  Elec       q    Type
REMARK                         _______ _______ _______ _____ _____    ______ ____
ROOT
ATOM      1  C   UNL     1       5.476   3.824  17.901  0.00  0.00    +0.000 C 
ATOM      2  C   UNL     1       4.479   4.101  16.790  0.00  0.00    +0.000 C 
ATOM      3  C   UNL     1       3.997   3.685  18.151  0.00  0.00    +0.000 C 
ATOM      4  C   UNL     1       3.468   2.294  18.411  0.00  0.00    +0.000 C 
ATOM      5  O   UNL     1       3.889   1.275  17.889  0.00  0.00    +0.000 OA
ATOM      6  N   UNL     1       2.456   2.406  19.345  0.00  0.00    +0.000 N 
ATOM      7  C   UNL     1       2.229   3.736  19.697  0.00  0.00    +0.000 A 
ATOM      8  C   UNL     1       1.273   4.199  20.578  0.00  0.00    +0.000 A 
ATOM      9  C   UNL     1       1.192   5.580  20.755  0.00  0.00    +0.000 A 
ATOM     10  C   UNL     1       2.038   6.440  20.035  0.00  0.00    +0.000 A 
ATOM     11 CL   UNL     1       1.904   8.140  20.273  0.00  0.00    +0.000 Cl
ATOM     12  C   UNL     1       2.993   5.944  19.136  0.00  0.00    +0.000 A 
ATOM     13  C   UNL     1       3.117   4.570  18.989  0.00  0.00    +0.000 A 
ATOM     14  H   UNL     1       1.946   1.608  19.688  0.00  0.00    +0.000 HD
ENDROOT
BRANCH   1  15
ATOM     15  C   UNL     1       6.355   4.913  18.378  0.00  0.00    +0.000 C 
ATOM     16  O   UNL     1       6.445   5.207  19.564  0.00  0.00    +0.000 OA
BRANCH  15  17
ATOM     17  O   UNL     1       6.867   5.626  17.340  0.00  0.00    +0.000 OA
BRANCH  17  19
ATOM     18  C   UNL     1       7.745   7.829  17.636  0.00  0.00    +0.000 C 
ATOM     19  C   UNL     1       6.496   7.017  17.335  0.00  0.00    +0.000 C 
ENDBRANCH  17  19
ENDBRANCH  15  17
ENDBRANCH   1  15
TORSDOF 3
ENDMDL
MODEL 7
REMARK VINA RESULT:      -6.6      2.884      4.851
REMARK  Name = 
REMARK  4 active torsions:
REMARK  status: ('A' for Active; 'I' for Inactive)
REMARK    1  A    between atoms: C_1  and  C_2
REMARK    2  A    between atoms: C_2  and  O_3
REMARK    3  A    between atoms: O_3  and  C_4
REMARK    4  A    between atoms: C_4  and  C_6
REMARK                            x       y       z     vdW  Elec       q    Type
REMARK                         _______ _______ _______ _____ _____    ______ ____
ROOT
ATOM      1  C   UNL     1       1.925   5.763  19.438  0.00  0.00    +0.000 C 
ATOM      2  C   UNL     1       2.450   4.652  20.330  0.00  0.00    +0.000 C 
ATOM      3  C   UNL     1       2.838   4.704  18.879  0.00  0.00    +0.000 C 
ATOM      4  C   UNL     1       2.251   3.747  17.869  0.00  0.00    +0.000 C 
ATOM      5  O   UNL     1       1.105   3.328  17.885  0.00  0.00    +0.000 OA
ATOM      6  N   UNL     1       3.237   3.468  16.944  0.00  0.00    +0.000 N 
ATOM      7  C   UNL     1       4.435   4.106  17.263  0.00  0.00    +0.000 A 
ATOM      8  C   UNL     1       5.623   4.016  16.567  0.00  0.00    +0.000 A 
ATOM      9  C   UNL     1       6.715   4.709  17.087  0.00  0.00    +0.000 A 
ATOM     10  C   UNL     1       6.591   5.436  18.284  0.00  0.00    +0.000 A 
ATOM     11 CL   UNL     1       7.964   6.273  18.901  0.00  0.00    +0.000 Cl
ATOM     12  C   UNL     1       5.375   5.502  18.978  0.00  0.00    +0.000 A 
ATOM     13  C   UNL     1       4.269   4.857  18.444  0.00  0.00    +0.000 A 
ATOM     14  H   UNL     1       3.085   2.852  16.160  0.00  0.00    +0.000 HD
ENDROOT
BRANCH   1  15
ATOM     15  C   UNL     1       2.279   7.167  19.740  0.00  0.00    +0.000 C 
ATOM     16  O   UNL     1       1.928   7.721  20.774  0.00  0.00    +0.000 OA
BRANCH  15  17
ATOM     17  O   UNL     1       2.852   7.774  18.666  0.00  0.00    +0.000 OA
BRANCH  17  19
ATOM     18  C   UNL     1       1.750   9.798  18.029  0.00  0.00    +0.000 C 
ATOM     19  C   UNL     1       1.912   8.318  17.720  0.00  0.00    +0.000 C 
ENDBRANCH  17  19
ENDBRANCH  15  17
ENDBRANCH   1  15
TORSDOF 3
ENDMDL
MODEL 8
REMARK VINA RESULT:      -6.6      2.638      4.411
REMARK  Name = 
REMARK  4 active torsions:
REMARK  status: ('A' for Active; 'I' for Inactive)
REMARK    1  A    between atoms: C_1  and  C_2
REMARK    2  A    between atoms: C_2  and  O_3
REMARK    3  A    between atoms: O_3  and  C_4
REMARK    4  A    between atoms: C_4  and  C_6
REMARK                            x       y       z     vdW  Elec       q    Type
REMARK                         _______ _______ _______ _____ _____    ______ ____
ROOT
ATOM      1  C   UNL     1       4.437   7.030  17.598  0.00  0.00    +0.000 C 
ATOM      2  C   UNL     1       4.610   6.134  16.384  0.00  0.00    +0.000 C 
ATOM      3  C   UNL     1       4.816   5.582  17.767  0.00  0.00    +0.000 C 
ATOM      4  C   UNL     1       6.197   5.287  18.302  0.00  0.00    +0.000 C 
ATOM      5  O   UNL     1       7.197   5.942  18.061  0.00  0.00    +0.000 OA
ATOM      6  N   UNL     1       6.096   4.171  19.110  0.00  0.00    +0.000 N 
ATOM      7  C   UNL     1       4.796   3.667  19.128  0.00  0.00    +0.000 A 
ATOM      8  C   UNL     1       4.359   2.548  19.806  0.00  0.00    +0.000 A 
ATOM      9  C   UNL     1       3.018   2.198  19.654  0.00  0.00    +0.000 A 
ATOM     10  C   UNL     1       2.178   2.953  18.816  0.00  0.00    +0.000 A 
ATOM     11 CL   UNL     1       0.529   2.486  18.645  0.00  0.00    +0.000 Cl
ATOM     12  C   UNL     1       2.650   4.079  18.128  0.00  0.00    +0.000 A 
ATOM     13  C   UNL     1       3.969   4.466  18.312  0.00  0.00    +0.000 A 
ATOM     14  H   UNL     1       6.889   3.777  19.591  0.00  0.00    +0.000 HD
ENDROOT
BRANCH   1  15
ATOM     15  C   UNL     1       3.117   7.636  17.872  0.00  0.00    +0.000 C 
ATOM     16  O   UNL     1       2.609   8.463  17.123  0.00  0.00    +0.000 OA
BRANCH  15  17
ATOM     17  O   UNL     1       2.668   7.303  19.111  0.00  0.00    +0.000 OA
BRANCH  17  19
ATOM     18  C   UNL     1       1.349   7.736  21.058  0.00  0.00    +0.000 C 
ATOM     19  C   UNL     1       1.778   8.270  19.701  0.00  0.00    +0.000 C 
ENDBRANCH  17  19
ENDBRANCH  15  17
ENDBRANCH   1  15
TORSDOF 3
ENDMDL
MODEL 9
REMARK VINA RESULT:      -6.6      3.010      4.439
REMARK  Name = 
REMARK  4 active torsions:
REMARK  status: ('A' for Active; 'I' for Inactive)
REMARK    1  A    between atoms: C_1  and  C_2
REMARK    2  A    between atoms: C_2  and  O_3
REMARK    3  A    between atoms: O_3  and  C_4
REMARK    4  A    between atoms: C_4  and  C_6
REMARK                            x       y       z     vdW  Elec       q    Type
REMARK                         _______ _______ _______ _____ _____    ______ ____
ROOT
ATOM      1  C   UNL     1       6.738   5.033  15.554  0.00  0.00    +0.000 C 
ATOM      2  C   UNL     1       7.219   4.639  16.939  0.00  0.00    +0.000 C 
ATOM      3  C   UNL     1       5.993   5.493  16.780  0.00  0.00    +0.000 C 
ATOM      4  C   UNL     1       6.015   6.972  17.088  0.00  0.00    +0.000 C 
ATOM      5  O   UNL     1       6.960   7.716  16.883  0.00  0.00    +0.000 OA
ATOM      6  N   UNL     1       4.781   7.302  17.612  0.00  0.00    +0.000 N 
ATOM      7  C   UNL     1       3.957   6.183  17.727  0.00  0.00    +0.000 A 
ATOM      8  C   UNL     1       2.676   6.156  18.239  0.00  0.00    +0.000 A 
ATOM      9  C   UNL     1       2.043   4.916  18.298  0.00  0.00    +0.000 A 
ATOM     10  C   UNL     1       2.714   3.755  17.875  0.00  0.00    +0.000 A 
ATOM     11 CL   UNL     1       1.904   2.238  17.971  0.00  0.00    +0.000 Cl
ATOM     12  C   UNL     1       4.020   3.807  17.370  0.00  0.00    +0.000 A 
ATOM     13  C   UNL     1       4.641   5.043  17.260  0.00  0.00    +0.000 A 
ATOM     14  H   UNL     1       4.546   8.241  17.893  0.00  0.00    +0.000 HD
ENDROOT
BRANCH   1  15
ATOM     15  C   UNL     1       6.314   3.982  14.605  0.00  0.00    +0.000 C 
ATOM     16  O   UNL     1       5.945   2.875  14.978  0.00  0.00    +0.000 OA
BRANCH  15  17
ATOM     17  O   UNL     1       6.571   4.344  13.319  0.00  0.00    +0.000 OA
BRANCH  17  19
ATOM     18  C   UNL     1       4.874   3.475  11.877  0.00  0.00    +0.000 C 
ATOM     19  C   UNL     1       6.310   3.314  12.348  0.00  0.00    +0.000 C 
ENDBRANCH  17  19
ENDBRANCH  15  17
ENDBRANCH   1  15
TORSDOF 3
ENDMDL
