MODEL 1
REMARK VINA RESULT:      -7.9      0.000      0.000
REMARK  Name = 
REMARK  9 active torsions:
REMARK  status: ('A' for Active; 'I' for Inactive)
REMARK    1  A    between atoms: C_1  and  C_2
REMARK    2  A    between atoms: N_4  and  C_5
REMARK    3  A    between atoms: C_8  and  N_9
REMARK    4  A    between atoms: C_10  and  C_12
REMARK    5  A    between atoms: C_12  and  C_13
REMARK    6  A    between atoms: C_12  and  O_14
REMARK    7  A    between atoms: O_14  and  N_15
REMARK    8  A    between atoms: C_16  and  C_17
REMARK    9  A    between atoms: C_21  and  N_22
REMARK                            x       y       z     vdW  Elec       q    Type
REMARK                         _______ _______ _______ _____ _____    ______ ____
ROOT
ATOM      1  N   UNL     1       4.597   2.701  17.943  0.00  0.00    +0.000 N 
ATOM      2  C   UNL     1       3.304   2.381  18.300  0.00  0.00    +0.000 C 
ATOM      3  O   UNL     1       3.016   1.189  18.443  0.00  0.00    +0.000 OA
ATOM      4  H   UNL     1       5.245   1.942  18.123  0.00  0.00    +0.000 HD
ENDROOT
BRANCH   1   8
ATOM      5  C   UNL     1       6.214   6.539  17.381  0.00  0.00    +0.000 A 
ATOM      6  C   UNL     1       5.461   5.922  16.377  0.00  0.00    +0.000 A 
ATOM      7  C   UNL     1       4.885   4.664  16.578  0.00  0.00    +0.000 A 
ATOM      8  C   UNL     1       5.103   3.995  17.777  0.00  0.00    +0.000 A 
ATOM      9  C   UNL     1       5.833   4.609  18.795  0.00  0.00    +0.000 A 
ATOM     10  C   UNL     1       6.403   5.871  18.591  0.00  0.00    +0.000 A 
BRANCH   5  14
ATOM     11  C   UNL     1       8.294   9.687  17.566  0.00  0.00    +0.000 C 
ATOM     12  C   UNL     1       7.914   8.272  17.921  0.00  0.00    +0.000 C 
ATOM     13  O   UNL     1       8.565   7.646  18.749  0.00  0.00    +0.000 OA
ATOM     14  N   UNL     1       6.813   7.811  17.221  0.00  0.00    +0.000 N 
ATOM     15  H   UNL     1       6.461   8.389  16.468  0.00  0.00    +0.000 HD
ENDBRANCH   5  14
ENDBRANCH   1   8
BRANCH   2  16
ATOM     16  C   UNL     1       2.301   3.504  18.603  0.00  0.00    +0.000 C 
ATOM     17  C   UNL     1       0.891   2.945  18.686  0.00  0.00    +0.000 C 
BRANCH  16  18
ATOM     18  O   UNL     1       2.681   4.075  19.860  0.00  0.00    +0.000 OA
BRANCH  18  19
ATOM     19  N   UNL     1       2.019   5.304  20.023  0.00  0.00    +0.000 NA
ATOM     20  C   UNL     1       2.534   6.169  19.211  0.00  0.00    +0.000 C 
BRANCH  20  21
ATOM     21  C   UNL     1       2.062   7.566  19.179  0.00  0.00    +0.000 A 
ATOM     22  C   UNL     1       2.160   8.291  17.987  0.00  0.00    +0.000 A 
ATOM     23  C   UNL     1       1.745   9.625  17.948  0.00  0.00    +0.000 A 
ATOM     24  C   UNL     1       1.237  10.235  19.098  0.00  0.00    +0.000 A 
ATOM     25  C   UNL     1       1.142   9.499  20.288  0.00  0.00    +0.000 A 
ATOM     26  C   UNL     1       1.549   8.162  20.335  0.00  0.00    +0.000 A 
BRANCH  25  27
ATOM     27  N   UNL     1       0.622  10.136  21.504  0.00  0.00    +0.000 N 
ATOM     28  O   UNL     1       1.115   9.786  22.591  0.00  0.00    +0.000 OA
ATOM     29  O   UNL     1      -0.274  10.981  21.380  0.00  0.00    +0.000 OA
ENDBRANCH  25  27
ENDBRANCH  20  21
ENDBRANCH  18  19
ENDBRANCH  16  18
ENDBRANCH   2  16
TORSDOF 7
ENDMDL
MODEL 2
REMARK VINA RESULT:      -7.9      2.444      5.820
REMARK  Name = 
REMARK  9 active torsions:
REMARK  status: ('A' for Active; 'I' for Inactive)
REMARK    1  A    between atoms: C_1  and  C_2
REMARK    2  A    between atoms: N_4  and  C_5
REMARK    3  A    between atoms: C_8  and  N_9
REMARK    4  A    between atoms: C_10  and  C_12
REMARK    5  A    between atoms: C_12  and  C_13
REMARK    6  A    between atoms: C_12  and  O_14
REMARK    7  A    between atoms: O_14  and  N_15
REMARK    8  A    between atoms: C_16  and  C_17
REMARK    9  A    between atoms: C_21  and  N_22
REMARK                            x       y       z     vdW  Elec       q    Type
REMARK                         _______ _______ _______ _____ _____    ______ ____
ROOT
ATOM      1  N   UNL     1       6.766   6.275  16.045  0.00  0.00    +0.000 N 
ATOM      2  C   UNL     1       6.814   5.415  14.969  0.00  0.00    +0.000 C 
ATOM      3  O   UNL     1       7.809   5.451  14.237  0.00  0.00    +0.000 OA
ATOM      4  H   UNL     1       7.680   6.637  16.290  0.00  0.00    +0.000 HD
ENDROOT
BRANCH   1   8
ATOM      5  C   UNL     1       3.710   6.593  18.914  0.00  0.00    +0.000 A 
ATOM      6  C   UNL     1       3.524   7.062  17.610  0.00  0.00    +0.000 A 
ATOM      7  C   UNL     1       4.523   6.917  16.642  0.00  0.00    +0.000 A 
ATOM      8  C   UNL     1       5.738   6.341  16.993  0.00  0.00    +0.000 A 
ATOM      9  C   UNL     1       5.928   5.849  18.284  0.00  0.00    +0.000 A 
ATOM     10  C   UNL     1       4.924   5.991  19.248  0.00  0.00    +0.000 A 
BRANCH   5  14
ATOM     11  C   UNL     1       0.947   7.650  21.263  0.00  0.00    +0.000 C 
ATOM     12  C   UNL     1       1.848   7.777  20.060  0.00  0.00    +0.000 C 
ATOM     13  O   UNL     1       1.750   8.743  19.313  0.00  0.00    +0.000 OA
ATOM     14  N   UNL     1       2.728   6.717  19.923  0.00  0.00    +0.000 N 
ATOM     15  H   UNL     1       2.600   5.921  20.536  0.00  0.00    +0.000 HD
ENDBRANCH   5  14
ENDBRANCH   1   8
BRANCH   2  16
ATOM     16  C   UNL     1       5.693   4.384  14.770  0.00  0.00    +0.000 C 
ATOM     17  C   UNL     1       5.502   4.089  13.292  0.00  0.00    +0.000 C 
BRANCH  16  18
ATOM     18  O   UNL     1       6.093   3.195  15.462  0.00  0.00    +0.000 OA
BRANCH  18  19
ATOM     19  N   UNL     1       5.438   3.147  16.704  0.00  0.00    +0.000 NA
ATOM     20  C   UNL     1       4.162   3.233  16.509  0.00  0.00    +0.000 C 
BRANCH  20  21
ATOM     21  C   UNL     1       3.213   3.242  17.638  0.00  0.00    +0.000 A 
ATOM     22  C   UNL     1       1.903   3.686  17.425  0.00  0.00    +0.000 A 
ATOM     23  C   UNL     1       1.001   3.730  18.491  0.00  0.00    +0.000 A 
ATOM     24  C   UNL     1       1.405   3.334  19.768  0.00  0.00    +0.000 A 
ATOM     25  C   UNL     1       2.719   2.889  19.972  0.00  0.00    +0.000 A 
ATOM     26  C   UNL     1       3.628   2.836  18.909  0.00  0.00    +0.000 A 
BRANCH  25  27
ATOM     27  N   UNL     1       3.156   2.484  21.313  0.00  0.00    +0.000 N 
ATOM     28  O   UNL     1       2.415   2.771  22.270  0.00  0.00    +0.000 OA
ATOM     29  O   UNL     1       4.233   1.882  21.417  0.00  0.00    +0.000 OA
ENDBRANCH  25  27
ENDBRANCH  20  21
ENDBRANCH  18  19
ENDBRANCH  16  18
ENDBRANCH   2  16
TORSDOF 7
ENDMDL
MODEL 3
REMARK VINA RESULT:      -7.7      2.310      2.861
REMARK  Name = 
REMARK  9 active torsions:
REMARK  status: ('A' for Active; 'I' for Inactive)
REMARK    1  A    between atoms: C_1  and  C_2
REMARK    2  A    between atoms: N_4  and  C_5
REMARK    3  A    between atoms: C_8  and  N_9
REMARK    4  A    between atoms: C_10  and  C_12
REMARK    5  A    between atoms: C_12  and  C_13
REMARK    6  A    between atoms: C_12  and  O_14
REMARK    7  A    between atoms: O_14  and  N_15
REMARK    8  A    between atoms: C_16  and  C_17
REMARK    9  A    between atoms: C_21  and  N_22
REMARK                            x       y       z     vdW  Elec       q    Type
REMARK                         _______ _______ _______ _____ _____    ______ ____
ROOT
ATOM      1  N   UNL     1       4.904   3.183  19.341  0.00  0.00    +0.000 N 
ATOM      2  C   UNL     1       3.657   3.440  19.868  0.00  0.00    +0.000 C 
ATOM      3  O   UNL     1       3.331   2.858  20.907  0.00  0.00    +0.000 OA
ATOM      4  H   UNL     1       5.531   2.767  20.020  0.00  0.00    +0.000 HD
ENDROOT
BRANCH   1   8
ATOM      5  C   UNL     1       6.594   4.868  15.881  0.00  0.00    +0.000 A 
ATOM      6  C   UNL     1       5.439   4.084  15.808  0.00  0.00    +0.000 A 
ATOM      7  C   UNL     1       4.850   3.559  16.963  0.00  0.00    +0.000 A 
ATOM      8  C   UNL     1       5.448   3.780  18.197  0.00  0.00    +0.000 A 
ATOM      9  C   UNL     1       6.588   4.579  18.287  0.00  0.00    +0.000 A 
ATOM     10  C   UNL     1       7.171   5.107  17.129  0.00  0.00    +0.000 A 
BRANCH   5  14
ATOM     11  C   UNL     1       7.996   5.667  12.465  0.00  0.00    +0.000 C 
ATOM     12  C   UNL     1       7.193   4.877  13.467  0.00  0.00    +0.000 C 
ATOM     13  O   UNL     1       6.589   3.869  13.120  0.00  0.00    +0.000 OA
ATOM     14  N   UNL     1       7.223   5.419  14.740  0.00  0.00    +0.000 N 
ATOM     15  H   UNL     1       7.648   6.331  14.850  0.00  0.00    +0.000 HD
ENDBRANCH   5  14
ENDBRANCH   1   8
BRANCH   2  16
ATOM     16  C   UNL     1       2.761   4.502  19.214  0.00  0.00    +0.000 C 
ATOM     17  C   UNL     1       1.338   4.387  19.732  0.00  0.00    +0.000 C 
BRANCH  16  18
ATOM     18  O   UNL     1       3.309   5.780  19.559  0.00  0.00    +0.000 OA
BRANCH  18  19
ATOM     19  N   UNL     1       2.297   6.575  20.121  0.00  0.00    +0.000 NA
ATOM     20  C   UNL     1       2.262   7.711  19.503  0.00  0.00    +0.000 C 
BRANCH  20  21
ATOM     21  C   UNL     1       1.315   8.770  19.897  0.00  0.00    +0.000 A 
ATOM     22  C   UNL     1       0.842   9.659  18.926  0.00  0.00    +0.000 A 
ATOM     23  C   UNL     1      -0.031  10.687  19.290  0.00  0.00    +0.000 A 
ATOM     24  C   UNL     1      -0.431  10.829  20.622  0.00  0.00    +0.000 A 
ATOM     25  C   UNL     1       0.047   9.932  21.588  0.00  0.00    +0.000 A 
ATOM     26  C   UNL     1       0.918   8.896  21.231  0.00  0.00    +0.000 A 
BRANCH  25  27
ATOM     27  N   UNL     1      -0.357  10.083  22.991  0.00  0.00    +0.000 N 
ATOM     28  O   UNL     1      -1.452  10.627  23.219  0.00  0.00    +0.000 OA
ATOM     29  O   UNL     1       0.412   9.661  23.865  0.00  0.00    +0.000 OA
ENDBRANCH  25  27
ENDBRANCH  20  21
ENDBRANCH  18  19
ENDBRANCH  16  18
ENDBRANCH   2  16
TORSDOF 7
ENDMDL
MODEL 4
REMARK VINA RESULT:      -7.6      0.654      1.148
REMARK  Name = 
REMARK  9 active torsions:
REMARK  status: ('A' for Active; 'I' for Inactive)
REMARK    1  A    between atoms: C_1  and  C_2
REMARK    2  A    between atoms: N_4  and  C_5
REMARK    3  A    between atoms: C_8  and  N_9
REMARK    4  A    between atoms: C_10  and  C_12
REMARK    5  A    between atoms: C_12  and  C_13
REMARK    6  A    between atoms: C_12  and  O_14
REMARK    7  A    between atoms: O_14  and  N_15
REMARK    8  A    between atoms: C_16  and  C_17
REMARK    9  A    between atoms: C_21  and  N_22
REMARK                            x       y       z     vdW  Elec       q    Type
REMARK                         _______ _______ _______ _____ _____    ______ ____
ROOT
ATOM      1  N   UNL     1       4.208   2.510  18.295  0.00  0.00    +0.000 N 
ATOM      2  C   UNL     1       2.895   2.371  18.691  0.00  0.00    +0.000 C 
ATOM      3  O   UNL     1       2.468   1.232  18.906  0.00  0.00    +0.000 OA
ATOM      4  H   UNL     1       4.763   1.689  18.507  0.00  0.00    +0.000 HD
ENDROOT
BRANCH   1   8
ATOM      5  C   UNL     1       6.075   6.210  17.595  0.00  0.00    +0.000 A 
ATOM      6  C   UNL     1       6.063   5.641  18.873  0.00  0.00    +0.000 A 
ATOM      7  C   UNL     1       5.481   4.390  19.099  0.00  0.00    +0.000 A 
ATOM      8  C   UNL     1       4.863   3.722  18.048  0.00  0.00    +0.000 A 
ATOM      9  C   UNL     1       4.887   4.269  16.765  0.00  0.00    +0.000 A 
ATOM     10  C   UNL     1       5.476   5.518  16.542  0.00  0.00    +0.000 A 
BRANCH   5  14
ATOM     11  C   UNL     1       8.137   9.372  17.459  0.00  0.00    +0.000 C 
ATOM     12  C   UNL     1       7.791   7.980  17.923  0.00  0.00    +0.000 C 
ATOM     13  O   UNL     1       8.496   7.409  18.747  0.00  0.00    +0.000 OA
ATOM     14  N   UNL     1       6.653   7.472  17.321  0.00  0.00    +0.000 N 
ATOM     15  H   UNL     1       6.252   8.001  16.557  0.00  0.00    +0.000 HD
ENDBRANCH   5  14
ENDBRANCH   1   8
BRANCH   2  16
ATOM     16  C   UNL     1       2.043   3.623  18.947  0.00  0.00    +0.000 C 
ATOM     17  C   UNL     1       0.566   3.265  18.957  0.00  0.00    +0.000 C 
BRANCH  16  18
ATOM     18  O   UNL     1       2.433   4.140  20.224  0.00  0.00    +0.000 OA
BRANCH  18  19
ATOM     19  N   UNL     1       1.725   5.327  20.474  0.00  0.00    +0.000 NA
ATOM     20  C   UNL     1       2.276   6.292  19.811  0.00  0.00    +0.000 C 
BRANCH  20  21
ATOM     21  C   UNL     1       1.768   7.673  19.902  0.00  0.00    +0.000 A 
ATOM     22  C   UNL     1       1.880   8.516  18.791  0.00  0.00    +0.000 A 
ATOM     23  C   UNL     1       1.430   9.836  18.871  0.00  0.00    +0.000 A 
ATOM     24  C   UNL     1       0.872  10.316  20.058  0.00  0.00    +0.000 A 
ATOM     25  C   UNL     1       0.761   9.464  21.166  0.00  0.00    +0.000 A 
ATOM     26  C   UNL     1       1.204   8.138  21.093  0.00  0.00    +0.000 A 
BRANCH  25  27
ATOM     27  N   UNL     1       0.188   9.963  22.422  0.00  0.00    +0.000 N 
ATOM     28  O   UNL     1       0.782   9.679  23.477  0.00  0.00    +0.000 OA
ATOM     29  O   UNL     1      -0.849  10.636  22.360  0.00  0.00    +0.000 OA
ENDBRANCH  25  27
ENDBRANCH  20  21
ENDBRANCH  18  19
ENDBRANCH  16  18
ENDBRANCH   2  16
TORSDOF 7
ENDMDL
MODEL 5
REMARK VINA RESULT:      -7.6      3.390      7.510
REMARK  Name = 
REMARK  9 active torsions:
REMARK  status: ('A' for Active; 'I' for Inactive)
REMARK    1  A    between atoms: C_1  and  C_2
REMARK    2  A    between atoms: N_4  and  C_5
REMARK    3  A    between atoms: C_8  and  N_9
REMARK    4  A    between atoms: C_10  and  C_12
REMARK    5  A    between atoms: C_12  and  C_13
REMARK    6  A    between atoms: C_12  and  O_14
REMARK    7  A    between atoms: O_14  and  N_15
REMARK    8  A    between atoms: C_16  and  C_17
REMARK    9  A    between atoms: C_21  and  N_22
REMARK                            x       y       z     vdW  Elec       q    Type
REMARK                         _______ _______ _______ _____ _____    ______ ____
ROOT
ATOM      1  N   UNL     1       5.276   5.502  16.906  0.00  0.00    +0.000 N 
ATOM      2  C   UNL     1       6.598   5.892  16.892  0.00  0.00    +0.000 C 
ATOM      3  O   UNL     1       7.327   5.452  15.997  0.00  0.00    +0.000 OA
ATOM      4  H   UNL     1       4.975   5.130  16.012  0.00  0.00    +0.000 HD
ENDROOT
BRANCH   1   8
ATOM      5  C   UNL     1       2.442   6.881  19.687  0.00  0.00    +0.000 A 
ATOM      6  C   UNL     1       2.614   7.523  18.457  0.00  0.00    +0.000 A 
ATOM      7  C   UNL     1       3.524   7.040  17.512  0.00  0.00    +0.000 A 
ATOM      8  C   UNL     1       4.305   5.932  17.819  0.00  0.00    +0.000 A 
ATOM      9  C   UNL     1       4.128   5.269  19.033  0.00  0.00    +0.000 A 
ATOM     10  C   UNL     1       3.211   5.752  19.973  0.00  0.00    +0.000 A 
BRANCH   5  14
ATOM     11  C   UNL     1       0.099   8.810  21.937  0.00  0.00    +0.000 C 
ATOM     12  C   UNL     1       1.007   8.612  20.749  0.00  0.00    +0.000 C 
ATOM     13  O   UNL     1       1.208   9.531  19.965  0.00  0.00    +0.000 OA
ATOM     14  N   UNL     1       1.532   7.334  20.671  0.00  0.00    +0.000 N 
ATOM     15  H   UNL     1       1.168   6.638  21.310  0.00  0.00    +0.000 HD
ENDBRANCH   5  14
ENDBRANCH   1   8
BRANCH   2  16
ATOM     16  C   UNL     1       7.094   6.925  17.915  0.00  0.00    +0.000 C 
ATOM     17  C   UNL     1       8.033   6.271  18.915  0.00  0.00    +0.000 C 
BRANCH  16  18
ATOM     18  O   UNL     1       7.788   7.940  17.179  0.00  0.00    +0.000 OA
BRANCH  18  19
ATOM     19  N   UNL     1       7.839   9.112  17.953  0.00  0.00    +0.000 NA
ATOM     20  C   UNL     1       9.043   9.583  17.923  0.00  0.00    +0.000 C 
BRANCH  20  21
ATOM     21  C   UNL     1       9.411  10.797  18.675  0.00  0.00    +0.000 A 
ATOM     22  C   UNL     1       9.361  10.775  20.073  0.00  0.00    +0.000 A 
ATOM     23  C   UNL     1       9.677  11.926  20.799  0.00  0.00    +0.000 A 
ATOM     24  C   UNL     1      10.040  13.099  20.131  0.00  0.00    +0.000 A 
ATOM     25  C   UNL     1      10.088  13.111  18.730  0.00  0.00    +0.000 A 
ATOM     26  C   UNL     1       9.778  11.961  17.995  0.00  0.00    +0.000 A 
BRANCH  25  27
ATOM     27  N   UNL     1      10.454  14.342  18.020  0.00  0.00    +0.000 N 
ATOM     28  O   UNL     1      11.074  14.225  16.947  0.00  0.00    +0.000 OA
ATOM     29  O   UNL     1      10.127  15.424  18.526  0.00  0.00    +0.000 OA
ENDBRANCH  25  27
ENDBRANCH  20  21
ENDBRANCH  18  19
ENDBRANCH  16  18
ENDBRANCH   2  16
TORSDOF 7
ENDMDL
MODEL 6
REMARK VINA RESULT:      -7.5      3.778      7.765
REMARK  Name = 
REMARK  9 active torsions:
REMARK  status: ('A' for Active; 'I' for Inactive)
REMARK    1  A    between atoms: C_1  and  C_2
REMARK    2  A    between atoms: N_4  and  C_5
REMARK    3  A    between atoms: C_8  and  N_9
REMARK    4  A    between atoms: C_10  and  C_12
REMARK    5  A    between atoms: C_12  and  C_13
REMARK    6  A    between atoms: C_12  and  O_14
REMARK    7  A    between atoms: O_14  and  N_15
REMARK    8  A    between atoms: C_16  and  C_17
REMARK    9  A    between atoms: C_21  and  N_22
REMARK                            x       y       z     vdW  Elec       q    Type
REMARK                         _______ _______ _______ _____ _____    ______ ____
ROOT
ATOM      1  N   UNL     1       6.148   4.881  16.386  0.00  0.00    +0.000 N 
ATOM      2  C   UNL     1       7.036   5.936  16.382  0.00  0.00    +0.000 C 
ATOM      3  O   UNL     1       7.731   6.111  15.376  0.00  0.00    +0.000 OA
ATOM      4  H   UNL     1       5.952   4.540  15.451  0.00  0.00    +0.000 HD
ENDROOT
BRANCH   1   8
ATOM      5  C   UNL     1       3.514   4.031  19.548  0.00  0.00    +0.000 A 
ATOM      6  C   UNL     1       3.125   4.862  18.492  0.00  0.00    +0.000 A 
ATOM      7  C   UNL     1       3.984   5.110  17.417  0.00  0.00    +0.000 A 
ATOM      8  C   UNL     1       5.261   4.562  17.421  0.00  0.00    +0.000 A 
ATOM      9  C   UNL     1       5.653   3.714  18.456  0.00  0.00    +0.000 A 
ATOM     10  C   UNL     1       4.788   3.463  19.527  0.00  0.00    +0.000 A 
BRANCH   5  14
ATOM     11  C   UNL     1       0.981   2.701  22.015  0.00  0.00    +0.000 C 
ATOM     12  C   UNL     1       1.762   2.716  20.726  0.00  0.00    +0.000 C 
ATOM     13  O   UNL     1       1.563   1.860  19.872  0.00  0.00    +0.000 OA
ATOM     14  N   UNL     1       2.677   3.752  20.654  0.00  0.00    +0.000 N 
ATOM     15  H   UNL     1       2.830   4.299  21.492  0.00  0.00    +0.000 HD
ENDBRANCH   5  14
ENDBRANCH   1   8
BRANCH   2  16
ATOM     16  C   UNL     1       7.063   6.908  17.571  0.00  0.00    +0.000 C 
ATOM     17  C   UNL     1       8.000   6.395  18.652  0.00  0.00    +0.000 C 
BRANCH  16  18
ATOM     18  O   UNL     1       7.530   8.166  17.071  0.00  0.00    +0.000 OA
BRANCH  18  19
ATOM     19  N   UNL     1       8.011   8.935  18.144  0.00  0.00    +0.000 NA
ATOM     20  C   UNL     1       8.653   9.956  17.674  0.00  0.00    +0.000 C 
BRANCH  20  21
ATOM     21  C   UNL     1       9.302  10.931  18.569  0.00  0.00    +0.000 A 
ATOM     22  C   UNL     1       9.480  10.606  19.919  0.00  0.00    +0.000 A 
ATOM     23  C   UNL     1      10.067  11.531  20.786  0.00  0.00    +0.000 A 
ATOM     24  C   UNL     1      10.474  12.780  20.308  0.00  0.00    +0.000 A 
ATOM     25  C   UNL     1      10.293  13.096  18.954  0.00  0.00    +0.000 A 
ATOM     26  C   UNL     1       9.712  12.173  18.077  0.00  0.00    +0.000 A 
BRANCH  25  27
ATOM     27  N   UNL     1      10.705  14.410  18.447  0.00  0.00    +0.000 N 
ATOM     28  O   UNL     1      10.921  14.513  17.226  0.00  0.00    +0.000 OA
ATOM     29  O   UNL     1      10.814  15.338  19.259  0.00  0.00    +0.000 OA
ENDBRANCH  25  27
ENDBRANCH  20  21
ENDBRANCH  18  19
ENDBRANCH  16  18
ENDBRANCH   2  16
TORSDOF 7
ENDMDL
MODEL 7
REMARK VINA RESULT:      -7.3      3.674      7.223
REMARK  Name = 
REMARK  9 active torsions:
REMARK  status: ('A' for Active; 'I' for Inactive)
REMARK    1  A    between atoms: C_1  and  C_2
REMARK    2  A    between atoms: N_4  and  C_5
REMARK    3  A    between atoms: C_8  and  N_9
REMARK    4  A    between atoms: C_10  and  C_12
REMARK    5  A    between atoms: C_12  and  C_13
REMARK    6  A    between atoms: C_12  and  O_14
REMARK    7  A    between atoms: O_14  and  N_15
REMARK    8  A    between atoms: C_16  and  C_17
REMARK    9  A    between atoms: C_21  and  N_22
REMARK                            x       y       z     vdW  Elec       q    Type
REMARK                         _______ _______ _______ _____ _____    ______ ____
ROOT
ATOM      1  N   UNL     1       5.870   4.571  15.971  0.00  0.00    +0.000 N 
ATOM      2  C   UNL     1       6.831   5.557  16.045  0.00  0.00    +0.000 C 
ATOM      3  O   UNL     1       7.614   5.681  15.098  0.00  0.00    +0.000 OA
ATOM      4  H   UNL     1       5.724   4.246  15.022  0.00  0.00    +0.000 HD
ENDROOT
BRANCH   1   8
ATOM      5  C   UNL     1       2.985   3.848  18.941  0.00  0.00    +0.000 A 
ATOM      6  C   UNL     1       3.191   5.136  18.437  0.00  0.00    +0.000 A 
ATOM      7  C   UNL     1       4.119   5.372  17.418  0.00  0.00    +0.000 A 
ATOM      8  C   UNL     1       4.883   4.317  16.931  0.00  0.00    +0.000 A 
ATOM      9  C   UNL     1       4.671   3.024  17.409  0.00  0.00    +0.000 A 
ATOM     10  C   UNL     1       3.737   2.792  18.425  0.00  0.00    +0.000 A 
BRANCH   5  14
ATOM     11  C   UNL     1       1.134   2.691  22.024  0.00  0.00    +0.000 C 
ATOM     12  C   UNL     1       2.340   2.882  21.140  0.00  0.00    +0.000 C 
ATOM     13  O   UNL     1       3.436   2.458  21.488  0.00  0.00    +0.000 OA
ATOM     14  N   UNL     1       2.057   3.564  19.970  0.00  0.00    +0.000 N 
ATOM     15  H   UNL     1       1.136   3.976  19.880  0.00  0.00    +0.000 HD
ENDBRANCH   5  14
ENDBRANCH   1   8
BRANCH   2  16
ATOM     16  C   UNL     1       6.835   6.523  17.239  0.00  0.00    +0.000 C 
ATOM     17  C   UNL     1       7.680   5.962  18.371  0.00  0.00    +0.000 C 
BRANCH  16  18
ATOM     18  O   UNL     1       7.392   7.758  16.774  0.00  0.00    +0.000 OA
BRANCH  18  19
ATOM     19  N   UNL     1       7.643   8.591  17.877  0.00  0.00    +0.000 NA
ATOM     20  C   UNL     1       8.420   9.557  17.506  0.00  0.00    +0.000 C 
BRANCH  20  21
ATOM     21  C   UNL     1       8.884  10.578  18.463  0.00  0.00    +0.000 A 
ATOM     22  C   UNL     1       9.325  10.176  19.729  0.00  0.00    +0.000 A 
ATOM     23  C   UNL     1       9.740  11.134  20.658  0.00  0.00    +0.000 A 
ATOM     24  C   UNL     1       9.713  12.491  20.325  0.00  0.00    +0.000 A 
ATOM     25  C   UNL     1       9.272  12.884  19.054  0.00  0.00    +0.000 A 
ATOM     26  C   UNL     1       8.859  11.931  18.115  0.00  0.00    +0.000 A 
BRANCH  25  27
ATOM     27  N   UNL     1       9.227  14.308  18.701  0.00  0.00    +0.000 N 
ATOM     28  O   UNL     1      10.148  15.033  19.120  0.00  0.00    +0.000 OA
ATOM     29  O   UNL     1       8.281  14.706  18.010  0.00  0.00    +0.000 OA
ENDBRANCH  25  27
ENDBRANCH  20  21
ENDBRANCH  18  19
ENDBRANCH  16  18
ENDBRANCH   2  16
TORSDOF 7
ENDMDL
MODEL 8
REMARK VINA RESULT:      -7.3      2.513      5.689
REMARK  Name = 
REMARK  9 active torsions:
REMARK  status: ('A' for Active; 'I' for Inactive)
REMARK    1  A    between atoms: C_1  and  C_2
REMARK    2  A    between atoms: N_4  and  C_5
REMARK    3  A    between atoms: C_8  and  N_9
REMARK    4  A    between atoms: C_10  and  C_12
REMARK    5  A    between atoms: C_12  and  C_13
REMARK    6  A    between atoms: C_12  and  O_14
REMARK    7  A    between atoms: O_14  and  N_15
REMARK    8  A    between atoms: C_16  and  C_17
REMARK    9  A    between atoms: C_21  and  N_22
REMARK                            x       y       z     vdW  Elec       q    Type
REMARK                         _______ _______ _______ _____ _____    ______ ____
ROOT
ATOM      1  N   UNL     1       6.487   5.633  17.947  0.00  0.00    +0.000 N 
ATOM      2  C   UNL     1       7.022   4.867  16.934  0.00  0.00    +0.000 C 
ATOM      3  O   UNL     1       8.140   4.370  17.106  0.00  0.00    +0.000 OA
ATOM      4  H   UNL     1       6.941   5.465  18.837  0.00  0.00    +0.000 HD
ENDROOT
BRANCH   1   8
ATOM      5  C   UNL     1       2.748   7.553  17.941  0.00  0.00    +0.000 A 
ATOM      6  C   UNL     1       3.582   7.600  16.819  0.00  0.00    +0.000 A 
ATOM      7  C   UNL     1       4.807   6.925  16.803  0.00  0.00    +0.000 A 
ATOM      8  C   UNL     1       5.224   6.236  17.936  0.00  0.00    +0.000 A 
ATOM      9  C   UNL     1       4.391   6.162  19.052  0.00  0.00    +0.000 A 
ATOM     10  C   UNL     1       3.164   6.834  19.062  0.00  0.00    +0.000 A 
BRANCH   5  14
ATOM     11  C   UNL     1      -0.120   9.999  18.191  0.00  0.00    +0.000 C 
ATOM     12  C   UNL     1       1.328   9.588  18.099  0.00  0.00    +0.000 C 
ATOM     13  O   UNL     1       2.213  10.435  18.106  0.00  0.00    +0.000 OA
ATOM     14  N   UNL     1       1.502   8.219  18.000  0.00  0.00    +0.000 N 
ATOM     15  H   UNL     1       0.674   7.651  17.866  0.00  0.00    +0.000 HD
ENDBRANCH   5  14
ENDBRANCH   1   8
BRANCH   2  16
ATOM     16  C   UNL     1       6.184   4.574  15.680  0.00  0.00    +0.000 C 
ATOM     17  C   UNL     1       7.008   4.813  14.426  0.00  0.00    +0.000 C 
BRANCH  16  18
ATOM     18  O   UNL     1       5.788   3.199  15.755  0.00  0.00    +0.000 OA
BRANCH  18  19
ATOM     19  N   UNL     1       5.054   2.999  16.936  0.00  0.00    +0.000 NA
ATOM     20  C   UNL     1       3.833   3.380  16.741  0.00  0.00    +0.000 C 
BRANCH  20  21
ATOM     21  C   UNL     1       2.830   3.320  17.820  0.00  0.00    +0.000 A 
ATOM     22  C   UNL     1       1.500   3.651  17.535  0.00  0.00    +0.000 A 
ATOM     23  C   UNL     1       0.544   3.627  18.553  0.00  0.00    +0.000 A 
ATOM     24  C   UNL     1       0.913   3.277  19.854  0.00  0.00    +0.000 A 
ATOM     25  C   UNL     1       2.247   2.945  20.130  0.00  0.00    +0.000 A 
ATOM     26  C   UNL     1       3.211   2.961  19.116  0.00  0.00    +0.000 A 
BRANCH  25  27
ATOM     27  N   UNL     1       2.646   2.590  21.497  0.00  0.00    +0.000 N 
ATOM     28  O   UNL     1       1.862   2.879  22.418  0.00  0.00    +0.000 OA
ATOM     29  O   UNL     1       3.736   2.025  21.655  0.00  0.00    +0.000 OA
ENDBRANCH  25  27
ENDBRANCH  20  21
ENDBRANCH  18  19
ENDBRANCH  16  18
ENDBRANCH   2  16
TORSDOF 7
ENDMDL
MODEL 9
REMARK VINA RESULT:      -7.3      3.740      7.940
REMARK  Name = 
REMARK  9 active torsions:
REMARK  status: ('A' for Active; 'I' for Inactive)
REMARK    1  A    between atoms: C_1  and  C_2
REMARK    2  A    between atoms: N_4  and  C_5
REMARK    3  A    between atoms: C_8  and  N_9
REMARK    4  A    between atoms: C_10  and  C_12
REMARK    5  A    between atoms: C_12  and  C_13
REMARK    6  A    between atoms: C_12  and  O_14
REMARK    7  A    between atoms: O_14  and  N_15
REMARK    8  A    between atoms: C_16  and  C_17
REMARK    9  A    between atoms: C_21  and  N_22
REMARK                            x       y       z     vdW  Elec       q    Type
REMARK                         _______ _______ _______ _____ _____    ______ ____
ROOT
ATOM      1  N   UNL     1       6.086   5.074  16.522  0.00  0.00    +0.000 N 
ATOM      2  C   UNL     1       7.036   6.072  16.484  0.00  0.00    +0.000 C 
ATOM      3  O   UNL     1       7.686   6.220  15.444  0.00  0.00    +0.000 OA
ATOM      4  H   UNL     1       5.819   4.761  15.596  0.00  0.00    +0.000 HD
ENDROOT
BRANCH   1   8
ATOM      5  C   UNL     1       3.504   4.125  19.699  0.00  0.00    +0.000 A 
ATOM      6  C   UNL     1       4.767   3.533  19.598  0.00  0.00    +0.000 A 
ATOM      7  C   UNL     1       5.645   3.881  18.567  0.00  0.00    +0.000 A 
ATOM      8  C   UNL     1       5.238   4.793  17.600  0.00  0.00    +0.000 A 
ATOM      9  C   UNL     1       3.990   5.406  17.702  0.00  0.00    +0.000 A 
ATOM     10  C   UNL     1       3.117   5.060  18.739  0.00  0.00    +0.000 A 
BRANCH   5  14
ATOM     11  C   UNL     1       0.877   2.629  21.965  0.00  0.00    +0.000 C 
ATOM     12  C   UNL     1       1.792   2.670  20.768  0.00  0.00    +0.000 C 
ATOM     13  O   UNL     1       1.792   1.752  19.956  0.00  0.00    +0.000 OA
ATOM     14  N   UNL     1       2.585   3.804  20.726  0.00  0.00    +0.000 N 
ATOM     15  H   UNL     1       2.578   4.410  21.537  0.00  0.00    +0.000 HD
ENDBRANCH   5  14
ENDBRANCH   1   8
BRANCH   2  16
ATOM     16  C   UNL     1       7.189   7.020  17.682  0.00  0.00    +0.000 C 
ATOM     17  C   UNL     1       8.101   6.406  18.731  0.00  0.00    +0.000 C 
BRANCH  16  18
ATOM     18  O   UNL     1       7.760   8.235  17.183  0.00  0.00    +0.000 OA
BRANCH  18  19
ATOM     19  N   UNL     1       8.361   8.929  18.246  0.00  0.00    +0.000 NA
ATOM     20  C   UNL     1       8.694  10.112  17.841  0.00  0.00    +0.000 C 
BRANCH  20  21
ATOM     21  C   UNL     1       9.379  11.064  18.735  0.00  0.00    +0.000 A 
ATOM     22  C   UNL     1       9.441  10.790  20.105  0.00  0.00    +0.000 A 
ATOM     23  C   UNL     1      10.060  11.697  20.969  0.00  0.00    +0.000 A 
ATOM     24  C   UNL     1      10.615  12.877  20.466  0.00  0.00    +0.000 A 
ATOM     25  C   UNL     1      10.550  13.142  19.091  0.00  0.00    +0.000 A 
ATOM     26  C   UNL     1       9.937  12.237  18.218  0.00  0.00    +0.000 A 
BRANCH  25  27
ATOM     27  N   UNL     1      11.118  14.385  18.556  0.00  0.00    +0.000 N 
ATOM     28  O   UNL     1      10.372  15.112  17.876  0.00  0.00    +0.000 OA
ATOM     29  O   UNL     1      12.303  14.639  18.810  0.00  0.00    +0.000 OA
ENDBRANCH  25  27
ENDBRANCH  20  21
ENDBRANCH  18  19
ENDBRANCH  16  18
ENDBRANCH   2  16
TORSDOF 7
ENDMDL
