MODEL 1
REMARK VINA RESULT:      -8.8      0.000      0.000
REMARK  Name = 
REMARK  7 active torsions:
REMARK  status: ('A' for Active; 'I' for Inactive)
REMARK    1  A    between atoms: C_1  and  C_2
REMARK    2  A    between atoms: C_8  and  C_9
REMARK    3  A    between atoms: C_9  and  O_10
REMARK    4  A    between atoms: O_10  and  C_11
REMARK    5  A    between atoms: C_16  and  C_17
REMARK    6  A    between atoms: N_19  and  C_20
REMARK    7  A    between atoms: C_20  and  C_21
REMARK                            x       y       z     vdW  Elec       q    Type
REMARK                         _______ _______ _______ _____ _____    ______ ____
ROOT
ATOM      1  C   UNL     1       2.499   4.447  18.107  0.00  0.00    +0.000 A 
ATOM      2  C   UNL     1       1.312   3.927  18.636  0.00  0.00    +0.000 A 
ATOM      3  C   UNL     1       1.156   2.562  18.862  0.00  0.00    +0.000 A 
ATOM      4  C   UNL     1       2.190   1.690  18.563  0.00  0.00    +0.000 A 
ATOM      5  C   UNL     1       3.380   2.185  18.030  0.00  0.00    +0.000 A 
ATOM      6  C   UNL     1       3.549   3.565  17.796  0.00  0.00    +0.000 A 
ENDROOT
BRANCH   6   7
ATOM      7  C   UNL     1       4.852   3.966  17.198  0.00  0.00    +0.000 C 
ATOM      8  O   UNL     1       4.918   4.184  15.984  0.00  0.00    +0.000 OA
ATOM      9  N   UNL     1       5.962   3.996  18.011  0.00  0.00    +0.000 N 
ATOM     10  H   UNL     1       5.846   3.864  19.011  0.00  0.00    +0.000 HD
BRANCH   9  11
ATOM     11  C   UNL     1       7.249   4.366  17.460  0.00  0.00    +0.000 C 
BRANCH  11  12
ATOM     12  C   UNL     1       7.528   5.807  17.667  0.00  0.00    +0.000 A 
ATOM     13  C   UNL     1       7.978   6.493  18.776  0.00  0.00    +0.000 A 
ATOM     14  N   UNL     1       8.095   7.779  18.340  0.00  0.00    +0.000 N 
ATOM     15  N   UNL     1       7.727   7.901  17.057  0.00  0.00    +0.000 NA
ATOM     16  N   UNL     1       7.378   6.696  16.631  0.00  0.00    +0.000 NA
ATOM     17  H   UNL     1       8.399   8.608  18.838  0.00  0.00    +0.000 HD
ENDBRANCH  11  12
ENDBRANCH   9  11
ENDBRANCH   6   7
BRANCH   1  18
ATOM     18  O   UNL     1       2.654   5.798  17.928  0.00  0.00    +0.000 OA
BRANCH  18  19
ATOM     19  C   UNL     1       3.079   6.534  19.097  0.00  0.00    +0.000 C 
BRANCH  19  27
ATOM     20  C   UNL     1       0.105   9.332  22.863  0.00  0.00    +0.000 C 
ATOM     21  C   UNL     1       0.291   9.835  21.455  0.00  0.00    +0.000 A 
ATOM     22  C   UNL     1      -0.180  11.051  21.091  0.00  0.00    +0.000 A 
ATOM     23  C   UNL     1      -0.022  11.583  19.747  0.00  0.00    +0.000 A 
ATOM     24  C   UNL     1       0.587  10.834  18.813  0.00  0.00    +0.000 A 
ATOM     25  N   UNL     1       1.091   9.590  19.180  0.00  0.00    +0.000 N 
ATOM     26  C   UNL     1       1.822   8.696  18.445  0.00  0.00    +0.000 A 
ATOM     27  C   UNL     1       2.169   7.686  19.324  0.00  0.00    +0.000 A 
ATOM     28  N   UNL     1       1.604   7.903  20.557  0.00  0.00    +0.000 NA
ATOM     29  C   UNL     1       0.979   9.060  20.459  0.00  0.00    +0.000 A 
ENDBRANCH  19  27
ENDBRANCH  18  19
ENDBRANCH   1  18
TORSDOF 6
ENDMDL
MODEL 2
REMARK VINA RESULT:      -8.7      1.525      1.710
REMARK  Name = 
REMARK  7 active torsions:
REMARK  status: ('A' for Active; 'I' for Inactive)
REMARK    1  A    between atoms: C_1  and  C_2
REMARK    2  A    between atoms: C_8  and  C_9
REMARK    3  A    between atoms: C_9  and  O_10
REMARK    4  A    between atoms: O_10  and  C_11
REMARK    5  A    between atoms: C_16  and  C_17
REMARK    6  A    between atoms: N_19  and  C_20
REMARK    7  A    between atoms: C_20  and  C_21
REMARK                            x       y       z     vdW  Elec       q    Type
REMARK                         _______ _______ _______ _____ _____    ______ ____
ROOT
ATOM      1  C   UNL     1       2.247   4.508  19.610  0.00  0.00    +0.000 A 
ATOM      2  C   UNL     1       1.209   4.282  20.520  0.00  0.00    +0.000 A 
ATOM      3  C   UNL     1       1.252   3.220  21.419  0.00  0.00    +0.000 A 
ATOM      4  C   UNL     1       2.341   2.364  21.426  0.00  0.00    +0.000 A 
ATOM      5  C   UNL     1       3.386   2.567  20.523  0.00  0.00    +0.000 A 
ATOM      6  C   UNL     1       3.352   3.638  19.607  0.00  0.00    +0.000 A 
ENDROOT
BRANCH   6   7
ATOM      7  C   UNL     1       4.511   3.732  18.678  0.00  0.00    +0.000 C 
ATOM      8  O   UNL     1       5.655   3.778  19.142  0.00  0.00    +0.000 OA
ATOM      9  N   UNL     1       4.260   3.852  17.330  0.00  0.00    +0.000 N 
ATOM     10  H   UNL     1       3.307   3.752  16.994  0.00  0.00    +0.000 HD
BRANCH   9  11
ATOM     11  C   UNL     1       5.363   3.962  16.399  0.00  0.00    +0.000 C 
BRANCH  11  12
ATOM     12  C   UNL     1       5.995   5.301  16.469  0.00  0.00    +0.000 A 
ATOM     13  C   UNL     1       5.442   6.565  16.503  0.00  0.00    +0.000 A 
ATOM     14  N   UNL     1       6.519   7.391  16.625  0.00  0.00    +0.000 N 
ATOM     15  N   UNL     1       7.668   6.703  16.644  0.00  0.00    +0.000 NA
ATOM     16  N   UNL     1       7.362   5.418  16.551  0.00  0.00    +0.000 NA
ATOM     17  H   UNL     1       6.557   8.402  16.687  0.00  0.00    +0.000 HD
ENDBRANCH  11  12
ENDBRANCH   9  11
ENDBRANCH   6   7
BRANCH   1  18
ATOM     18  O   UNL     1       2.210   5.582  18.756  0.00  0.00    +0.000 OA
BRANCH  18  19
ATOM     19  C   UNL     1       2.950   6.745  19.190  0.00  0.00    +0.000 C 
BRANCH  19  27
ATOM     20  C   UNL     1      -0.001   9.428  23.058  0.00  0.00    +0.000 C 
ATOM     21  C   UNL     1       0.131   9.945  21.649  0.00  0.00    +0.000 A 
ATOM     22  C   UNL     1      -0.386  11.149  21.308  0.00  0.00    +0.000 A 
ATOM     23  C   UNL     1      -0.281  11.695  19.963  0.00  0.00    +0.000 A 
ATOM     24  C   UNL     1       0.324  10.970  19.008  0.00  0.00    +0.000 A 
ATOM     25  N   UNL     1       0.874   9.740  19.351  0.00  0.00    +0.000 N 
ATOM     26  C   UNL     1       1.611   8.873  18.590  0.00  0.00    +0.000 A 
ATOM     27  C   UNL     1       2.012   7.868  19.451  0.00  0.00    +0.000 A 
ATOM     28  N   UNL     1       1.475   8.060  20.701  0.00  0.00    +0.000 NA
ATOM     29  C   UNL     1       0.814   9.198  20.629  0.00  0.00    +0.000 A 
ENDBRANCH  19  27
ENDBRANCH  18  19
ENDBRANCH   1  18
TORSDOF 6
ENDMDL
MODEL 3
REMARK VINA RESULT:      -8.7      0.862      1.709
REMARK  Name = 
REMARK  7 active torsions:
REMARK  status: ('A' for Active; 'I' for Inactive)
REMARK    1  A    between atoms: C_1  and  C_2
REMARK    2  A    between atoms: C_8  and  C_9
REMARK    3  A    between atoms: C_9  and  O_10
REMARK    4  A    between atoms: O_10  and  C_11
REMARK    5  A    between atoms: C_16  and  C_17
REMARK    6  A    between atoms: N_19  and  C_20
REMARK    7  A    between atoms: C_20  and  C_21
REMARK                            x       y       z     vdW  Elec       q    Type
REMARK                         _______ _______ _______ _____ _____    ______ ____
ROOT
ATOM      1  C   UNL     1       2.514   4.637  19.290  0.00  0.00    +0.000 A 
ATOM      2  C   UNL     1       1.356   4.252  19.974  0.00  0.00    +0.000 A 
ATOM      3  C   UNL     1       0.787   2.995  19.786  0.00  0.00    +0.000 A 
ATOM      4  C   UNL     1       1.372   2.097  18.909  0.00  0.00    +0.000 A 
ATOM      5  C   UNL     1       2.525   2.462  18.211  0.00  0.00    +0.000 A 
ATOM      6  C   UNL     1       3.108   3.732  18.392  0.00  0.00    +0.000 A 
ENDROOT
BRANCH   6   7
ATOM      7  C   UNL     1       4.318   4.013  17.572  0.00  0.00    +0.000 C 
ATOM      8  O   UNL     1       4.227   4.005  16.340  0.00  0.00    +0.000 OA
ATOM      9  N   UNL     1       5.519   4.187  18.218  0.00  0.00    +0.000 N 
ATOM     10  H   UNL     1       5.533   4.240  19.232  0.00  0.00    +0.000 HD
BRANCH   9  11
ATOM     11  C   UNL     1       6.720   4.445  17.451  0.00  0.00    +0.000 C 
BRANCH  11  12
ATOM     12  C   UNL     1       7.236   5.811  17.704  0.00  0.00    +0.000 A 
ATOM     13  C   UNL     1       7.918   6.338  18.781  0.00  0.00    +0.000 A 
ATOM     14  N   UNL     1       8.172   7.625  18.411  0.00  0.00    +0.000 N 
ATOM     15  N   UNL     1       7.670   7.898  17.199  0.00  0.00    +0.000 NA
ATOM     16  N   UNL     1       7.094   6.792  16.752  0.00  0.00    +0.000 NA
ATOM     17  H   UNL     1       8.656   8.361  18.913  0.00  0.00    +0.000 HD
ENDBRANCH  11  12
ENDBRANCH   9  11
ENDBRANCH   6   7
BRANCH   1  18
ATOM     18  O   UNL     1       3.086   5.864  19.515  0.00  0.00    +0.000 OA
BRANCH  18  19
ATOM     19  C   UNL     1       2.537   6.955  18.742  0.00  0.00    +0.000 C 
BRANCH  19  27
ATOM     20  C   UNL     1      -0.189  11.786  19.046  0.00  0.00    +0.000 C 
ATOM     21  C   UNL     1      -0.014  10.888  20.243  0.00  0.00    +0.000 A 
ATOM     22  C   UNL     1      -0.615  11.186  21.419  0.00  0.00    +0.000 A 
ATOM     23  C   UNL     1      -0.481  10.350  22.602  0.00  0.00    +0.000 A 
ATOM     24  C   UNL     1       0.291   9.253  22.544  0.00  0.00    +0.000 A 
ATOM     25  N   UNL     1       0.899   8.927  21.336  0.00  0.00    +0.000 N 
ATOM     26  C   UNL     1       1.643   7.827  21.005  0.00  0.00    +0.000 A 
ATOM     27  C   UNL     1       1.895   7.941  19.650  0.00  0.00    +0.000 A 
ATOM     28  N   UNL     1       1.387   9.120  19.161  0.00  0.00    +0.000 NA
ATOM     29  C   UNL     1       0.775   9.688  20.181  0.00  0.00    +0.000 A 
ENDBRANCH  19  27
ENDBRANCH  18  19
ENDBRANCH   1  18
TORSDOF 6
ENDMDL
MODEL 4
REMARK VINA RESULT:      -8.7      1.720      2.636
REMARK  Name = 
REMARK  7 active torsions:
REMARK  status: ('A' for Active; 'I' for Inactive)
REMARK    1  A    between atoms: C_1  and  C_2
REMARK    2  A    between atoms: C_8  and  C_9
REMARK    3  A    between atoms: C_9  and  O_10
REMARK    4  A    between atoms: O_10  and  C_11
REMARK    5  A    between atoms: C_16  and  C_17
REMARK    6  A    between atoms: N_19  and  C_20
REMARK    7  A    between atoms: C_20  and  C_21
REMARK                            x       y       z     vdW  Elec       q    Type
REMARK                         _______ _______ _______ _____ _____    ______ ____
ROOT
ATOM      1  C   UNL     1       2.422   4.591  19.692  0.00  0.00    +0.000 A 
ATOM      2  C   UNL     1       1.115   4.146  19.922  0.00  0.00    +0.000 A 
ATOM      3  C   UNL     1       0.710   2.866  19.552  0.00  0.00    +0.000 A 
ATOM      4  C   UNL     1       1.610   2.005  18.946  0.00  0.00    +0.000 A 
ATOM      5  C   UNL     1       2.917   2.430  18.702  0.00  0.00    +0.000 A 
ATOM      6  C   UNL     1       3.338   3.724  19.070  0.00  0.00    +0.000 A 
ENDROOT
BRANCH   6   7
ATOM      7  C   UNL     1       4.746   4.068  18.732  0.00  0.00    +0.000 C 
ATOM      8  O   UNL     1       5.655   3.698  19.482  0.00  0.00    +0.000 OA
ATOM      9  N   UNL     1       4.977   4.864  17.634  0.00  0.00    +0.000 N 
ATOM     10  H   UNL     1       4.204   5.095  17.018  0.00  0.00    +0.000 HD
BRANCH   9  11
ATOM     11  C   UNL     1       6.333   5.232  17.284  0.00  0.00    +0.000 C 
BRANCH  11  12
ATOM     12  C   UNL     1       6.598   5.005  15.844  0.00  0.00    +0.000 A 
ATOM     13  C   UNL     1       5.948   4.218  14.915  0.00  0.00    +0.000 A 
ATOM     14  N   UNL     1       6.615   4.465  13.752  0.00  0.00    +0.000 N 
ATOM     15  N   UNL     1       7.624   5.327  13.936  0.00  0.00    +0.000 NA
ATOM     16  N   UNL     1       7.624   5.668  15.215  0.00  0.00    +0.000 NA
ATOM     17  H   UNL     1       6.458   4.092  12.823  0.00  0.00    +0.000 HD
ENDBRANCH  11  12
ENDBRANCH   9  11
ENDBRANCH   6   7
BRANCH   1  18
ATOM     18  O   UNL     1       2.818   5.840  20.098  0.00  0.00    +0.000 OA
BRANCH  18  19
ATOM     19  C   UNL     1       2.394   6.931  19.250  0.00  0.00    +0.000 C 
BRANCH  19  27
ATOM     20  C   UNL     1      -0.252  11.815  19.159  0.00  0.00    +0.000 C 
ATOM     21  C   UNL     1      -0.161  10.977  20.407  0.00  0.00    +0.000 A 
ATOM     22  C   UNL     1      -0.820  11.344  21.531  0.00  0.00    +0.000 A 
ATOM     23  C   UNL     1      -0.768  10.567  22.760  0.00  0.00    +0.000 A 
ATOM     24  C   UNL     1      -0.015   9.456  22.800  0.00  0.00    +0.000 A 
ATOM     25  N   UNL     1       0.652   9.059  21.646  0.00  0.00    +0.000 N 
ATOM     26  C   UNL     1       1.393   7.932  21.413  0.00  0.00    +0.000 A 
ATOM     27  C   UNL     1       1.721   7.972  20.070  0.00  0.00    +0.000 A 
ATOM     28  N   UNL     1       1.264   9.134  19.496  0.00  0.00    +0.000 NA
ATOM     29  C   UNL     1       0.607   9.763  20.449  0.00  0.00    +0.000 A 
ENDBRANCH  19  27
ENDBRANCH  18  19
ENDBRANCH   1  18
TORSDOF 6
ENDMDL
MODEL 5
REMARK VINA RESULT:      -8.6      2.570      4.671
REMARK  Name = 
REMARK  7 active torsions:
REMARK  status: ('A' for Active; 'I' for Inactive)
REMARK    1  A    between atoms: C_1  and  C_2
REMARK    2  A    between atoms: C_8  and  C_9
REMARK    3  A    between atoms: C_9  and  O_10
REMARK    4  A    between atoms: O_10  and  C_11
REMARK    5  A    between atoms: C_16  and  C_17
REMARK    6  A    between atoms: N_19  and  C_20
REMARK    7  A    between atoms: C_20  and  C_21
REMARK                            x       y       z     vdW  Elec       q    Type
REMARK                         _______ _______ _______ _____ _____    ______ ____
ROOT
ATOM      1  C   UNL     1       5.020   5.831  16.763  0.00  0.00    +0.000 A 
ATOM      2  C   UNL     1       5.247   6.223  15.438  0.00  0.00    +0.000 A 
ATOM      3  C   UNL     1       5.793   5.346  14.506  0.00  0.00    +0.000 A 
ATOM      4  C   UNL     1       6.121   4.054  14.883  0.00  0.00    +0.000 A 
ATOM      5  C   UNL     1       5.909   3.642  16.199  0.00  0.00    +0.000 A 
ATOM      6  C   UNL     1       5.358   4.522  17.152  0.00  0.00    +0.000 A 
ENDROOT
BRANCH   6   7
ATOM      7  C   UNL     1       5.206   3.975  18.528  0.00  0.00    +0.000 C 
ATOM      8  O   UNL     1       5.820   4.505  19.460  0.00  0.00    +0.000 OA
ATOM      9  N   UNL     1       4.450   2.839  18.699  0.00  0.00    +0.000 N 
ATOM     10  H   UNL     1       3.920   2.474  17.914  0.00  0.00    +0.000 HD
BRANCH   9  11
ATOM     11  C   UNL     1       4.294   2.269  20.021  0.00  0.00    +0.000 C 
BRANCH  11  12
ATOM     12  C   UNL     1       2.945   2.545  20.570  0.00  0.00    +0.000 A 
ATOM     13  C   UNL     1       1.749   2.822  19.941  0.00  0.00    +0.000 A 
ATOM     14  N   UNL     1       0.856   2.926  20.966  0.00  0.00    +0.000 N 
ATOM     15  N   UNL     1       1.448   2.751  22.155  0.00  0.00    +0.000 NA
ATOM     16  N   UNL     1       2.731   2.514  21.927  0.00  0.00    +0.000 NA
ATOM     17  H   UNL     1      -0.139   3.119  20.943  0.00  0.00    +0.000 HD
ENDBRANCH  11  12
ENDBRANCH   9  11
ENDBRANCH   6   7
BRANCH   1  18
ATOM     18  O   UNL     1       4.444   6.693  17.660  0.00  0.00    +0.000 OA
BRANCH  18  19
ATOM     19  C   UNL     1       3.308   7.437  17.165  0.00  0.00    +0.000 C 
BRANCH  19  27
ATOM     20  C   UNL     1      -0.059  11.542  18.800  0.00  0.00    +0.000 C 
ATOM     21  C   UNL     1       0.258  10.365  19.685  0.00  0.00    +0.000 A 
ATOM     22  C   UNL     1      -0.359  10.219  20.882  0.00  0.00    +0.000 A 
ATOM     23  C   UNL     1      -0.091   9.099  21.771  0.00  0.00    +0.000 A 
ATOM     24  C   UNL     1       0.825   8.185  21.414  0.00  0.00    +0.000 A 
ATOM     25  N   UNL     1       1.453   8.315  20.179  0.00  0.00    +0.000 N 
ATOM     26  C   UNL     1       2.338   7.474  19.560  0.00  0.00    +0.000 A 
ATOM     27  C   UNL     1       2.550   8.014  18.305  0.00  0.00    +0.000 A 
ATOM     28  N   UNL     1       1.875   9.204  18.170  0.00  0.00    +0.000 NA
ATOM     29  C   UNL     1       1.206   9.357  19.295  0.00  0.00    +0.000 A 
ENDBRANCH  19  27
ENDBRANCH  18  19
ENDBRANCH   1  18
TORSDOF 6
ENDMDL
MODEL 6
REMARK VINA RESULT:      -8.6      1.687      2.154
REMARK  Name = 
REMARK  7 active torsions:
REMARK  status: ('A' for Active; 'I' for Inactive)
REMARK    1  A    between atoms: C_1  and  C_2
REMARK    2  A    between atoms: C_8  and  C_9
REMARK    3  A    between atoms: C_9  and  O_10
REMARK    4  A    between atoms: O_10  and  C_11
REMARK    5  A    between atoms: C_16  and  C_17
REMARK    6  A    between atoms: N_19  and  C_20
REMARK    7  A    between atoms: C_20  and  C_21
REMARK                            x       y       z     vdW  Elec       q    Type
REMARK                         _______ _______ _______ _____ _____    ______ ____
ROOT
ATOM      1  C   UNL     1       2.485   4.717  19.855  0.00  0.00    +0.000 A 
ATOM      2  C   UNL     1       1.184   4.261  20.100  0.00  0.00    +0.000 A 
ATOM      3  C   UNL     1       0.831   2.931  19.893  0.00  0.00    +0.000 A 
ATOM      4  C   UNL     1       1.778   2.029  19.437  0.00  0.00    +0.000 A 
ATOM      5  C   UNL     1       3.080   2.462  19.180  0.00  0.00    +0.000 A 
ATOM      6  C   UNL     1       3.448   3.807  19.385  0.00  0.00    +0.000 A 
ENDROOT
BRANCH   6   7
ATOM      7  C   UNL     1       4.856   4.152  19.049  0.00  0.00    +0.000 C 
ATOM      8  O   UNL     1       5.665   4.347  19.962  0.00  0.00    +0.000 OA
ATOM      9  N   UNL     1       5.188   4.326  17.725  0.00  0.00    +0.000 N 
ATOM     10  H   UNL     1       4.504   4.099  17.010  0.00  0.00    +0.000 HD
BRANCH   9  11
ATOM     11  C   UNL     1       6.544   4.677  17.362  0.00  0.00    +0.000 C 
BRANCH  11  12
ATOM     12  C   UNL     1       6.729   4.664  15.891  0.00  0.00    +0.000 A 
ATOM     13  C   UNL     1       6.128   3.905  14.909  0.00  0.00    +0.000 A 
ATOM     14  N   UNL     1       6.663   4.384  13.750  0.00  0.00    +0.000 N 
ATOM     15  N   UNL     1       7.553   5.358  13.984  0.00  0.00    +0.000 NA
ATOM     16  N   UNL     1       7.602   5.542  15.295  0.00  0.00    +0.000 NA
ATOM     17  H   UNL     1       6.491   4.104  12.792  0.00  0.00    +0.000 HD
ENDBRANCH  11  12
ENDBRANCH   9  11
ENDBRANCH   6   7
BRANCH   1  18
ATOM     18  O   UNL     1       2.828   6.022  20.102  0.00  0.00    +0.000 OA
BRANCH  18  19
ATOM     19  C   UNL     1       2.692   6.922  18.979  0.00  0.00    +0.000 C 
BRANCH  19  27
ATOM     20  C   UNL     1       0.083   9.471  23.170  0.00  0.00    +0.000 C 
ATOM     21  C   UNL     1       0.244  10.114  21.817  0.00  0.00    +0.000 A 
ATOM     22  C   UNL     1      -0.156  11.391  21.611  0.00  0.00    +0.000 A 
ATOM     23  C   UNL     1      -0.018  12.059  20.326  0.00  0.00    +0.000 A 
ATOM     24  C   UNL     1       0.497  11.380  19.288  0.00  0.00    +0.000 A 
ATOM     25  N   UNL     1       0.927  10.073  19.492  0.00  0.00    +0.000 N 
ATOM     26  C   UNL     1       1.563   9.221  18.629  0.00  0.00    +0.000 A 
ATOM     27  C   UNL     1       1.875   8.099  19.375  0.00  0.00    +0.000 A 
ATOM     28  N   UNL     1       1.379   8.213  20.651  0.00  0.00    +0.000 NA
ATOM     29  C   UNL     1       0.833   9.412  20.710  0.00  0.00    +0.000 A 
ENDBRANCH  19  27
ENDBRANCH  18  19
ENDBRANCH   1  18
TORSDOF 6
ENDMDL
MODEL 7
REMARK VINA RESULT:      -8.5      2.535      4.424
REMARK  Name = 
REMARK  7 active torsions:
REMARK  status: ('A' for Active; 'I' for Inactive)
REMARK    1  A    between atoms: C_1  and  C_2
REMARK    2  A    between atoms: C_8  and  C_9
REMARK    3  A    between atoms: C_9  and  O_10
REMARK    4  A    between atoms: O_10  and  C_11
REMARK    5  A    between atoms: C_16  and  C_17
REMARK    6  A    between atoms: N_19  and  C_20
REMARK    7  A    between atoms: C_20  and  C_21
REMARK                            x       y       z     vdW  Elec       q    Type
REMARK                         _______ _______ _______ _____ _____    ______ ____
ROOT
ATOM      1  C   UNL     1       4.952   5.992  16.976  0.00  0.00    +0.000 A 
ATOM      2  C   UNL     1       5.186   6.501  15.693  0.00  0.00    +0.000 A 
ATOM      3  C   UNL     1       5.794   5.730  14.707  0.00  0.00    +0.000 A 
ATOM      4  C   UNL     1       6.177   4.429  14.987  0.00  0.00    +0.000 A 
ATOM      5  C   UNL     1       5.958   3.901  16.261  0.00  0.00    +0.000 A 
ATOM      6  C   UNL     1       5.345   4.674  17.267  0.00  0.00    +0.000 A 
ENDROOT
BRANCH   6   7
ATOM      7  C   UNL     1       5.193   4.010  18.591  0.00  0.00    +0.000 C 
ATOM      8  O   UNL     1       5.815   4.451  19.563  0.00  0.00    +0.000 OA
ATOM      9  N   UNL     1       4.425   2.871  18.665  0.00  0.00    +0.000 N 
ATOM     10  H   UNL     1       3.889   2.582  17.853  0.00  0.00    +0.000 HD
BRANCH   9  11
ATOM     11  C   UNL     1       4.268   2.190  19.933  0.00  0.00    +0.000 C 
BRANCH  11  12
ATOM     12  C   UNL     1       2.952   2.490  20.545  0.00  0.00    +0.000 A 
ATOM     13  C   UNL     1       1.723   2.746  19.974  0.00  0.00    +0.000 A 
ATOM     14  N   UNL     1       0.888   2.891  21.041  0.00  0.00    +0.000 N 
ATOM     15  N   UNL     1       1.544   2.758  22.202  0.00  0.00    +0.000 NA
ATOM     16  N   UNL     1       2.812   2.509  21.912  0.00  0.00    +0.000 NA
ATOM     17  H   UNL     1      -0.107   3.085  21.065  0.00  0.00    +0.000 HD
ENDBRANCH  11  12
ENDBRANCH   9  11
ENDBRANCH   6   7
BRANCH   1  18
ATOM     18  O   UNL     1       4.316   6.751  17.925  0.00  0.00    +0.000 OA
BRANCH  18  19
ATOM     19  C   UNL     1       2.888   6.552  18.024  0.00  0.00    +0.000 C 
BRANCH  19  27
ATOM     20  C   UNL     1       0.514   9.133  22.333  0.00  0.00    +0.000 C 
ATOM     21  C   UNL     1       0.823   9.847  21.042  0.00  0.00    +0.000 A 
ATOM     22  C   UNL     1       0.624  11.181  20.930  0.00  0.00    +0.000 A 
ATOM     23  C   UNL     1       0.910  11.917  19.709  0.00  0.00    +0.000 A 
ATOM     24  C   UNL     1       1.361  11.251  18.634  0.00  0.00    +0.000 A 
ATOM     25  N   UNL     1       1.586   9.882  18.742  0.00  0.00    +0.000 N 
ATOM     26  C   UNL     1       2.124   9.014  17.831  0.00  0.00    +0.000 A 
ATOM     27  C   UNL     1       2.237   7.804  18.491  0.00  0.00    +0.000 A 
ATOM     28  N   UNL     1       1.712   7.893  19.758  0.00  0.00    +0.000 NA
ATOM     29  C   UNL     1       1.346   9.151  19.899  0.00  0.00    +0.000 A 
ENDBRANCH  19  27
ENDBRANCH  18  19
ENDBRANCH   1  18
TORSDOF 6
ENDMDL
MODEL 8
REMARK VINA RESULT:      -8.5      1.305      1.351
REMARK  Name = 
REMARK  7 active torsions:
REMARK  status: ('A' for Active; 'I' for Inactive)
REMARK    1  A    between atoms: C_1  and  C_2
REMARK    2  A    between atoms: C_8  and  C_9
REMARK    3  A    between atoms: C_9  and  O_10
REMARK    4  A    between atoms: O_10  and  C_11
REMARK    5  A    between atoms: C_16  and  C_17
REMARK    6  A    between atoms: N_19  and  C_20
REMARK    7  A    between atoms: C_20  and  C_21
REMARK                            x       y       z     vdW  Elec       q    Type
REMARK                         _______ _______ _______ _____ _____    ______ ____
ROOT
ATOM      1  C   UNL     1       2.623   5.140  19.708  0.00  0.00    +0.000 A 
ATOM      2  C   UNL     1       1.341   4.937  20.232  0.00  0.00    +0.000 A 
ATOM      3  C   UNL     1       0.842   3.656  20.450  0.00  0.00    +0.000 A 
ATOM      4  C   UNL     1       1.621   2.551  20.150  0.00  0.00    +0.000 A 
ATOM      5  C   UNL     1       2.900   2.729  19.622  0.00  0.00    +0.000 A 
ATOM      6  C   UNL     1       3.415   4.021  19.395  0.00  0.00    +0.000 A 
ENDROOT
BRANCH   6   7
ATOM      7  C   UNL     1       4.779   4.080  18.802  0.00  0.00    +0.000 C 
ATOM      8  O   UNL     1       5.723   3.559  19.406  0.00  0.00    +0.000 OA
ATOM      9  N   UNL     1       4.956   4.792  17.638  0.00  0.00    +0.000 N 
ATOM     10  H   UNL     1       4.141   5.153  17.151  0.00  0.00    +0.000 HD
BRANCH   9  11
ATOM     11  C   UNL     1       6.272   4.884  17.042  0.00  0.00    +0.000 C 
BRANCH  11  12
ATOM     12  C   UNL     1       7.008   6.068  17.544  0.00  0.00    +0.000 A 
ATOM     13  C   UNL     1       7.788   6.242  18.669  0.00  0.00    +0.000 A 
ATOM     14  N   UNL     1       8.240   7.523  18.560  0.00  0.00    +0.000 N 
ATOM     15  N   UNL     1       7.764   8.122  17.460  0.00  0.00    +0.000 NA
ATOM     16  N   UNL     1       7.008   7.239  16.825  0.00  0.00    +0.000 NA
ATOM     17  H   UNL     1       8.847   8.051  19.176  0.00  0.00    +0.000 HD
ENDBRANCH  11  12
ENDBRANCH   9  11
ENDBRANCH   6   7
BRANCH   1  18
ATOM     18  O   UNL     1       3.117   6.408  19.536  0.00  0.00    +0.000 OA
BRANCH  18  19
ATOM     19  C   UNL     1       2.566   7.142  18.419  0.00  0.00    +0.000 C 
BRANCH  19  27
ATOM     20  C   UNL     1       0.154   9.534  22.815  0.00  0.00    +0.000 C 
ATOM     21  C   UNL     1       0.372  10.272  21.521  0.00  0.00    +0.000 A 
ATOM     22  C   UNL     1       0.078  11.590  21.423  0.00  0.00    +0.000 A 
ATOM     23  C   UNL     1       0.274  12.349  20.198  0.00  0.00    +0.000 A 
ATOM     24  C   UNL     1       0.737  11.720  19.105  0.00  0.00    +0.000 A 
ATOM     25  N   UNL     1       1.059  10.370  19.198  0.00  0.00    +0.000 N 
ATOM     26  C   UNL     1       1.627   9.545  18.265  0.00  0.00    +0.000 A 
ATOM     27  C   UNL     1       1.845   8.343  18.914  0.00  0.00    +0.000 A 
ATOM     28  N   UNL     1       1.355   8.390  20.197  0.00  0.00    +0.000 NA
ATOM     29  C   UNL     1       0.907   9.620  20.357  0.00  0.00    +0.000 A 
ENDBRANCH  19  27
ENDBRANCH  18  19
ENDBRANCH   1  18
TORSDOF 6
ENDMDL
MODEL 9
REMARK VINA RESULT:      -8.3      1.498      2.149
REMARK  Name = 
REMARK  7 active torsions:
REMARK  status: ('A' for Active; 'I' for Inactive)
REMARK    1  A    between atoms: C_1  and  C_2
REMARK    2  A    between atoms: C_8  and  C_9
REMARK    3  A    between atoms: C_9  and  O_10
REMARK    4  A    between atoms: O_10  and  C_11
REMARK    5  A    between atoms: C_16  and  C_17
REMARK    6  A    between atoms: N_19  and  C_20
REMARK    7  A    between atoms: C_20  and  C_21
REMARK                            x       y       z     vdW  Elec       q    Type
REMARK                         _______ _______ _______ _____ _____    ______ ____
ROOT
ATOM      1  C   UNL     1       2.530   4.763  19.800  0.00  0.00    +0.000 A 
ATOM      2  C   UNL     1       1.328   4.476  20.455  0.00  0.00    +0.000 A 
ATOM      3  C   UNL     1       0.779   3.197  20.436  0.00  0.00    +0.000 A 
ATOM      4  C   UNL     1       1.427   2.177  19.759  0.00  0.00    +0.000 A 
ATOM      5  C   UNL     1       2.625   2.441  19.093  0.00  0.00    +0.000 A 
ATOM      6  C   UNL     1       3.189   3.733  19.105  0.00  0.00    +0.000 A 
ENDROOT
BRANCH   6   7
ATOM      7  C   UNL     1       4.453   3.895  18.335  0.00  0.00    +0.000 C 
ATOM      8  O   UNL     1       5.535   3.748  18.913  0.00  0.00    +0.000 OA
ATOM      9  N   UNL     1       4.371   4.289  17.020  0.00  0.00    +0.000 N 
ATOM     10  H   UNL     1       3.459   4.342  16.575  0.00  0.00    +0.000 HD
BRANCH   9  11
ATOM     11  C   UNL     1       5.580   4.472  16.245  0.00  0.00    +0.000 C 
BRANCH  11  12
ATOM     12  C   UNL     1       6.210   5.783  16.532  0.00  0.00    +0.000 A 
ATOM     13  C   UNL     1       5.685   6.946  17.056  0.00  0.00    +0.000 A 
ATOM     14  N   UNL     1       6.757   7.783  17.137  0.00  0.00    +0.000 N 
ATOM     15  N   UNL     1       7.873   7.201  16.677  0.00  0.00    +0.000 NA
ATOM     16  N   UNL     1       7.552   5.971  16.304  0.00  0.00    +0.000 NA
ATOM     17  H   UNL     1       6.811   8.739  17.471  0.00  0.00    +0.000 HD
ENDBRANCH  11  12
ENDBRANCH   9  11
ENDBRANCH   6   7
BRANCH   1  18
ATOM     18  O   UNL     1       3.080   6.018  19.861  0.00  0.00    +0.000 OA
BRANCH  18  19
ATOM     19  C   UNL     1       2.446   7.014  19.027  0.00  0.00    +0.000 C 
BRANCH  19  27
ATOM     20  C   UNL     1      -0.252  11.870  19.081  0.00  0.00    +0.000 C 
ATOM     21  C   UNL     1      -0.129  11.008  20.310  0.00  0.00    +0.000 A 
ATOM     22  C   UNL     1      -0.770  11.347  21.454  0.00  0.00    +0.000 A 
ATOM     23  C   UNL     1      -0.687  10.547  22.666  0.00  0.00    +0.000 A 
ATOM     24  C   UNL     1       0.078   9.443  22.671  0.00  0.00    +0.000 A 
ATOM     25  N   UNL     1       0.728   9.076  21.497  0.00  0.00    +0.000 N 
ATOM     26  C   UNL     1       1.476   7.961  21.228  0.00  0.00    +0.000 A 
ATOM     27  C   UNL     1       1.778   8.031  19.880  0.00  0.00    +0.000 A 
ATOM     28  N   UNL     1       1.298   9.198  19.337  0.00  0.00    +0.000 NA
ATOM     29  C   UNL     1       0.653   9.802  20.315  0.00  0.00    +0.000 A 
ENDBRANCH  19  27
ENDBRANCH  18  19
ENDBRANCH   1  18
TORSDOF 6
ENDMDL
