MODEL 1
REMARK VINA RESULT:      -6.1      0.000      0.000
REMARK  Name = 
REMARK  5 active torsions:
REMARK  status: ('A' for Active; 'I' for Inactive)
REMARK    1  A    between atoms: C_1  and  C_2
REMARK    2  A    between atoms: C_6  and  C_7
REMARK    3  A    between atoms: C_9  and  C_10
REMARK    4  A    between atoms: C_10  and  N_11
REMARK    5  A    between atoms: C_12  and  C_13
REMARK                            x       y       z     vdW  Elec       q    Type
REMARK                         _______ _______ _______ _____ _____    ______ ____
ROOT
ATOM      1  C   UNL     1       1.176   4.685  20.417  0.00  0.00    +0.000 C 
ATOM      2  C   UNL     1       2.011   3.915  19.427  0.00  0.00    +0.000 A 
ATOM      3  C   UNL     1       2.087   2.519  19.562  0.00  0.00    +0.000 A 
ATOM      4  C   UNL     1       2.873   1.764  18.703  0.00  0.00    +0.000 A 
ATOM      5  C   UNL     1       3.610   2.388  17.704  0.00  0.00    +0.000 A 
ATOM      6  C   UNL     1       3.562   3.783  17.528  0.00  0.00    +0.000 A 
ATOM      7  C   UNL     1       2.743   4.567  18.387  0.00  0.00    +0.000 A 
ATOM      8  C   UNL     1       2.648   6.068  18.252  0.00  0.00    +0.000 C 
ENDROOT
BRANCH   6   9
ATOM      9  C   UNL     1       4.494   4.353  16.473  0.00  0.00    +0.000 C 
ATOM     10  C   UNL     1       5.884   4.491  17.141  0.00  0.00    +0.000 C 
ATOM     11  C   UNL     1       5.772   3.832  15.798  0.00  0.00    +0.000 C 
BRANCH  11  12
ATOM     12  C   UNL     1       6.299   4.731  14.653  0.00  0.00    +0.000 C 
BRANCH  12  13
ATOM     13  N   UNL     1       7.566   5.364  15.011  0.00  0.00    +0.000 NA
ATOM     14  H   UNL     1       7.735   5.226  16.035  0.00  0.00    +0.000 HD
ATOM     15  H   UNL     1       7.459   6.396  14.875  0.00  0.00    +0.000 HD
ENDBRANCH  12  13
ENDBRANCH  11  12
ENDBRANCH   6   9
TORSDOF 3
ENDMDL
MODEL 2
REMARK VINA RESULT:      -6.1      1.500      2.639
REMARK  Name = 
REMARK  5 active torsions:
REMARK  status: ('A' for Active; 'I' for Inactive)
REMARK    1  A    between atoms: C_1  and  C_2
REMARK    2  A    between atoms: C_6  and  C_7
REMARK    3  A    between atoms: C_9  and  C_10
REMARK    4  A    between atoms: C_10  and  N_11
REMARK    5  A    between atoms: C_12  and  C_13
REMARK                            x       y       z     vdW  Elec       q    Type
REMARK                         _______ _______ _______ _____ _____    ______ ____
ROOT
ATOM      1  C   UNL     1       1.813   2.927  21.361  0.00  0.00    +0.000 C 
ATOM      2  C   UNL     1       2.459   3.998  20.522  0.00  0.00    +0.000 A 
ATOM      3  C   UNL     1       1.880   5.278  20.514  0.00  0.00    +0.000 A 
ATOM      4  C   UNL     1       2.409   6.292  19.728  0.00  0.00    +0.000 A 
ATOM      5  C   UNL     1       3.515   6.044  18.923  0.00  0.00    +0.000 A 
ATOM      6  C   UNL     1       4.131   4.779  18.903  0.00  0.00    +0.000 A 
ATOM      7  C   UNL     1       3.613   3.737  19.720  0.00  0.00    +0.000 A 
ATOM      8  C   UNL     1       4.226   2.358  19.743  0.00  0.00    +0.000 C 
ENDROOT
BRANCH   6   9
ATOM      9  C   UNL     1       5.263   4.606  17.904  0.00  0.00    +0.000 C 
ATOM     10  C   UNL     1       4.620   4.080  16.597  0.00  0.00    +0.000 C 
ATOM     11  C   UNL     1       5.573   5.238  16.538  0.00  0.00    +0.000 C 
BRANCH  11  12
ATOM     12  C   UNL     1       6.949   4.840  15.952  0.00  0.00    +0.000 C 
BRANCH  12  13
ATOM     13  N   UNL     1       7.801   4.217  16.962  0.00  0.00    +0.000 NA
ATOM     14  H   UNL     1       8.667   3.855  16.497  0.00  0.00    +0.000 HD
ATOM     15  H   UNL     1       7.299   3.375  17.330  0.00  0.00    +0.000 HD
ENDBRANCH  12  13
ENDBRANCH  11  12
ENDBRANCH   6   9
TORSDOF 3
ENDMDL
MODEL 3
REMARK VINA RESULT:      -5.9      2.305      3.355
REMARK  Name = 
REMARK  5 active torsions:
REMARK  status: ('A' for Active; 'I' for Inactive)
REMARK    1  A    between atoms: C_1  and  C_2
REMARK    2  A    between atoms: C_6  and  C_7
REMARK    3  A    between atoms: C_9  and  C_10
REMARK    4  A    between atoms: C_10  and  N_11
REMARK    5  A    between atoms: C_12  and  C_13
REMARK                            x       y       z     vdW  Elec       q    Type
REMARK                         _______ _______ _______ _____ _____    ______ ____
ROOT
ATOM      1  C   UNL     1       1.438   1.981  18.764  0.00  0.00    +0.000 C 
ATOM      2  C   UNL     1       2.189   3.280  18.626  0.00  0.00    +0.000 A 
ATOM      3  C   UNL     1       1.523   4.378  18.055  0.00  0.00    +0.000 A 
ATOM      4  C   UNL     1       2.177   5.586  17.866  0.00  0.00    +0.000 A 
ATOM      5  C   UNL     1       3.512   5.719  18.230  0.00  0.00    +0.000 A 
ATOM      6  C   UNL     1       4.218   4.650  18.811  0.00  0.00    +0.000 A 
ATOM      7  C   UNL     1       3.553   3.412  19.029  0.00  0.00    +0.000 A 
ATOM      8  C   UNL     1       4.253   2.225  19.646  0.00  0.00    +0.000 C 
ENDROOT
BRANCH   6   9
ATOM      9  C   UNL     1       5.697   4.887  19.064  0.00  0.00    +0.000 C 
ATOM     10  C   UNL     1       6.423   4.608  17.724  0.00  0.00    +0.000 C 
ATOM     11  C   UNL     1       6.725   5.869  18.480  0.00  0.00    +0.000 C 
BRANCH  11  12
ATOM     12  C   UNL     1       8.109   5.826  19.172  0.00  0.00    +0.000 C 
BRANCH  12  13
ATOM     13  N   UNL     1       7.994   5.434  20.574  0.00  0.00    +0.000 NA
ATOM     14  H   UNL     1       8.131   6.282  21.174  0.00  0.00    +0.000 HD
ATOM     15  H   UNL     1       8.792   4.794  20.795  0.00  0.00    +0.000 HD
ENDBRANCH  12  13
ENDBRANCH  11  12
ENDBRANCH   6   9
TORSDOF 3
ENDMDL
MODEL 4
REMARK VINA RESULT:      -5.8      0.870      2.193
REMARK  Name = 
REMARK  5 active torsions:
REMARK  status: ('A' for Active; 'I' for Inactive)
REMARK    1  A    between atoms: C_1  and  C_2
REMARK    2  A    between atoms: C_6  and  C_7
REMARK    3  A    between atoms: C_9  and  C_10
REMARK    4  A    between atoms: C_10  and  N_11
REMARK    5  A    between atoms: C_12  and  C_13
REMARK                            x       y       z     vdW  Elec       q    Type
REMARK                         _______ _______ _______ _____ _____    ______ ____
ROOT
ATOM      1  C   UNL     1       0.777   2.811  19.493  0.00  0.00    +0.000 C 
ATOM      2  C   UNL     1       1.768   3.915  19.235  0.00  0.00    +0.000 A 
ATOM      3  C   UNL     1       1.726   5.054  20.057  0.00  0.00    +0.000 A 
ATOM      4  C   UNL     1       2.588   6.119  19.839  0.00  0.00    +0.000 A 
ATOM      5  C   UNL     1       3.498   6.076  18.789  0.00  0.00    +0.000 A 
ATOM      6  C   UNL     1       3.580   4.954  17.944  0.00  0.00    +0.000 A 
ATOM      7  C   UNL     1       2.717   3.846  18.170  0.00  0.00    +0.000 A 
ATOM      8  C   UNL     1       2.753   2.613  17.298  0.00  0.00    +0.000 C 
ENDROOT
BRANCH   6   9
ATOM      9  C   UNL     1       4.539   5.073  16.772  0.00  0.00    +0.000 C 
ATOM     10  C   UNL     1       5.942   4.697  17.310  0.00  0.00    +0.000 C 
ATOM     11  C   UNL     1       5.444   4.069  16.040  0.00  0.00    +0.000 C 
BRANCH  11  12
ATOM     12  C   UNL     1       6.144   4.644  14.785  0.00  0.00    +0.000 C 
BRANCH  12  13
ATOM     13  N   UNL     1       7.382   5.336  15.133  0.00  0.00    +0.000 NA
ATOM     14  H   UNL     1       7.383   5.530  16.162  0.00  0.00    +0.000 HD
ATOM     15  H   UNL     1       7.369   6.272  14.664  0.00  0.00    +0.000 HD
ENDBRANCH  12  13
ENDBRANCH  11  12
ENDBRANCH   6   9
TORSDOF 3
ENDMDL
MODEL 5
REMARK VINA RESULT:      -5.8      2.108      3.200
REMARK  Name = 
REMARK  5 active torsions:
REMARK  status: ('A' for Active; 'I' for Inactive)
REMARK    1  A    between atoms: C_1  and  C_2
REMARK    2  A    between atoms: C_6  and  C_7
REMARK    3  A    between atoms: C_9  and  C_10
REMARK    4  A    between atoms: C_10  and  N_11
REMARK    5  A    between atoms: C_12  and  C_13
REMARK                            x       y       z     vdW  Elec       q    Type
REMARK                         _______ _______ _______ _____ _____    ______ ____
ROOT
ATOM      1  C   UNL     1       0.557   2.080  18.889  0.00  0.00    +0.000 C 
ATOM      2  C   UNL     1       1.494   3.158  19.366  0.00  0.00    +0.000 A 
ATOM      3  C   UNL     1       0.962   4.217  20.121  0.00  0.00    +0.000 A 
ATOM      4  C   UNL     1       1.770   5.258  20.552  0.00  0.00    +0.000 A 
ATOM      5  C   UNL     1       3.122   5.272  20.227  0.00  0.00    +0.000 A 
ATOM      6  C   UNL     1       3.700   4.230  19.479  0.00  0.00    +0.000 A 
ATOM      7  C   UNL     1       2.886   3.145  19.048  0.00  0.00    +0.000 A 
ATOM      8  C   UNL     1       3.444   1.998  18.241  0.00  0.00    +0.000 C 
ENDROOT
BRANCH   6   9
ATOM      9  C   UNL     1       5.159   4.414  19.099  0.00  0.00    +0.000 C 
ATOM     10  C   UNL     1       5.169   5.133  17.727  0.00  0.00    +0.000 C 
ATOM     11  C   UNL     1       6.036   5.648  18.839  0.00  0.00    +0.000 C 
BRANCH  11  12
ATOM     12  C   UNL     1       7.534   5.328  18.616  0.00  0.00    +0.000 C 
BRANCH  12  13
ATOM     13  N   UNL     1       8.298   5.449  19.855  0.00  0.00    +0.000 NA
ATOM     14  H   UNL     1       7.723   5.070  20.644  0.00  0.00    +0.000 HD
ATOM     15  H   UNL     1       8.424   6.468  20.056  0.00  0.00    +0.000 HD
ENDBRANCH  12  13
ENDBRANCH  11  12
ENDBRANCH   6   9
TORSDOF 3
ENDMDL
MODEL 6
REMARK VINA RESULT:      -5.8      1.115      1.338
REMARK  Name = 
REMARK  5 active torsions:
REMARK  status: ('A' for Active; 'I' for Inactive)
REMARK    1  A    between atoms: C_1  and  C_2
REMARK    2  A    between atoms: C_6  and  C_7
REMARK    3  A    between atoms: C_9  and  C_10
REMARK    4  A    between atoms: C_10  and  N_11
REMARK    5  A    between atoms: C_12  and  C_13
REMARK                            x       y       z     vdW  Elec       q    Type
REMARK                         _______ _______ _______ _____ _____    ______ ____
ROOT
ATOM      1  C   UNL     1       0.993   4.536  20.511  0.00  0.00    +0.000 C 
ATOM      2  C   UNL     1       1.847   3.847  19.478  0.00  0.00    +0.000 A 
ATOM      3  C   UNL     1       1.457   2.572  19.034  0.00  0.00    +0.000 A 
ATOM      4  C   UNL     1       2.227   1.875  18.115  0.00  0.00    +0.000 A 
ATOM      5  C   UNL     1       3.407   2.428  17.631  0.00  0.00    +0.000 A 
ATOM      6  C   UNL     1       3.833   3.704  18.042  0.00  0.00    +0.000 A 
ATOM      7  C   UNL     1       3.043   4.440  18.968  0.00  0.00    +0.000 A 
ATOM      8  C   UNL     1       3.445   5.813  19.451  0.00  0.00    +0.000 C 
ENDROOT
BRANCH   6   9
ATOM      9  C   UNL     1       5.190   4.151  17.525  0.00  0.00    +0.000 C 
ATOM     10  C   UNL     1       5.008   4.456  16.018  0.00  0.00    +0.000 C 
ATOM     11  C   UNL     1       5.705   5.455  16.896  0.00  0.00    +0.000 C 
BRANCH  11  12
ATOM     12  C   UNL     1       7.234   5.485  16.657  0.00  0.00    +0.000 C 
BRANCH  12  13
ATOM     13  N   UNL     1       7.873   4.257  17.127  0.00  0.00    +0.000 NA
ATOM     14  H   UNL     1       7.207   3.750  17.756  0.00  0.00    +0.000 HD
ATOM     15  H   UNL     1       8.686   4.529  17.727  0.00  0.00    +0.000 HD
ENDBRANCH  12  13
ENDBRANCH  11  12
ENDBRANCH   6   9
TORSDOF 3
ENDMDL
MODEL 7
REMARK VINA RESULT:      -5.8      1.133      1.191
REMARK  Name = 
REMARK  5 active torsions:
REMARK  status: ('A' for Active; 'I' for Inactive)
REMARK    1  A    between atoms: C_1  and  C_2
REMARK    2  A    between atoms: C_6  and  C_7
REMARK    3  A    between atoms: C_9  and  C_10
REMARK    4  A    between atoms: C_10  and  N_11
REMARK    5  A    between atoms: C_12  and  C_13
REMARK                            x       y       z     vdW  Elec       q    Type
REMARK                         _______ _______ _______ _____ _____    ______ ____
ROOT
ATOM      1  C   UNL     1       0.760   3.845  20.359  0.00  0.00    +0.000 C 
ATOM      2  C   UNL     1       2.116   3.470  19.820  0.00  0.00    +0.000 A 
ATOM      3  C   UNL     1       2.994   2.762  20.658  0.00  0.00    +0.000 A 
ATOM      4  C   UNL     1       4.269   2.426  20.229  0.00  0.00    +0.000 A 
ATOM      5  C   UNL     1       4.700   2.802  18.962  0.00  0.00    +0.000 A 
ATOM      6  C   UNL     1       3.854   3.507  18.086  0.00  0.00    +0.000 A 
ATOM      7  C   UNL     1       2.536   3.839  18.506  0.00  0.00    +0.000 A 
ATOM      8  C   UNL     1       1.579   4.596  17.615  0.00  0.00    +0.000 C 
ENDROOT
BRANCH   6   9
ATOM      9  C   UNL     1       4.477   3.953  16.774  0.00  0.00    +0.000 C 
ATOM     10  C   UNL     1       5.053   5.370  17.020  0.00  0.00    +0.000 C 
ATOM     11  C   UNL     1       5.907   4.328  16.357  0.00  0.00    +0.000 C 
BRANCH  11  12
ATOM     12  C   UNL     1       6.079   4.586  14.840  0.00  0.00    +0.000 C 
BRANCH  12  13
ATOM     13  N   UNL     1       7.366   5.212  14.546  0.00  0.00    +0.000 NA
ATOM     14  H   UNL     1       7.648   4.963  13.569  0.00  0.00    +0.000 HD
ATOM     15  H   UNL     1       8.084   4.777  15.172  0.00  0.00    +0.000 HD
ENDBRANCH  12  13
ENDBRANCH  11  12
ENDBRANCH   6   9
TORSDOF 3
ENDMDL
MODEL 8
REMARK VINA RESULT:      -5.7      1.466      1.558
REMARK  Name = 
REMARK  5 active torsions:
REMARK  status: ('A' for Active; 'I' for Inactive)
REMARK    1  A    between atoms: C_1  and  C_2
REMARK    2  A    between atoms: C_6  and  C_7
REMARK    3  A    between atoms: C_9  and  C_10
REMARK    4  A    between atoms: C_10  and  N_11
REMARK    5  A    between atoms: C_12  and  C_13
REMARK                            x       y       z     vdW  Elec       q    Type
REMARK                         _______ _______ _______ _____ _____    ______ ____
ROOT
ATOM      1  C   UNL     1       0.678   3.626  20.386  0.00  0.00    +0.000 C 
ATOM      2  C   UNL     1       1.824   3.405  19.432  0.00  0.00    +0.000 A 
ATOM      3  C   UNL     1       1.996   2.124  18.882  0.00  0.00    +0.000 A 
ATOM      4  C   UNL     1       3.057   1.853  18.030  0.00  0.00    +0.000 A 
ATOM      5  C   UNL     1       3.976   2.850  17.724  0.00  0.00    +0.000 A 
ATOM      6  C   UNL     1       3.842   4.149  18.247  0.00  0.00    +0.000 A 
ATOM      7  C   UNL     1       2.746   4.446  19.104  0.00  0.00    +0.000 A 
ATOM      8  C   UNL     1       2.545   5.819  19.700  0.00  0.00    +0.000 C 
ENDROOT
BRANCH   6   9
ATOM      9  C   UNL     1       4.967   5.117  17.924  0.00  0.00    +0.000 C 
ATOM     10  C   UNL     1       5.876   5.169  19.177  0.00  0.00    +0.000 C 
ATOM     11  C   UNL     1       6.493   4.967  17.824  0.00  0.00    +0.000 C 
BRANCH  11  12
ATOM     12  C   UNL     1       7.224   6.234  17.314  0.00  0.00    +0.000 C 
BRANCH  12  13
ATOM     13  N   UNL     1       7.584   6.112  15.904  0.00  0.00    +0.000 NA
ATOM     14  H   UNL     1       7.969   5.153  15.735  0.00  0.00    +0.000 HD
ATOM     15  H   UNL     1       8.372   6.775  15.716  0.00  0.00    +0.000 HD
ENDBRANCH  12  13
ENDBRANCH  11  12
ENDBRANCH   6   9
TORSDOF 3
ENDMDL
MODEL 9
REMARK VINA RESULT:      -5.7      2.825      5.094
REMARK  Name = 
REMARK  5 active torsions:
REMARK  status: ('A' for Active; 'I' for Inactive)
REMARK    1  A    between atoms: C_1  and  C_2
REMARK    2  A    between atoms: C_6  and  C_7
REMARK    3  A    between atoms: C_9  and  C_10
REMARK    4  A    between atoms: C_10  and  N_11
REMARK    5  A    between atoms: C_12  and  C_13
REMARK                            x       y       z     vdW  Elec       q    Type
REMARK                         _______ _______ _______ _____ _____    ______ ____
ROOT
ATOM      1  C   UNL     1       7.537   6.476  18.136  0.00  0.00    +0.000 C 
ATOM      2  C   UNL     1       6.638   5.564  17.342  0.00  0.00    +0.000 A 
ATOM      3  C   UNL     1       6.990   5.271  16.014  0.00  0.00    +0.000 A 
ATOM      4  C   UNL     1       6.179   4.470  15.224  0.00  0.00    +0.000 A 
ATOM      5  C   UNL     1       4.992   3.959  15.738  0.00  0.00    +0.000 A 
ATOM      6  C   UNL     1       4.601   4.222  17.064  0.00  0.00    +0.000 A 
ATOM      7  C   UNL     1       5.435   5.023  17.891  0.00  0.00    +0.000 A 
ATOM      8  C   UNL     1       5.072   5.344  19.321  0.00  0.00    +0.000 C 
ENDROOT
BRANCH   6   9
ATOM      9  C   UNL     1       3.235   3.697  17.471  0.00  0.00    +0.000 C 
ATOM     10  C   UNL     1       3.431   2.208  17.850  0.00  0.00    +0.000 C 
ATOM     11  C   UNL     1       2.672   3.114  18.776  0.00  0.00    +0.000 C 
BRANCH  11  12
ATOM     12  C   UNL     1       1.148   2.845  18.747  0.00  0.00    +0.000 C 
BRANCH  12  13
ATOM     13  N   UNL     1       0.535   3.103  20.048  0.00  0.00    +0.000 NA
ATOM     14  H   UNL     1       0.206   4.096  20.075  0.00  0.00    +0.000 HD
ATOM     15  H   UNL     1       1.283   3.028  20.776  0.00  0.00    +0.000 HD
ENDBRANCH  12  13
ENDBRANCH  11  12
ENDBRANCH   6   9
TORSDOF 3
ENDMDL
