MODEL 1
REMARK VINA RESULT:      -8.8      0.000      0.000
REMARK  Name = 
REMARK  9 active torsions:
REMARK  status: ('A' for Active; 'I' for Inactive)
REMARK    1  A    between atoms: O_1  and  C_2
REMARK    2  A    between atoms: C_2  and  C_3
REMARK    3  A    between atoms: C_5  and  N_6
REMARK    4  A    between atoms: C_8  and  C_9
REMARK    5  A    between atoms: C_9  and  N_10
REMARK    6  A    between atoms: N_10  and  C_11
REMARK    7  A    between atoms: C_30  and  O_31
REMARK    8  A    between atoms: C_32  and  O_33
REMARK    9  A    between atoms: C_34  and  O_35
REMARK                            x       y       z     vdW  Elec       q    Type
REMARK                         _______ _______ _______ _____ _____    ______ ____
ROOT
ATOM      1  N   UNL     1       2.613   6.955  19.011  0.00  0.00    +0.000 N 
ATOM      2  C   UNL     1       1.976   7.651  20.000  0.00  0.00    +0.000 A 
ATOM      3  C   UNL     1       1.614   8.835  19.388  0.00  0.00    +0.000 A 
ATOM      4  N   UNL     1       2.050   8.817  18.090  0.00  0.00    +0.000 NA
ATOM      5  N   UNL     1       2.672   7.666  17.873  0.00  0.00    +0.000 NA
ENDROOT
BRANCH   1   8
ATOM      6  C   UNL     1       2.818   3.342  19.452  0.00  0.00    +0.000 C 
ATOM      7  O   UNL     1       2.272   4.653  19.253  0.00  0.00    +0.000 OA
ATOM      8  C   UNL     1       3.286   5.657  19.093  0.00  0.00    +0.000 C 
ATOM      9  C   UNL     1       4.168   5.369  17.860  0.00  0.00    +0.000 C 
ATOM     10  C   UNL     1       4.722   3.930  17.941  0.00  0.00    +0.000 C 
ATOM     11  C   UNL     1       3.606   2.905  18.217  0.00  0.00    +0.000 C 
BRANCH   9  12
ATOM     12  O   UNL     1       5.258   6.291  17.726  0.00  0.00    +0.000 OA
ATOM     13  H   UNL     1       4.961   7.193  17.942  0.00  0.00    +0.000 HD
ENDBRANCH   9  12
BRANCH  10  14
ATOM     14  O   UNL     1       5.432   3.580  16.749  0.00  0.00    +0.000 OA
ATOM     15  H   UNL     1       5.288   4.268  16.076  0.00  0.00    +0.000 HD
ENDBRANCH  10  14
BRANCH  11  16
ATOM     16  O   UNL     1       4.134   1.592  18.402  0.00  0.00    +0.000 OA
ATOM     17  H   UNL     1       3.977   1.065  17.598  0.00  0.00    +0.000 HD
ENDBRANCH  11  16
BRANCH   6  18
ATOM     18  C   UNL     1       1.648   2.400  19.749  0.00  0.00    +0.000 C 
BRANCH  18  19
ATOM     19  O   UNL     1       1.284   1.717  18.547  0.00  0.00    +0.000 OA
ATOM     20  H   UNL     1       1.902   0.966  18.464  0.00  0.00    +0.000 HD
ENDBRANCH  18  19
ENDBRANCH   6  18
ENDBRANCH   1   8
BRANCH   3  21
ATOM     21  C   UNL     1       0.868  10.018  19.938  0.00  0.00    +0.000 C 
BRANCH  21  22
ATOM     22  N   UNL     1       0.255  10.898  18.934  0.00  0.00    +0.000 N 
ATOM     23  H   UNL     1       0.832  11.719  18.787  0.00  0.00    +0.000 HD
BRANCH  22  24
ATOM     24  C   UNL     1      -1.089  11.307  19.116  0.00  0.00    +0.000 A 
ATOM     25  C   UNL     1      -2.066  11.006  18.119  0.00  0.00    +0.000 A 
ATOM     26  C   UNL     1      -1.770  10.180  17.010  0.00  0.00    +0.000 A 
ATOM     27  C   UNL     1      -2.718   9.912  16.024  0.00  0.00    +0.000 A 
ATOM     28  C   UNL     1      -3.989  10.451  16.137  0.00  0.00    +0.000 A 
ATOM     29  C   UNL     1      -4.307  11.242  17.243  0.00  0.00    +0.000 A 
ATOM     30  C   UNL     1      -3.380  11.536  18.235  0.00  0.00    +0.000 A 
ATOM     31  N   UNL     1      -3.792  12.319  19.235  0.00  0.00    +0.000 NA
ATOM     32  C   UNL     1      -2.899  12.518  20.232  0.00  0.00    +0.000 A 
ATOM     33  C   UNL     1      -1.614  11.997  20.214  0.00  0.00    +0.000 A 
ATOM     34  O   UNL     1      -0.984  12.288  21.394  0.00  0.00    +0.000 OA
ATOM     35  C   UNL     1      -1.863  13.002  22.151  0.00  0.00    +0.000 A 
ATOM     36  C   UNL     1      -1.644  13.427  23.459  0.00  0.00    +0.000 A 
ATOM     37  C   UNL     1      -2.657  14.197  24.040  0.00  0.00    +0.000 A 
ATOM     38  C   UNL     1      -3.797  14.561  23.317  0.00  0.00    +0.000 A 
ATOM     39  C   UNL     1      -3.999  14.095  22.010  0.00  0.00    +0.000 A 
ATOM     40  C   UNL     1      -3.027  13.260  21.435  0.00  0.00    +0.000 A 
ENDBRANCH  22  24
ENDBRANCH  21  22
ENDBRANCH   3  21
TORSDOF 9
ENDMDL
MODEL 2
REMARK VINA RESULT:      -8.7      1.061      2.445
REMARK  Name = 
REMARK  9 active torsions:
REMARK  status: ('A' for Active; 'I' for Inactive)
REMARK    1  A    between atoms: O_1  and  C_2
REMARK    2  A    between atoms: C_2  and  C_3
REMARK    3  A    between atoms: C_5  and  N_6
REMARK    4  A    between atoms: C_8  and  C_9
REMARK    5  A    between atoms: C_9  and  N_10
REMARK    6  A    between atoms: N_10  and  C_11
REMARK    7  A    between atoms: C_30  and  O_31
REMARK    8  A    between atoms: C_32  and  O_33
REMARK    9  A    between atoms: C_34  and  O_35
REMARK                            x       y       z     vdW  Elec       q    Type
REMARK                         _______ _______ _______ _____ _____    ______ ____
ROOT
ATOM      1  N   UNL     1       2.543   6.911  19.011  0.00  0.00    +0.000 N 
ATOM      2  C   UNL     1       2.150   8.214  18.875  0.00  0.00    +0.000 A 
ATOM      3  C   UNL     1       1.478   8.478  20.052  0.00  0.00    +0.000 A 
ATOM      4  N   UNL     1       1.475   7.349  20.828  0.00  0.00    +0.000 NA
ATOM      5  N   UNL     1       2.118   6.391  20.174  0.00  0.00    +0.000 NA
ENDROOT
BRANCH   1   8
ATOM      6  C   UNL     1       5.359   5.772  16.996  0.00  0.00    +0.000 C 
ATOM      7  O   UNL     1       4.604   6.470  17.995  0.00  0.00    +0.000 OA
ATOM      8  C   UNL     1       3.229   6.057  18.040  0.00  0.00    +0.000 C 
ATOM      9  C   UNL     1       3.107   4.557  18.380  0.00  0.00    +0.000 C 
ATOM     10  C   UNL     1       3.977   3.730  17.409  0.00  0.00    +0.000 C 
ATOM     11  C   UNL     1       5.412   4.279  17.320  0.00  0.00    +0.000 C 
BRANCH   9  12
ATOM     12  O   UNL     1       1.755   4.081  18.331  0.00  0.00    +0.000 OA
ATOM     13  H   UNL     1       1.353   4.126  19.218  0.00  0.00    +0.000 HD
ENDBRANCH   9  12
BRANCH  10  14
ATOM     14  O   UNL     1       3.997   2.347  17.780  0.00  0.00    +0.000 OA
ATOM     15  H   UNL     1       4.800   2.167  18.299  0.00  0.00    +0.000 HD
ENDBRANCH  10  14
BRANCH  11  16
ATOM     16  O   UNL     1       6.181   3.583  16.340  0.00  0.00    +0.000 OA
ATOM     17  H   UNL     1       6.698   4.224  15.820  0.00  0.00    +0.000 HD
ENDBRANCH  11  16
BRANCH   6  18
ATOM     18  C   UNL     1       6.755   6.400  16.956  0.00  0.00    +0.000 C 
BRANCH  18  19
ATOM     19  O   UNL     1       7.434   5.951  15.780  0.00  0.00    +0.000 OA
ATOM     20  H   UNL     1       6.940   6.321  15.024  0.00  0.00    +0.000 HD
ENDBRANCH  18  19
ENDBRANCH   6  18
ENDBRANCH   1   8
BRANCH   3  21
ATOM     21  C   UNL     1       0.818   9.744  20.525  0.00  0.00    +0.000 C 
BRANCH  21  22
ATOM     22  N   UNL     1       0.381  10.660  19.463  0.00  0.00    +0.000 N 
ATOM     23  H   UNL     1       1.044  11.420  19.359  0.00  0.00    +0.000 HD
BRANCH  22  24
ATOM     24  C   UNL     1      -0.928  11.196  19.522  0.00  0.00    +0.000 A 
ATOM     25  C   UNL     1      -1.855  10.934  18.467  0.00  0.00    +0.000 A 
ATOM     26  C   UNL     1      -1.558  10.028  17.423  0.00  0.00    +0.000 A 
ATOM     27  C   UNL     1      -2.453   9.795  16.380  0.00  0.00    +0.000 A 
ATOM     28  C   UNL     1      -3.674  10.452  16.371  0.00  0.00    +0.000 A 
ATOM     29  C   UNL     1      -3.995  11.325  17.412  0.00  0.00    +0.000 A 
ATOM     30  C   UNL     1      -3.118  11.585  18.459  0.00  0.00    +0.000 A 
ATOM     31  N   UNL     1      -3.527  12.453  19.388  0.00  0.00    +0.000 NA
ATOM     32  C   UNL     1      -2.694  12.621  20.441  0.00  0.00    +0.000 A 
ATOM     33  C   UNL     1      -1.465  11.987  20.545  0.00  0.00    +0.000 A 
ATOM     34  O   UNL     1      -0.898  12.281  21.756  0.00  0.00    +0.000 OA
ATOM     35  C   UNL     1      -1.758  13.109  22.409  0.00  0.00    +0.000 A 
ATOM     36  C   UNL     1      -1.596  13.580  23.710  0.00  0.00    +0.000 A 
ATOM     37  C   UNL     1      -2.571  14.467  24.177  0.00  0.00    +0.000 A 
ATOM     38  C   UNL     1      -3.617  14.894  23.352  0.00  0.00    +0.000 A 
ATOM     39  C   UNL     1      -3.767  14.381  22.057  0.00  0.00    +0.000 A 
ATOM     40  C   UNL     1      -2.838  13.433  21.595  0.00  0.00    +0.000 A 
ENDBRANCH  22  24
ENDBRANCH  21  22
ENDBRANCH   3  21
TORSDOF 9
ENDMDL
MODEL 3
REMARK VINA RESULT:      -8.6      1.066      1.440
REMARK  Name = 
REMARK  9 active torsions:
REMARK  status: ('A' for Active; 'I' for Inactive)
REMARK    1  A    between atoms: O_1  and  C_2
REMARK    2  A    between atoms: C_2  and  C_3
REMARK    3  A    between atoms: C_5  and  N_6
REMARK    4  A    between atoms: C_8  and  C_9
REMARK    5  A    between atoms: C_9  and  N_10
REMARK    6  A    between atoms: N_10  and  C_11
REMARK    7  A    between atoms: C_30  and  O_31
REMARK    8  A    between atoms: C_32  and  O_33
REMARK    9  A    between atoms: C_34  and  O_35
REMARK                            x       y       z     vdW  Elec       q    Type
REMARK                         _______ _______ _______ _____ _____    ______ ____
ROOT
ATOM      1  N   UNL     1       3.031   7.530  18.029  0.00  0.00    +0.000 N 
ATOM      2  C   UNL     1       2.220   7.781  19.102  0.00  0.00    +0.000 A 
ATOM      3  C   UNL     1       1.616   8.980  18.784  0.00  0.00    +0.000 A 
ATOM      4  N   UNL     1       2.084   9.408  17.569  0.00  0.00    +0.000 NA
ATOM      5  N   UNL     1       2.960   8.519  17.122  0.00  0.00    +0.000 NA
ENDROOT
BRANCH   1   8
ATOM      6  C   UNL     1       4.044   4.069  17.499  0.00  0.00    +0.000 C 
ATOM      7  O   UNL     1       3.220   5.239  17.599  0.00  0.00    +0.000 OA
ATOM      8  C   UNL     1       3.981   6.433  17.837  0.00  0.00    +0.000 C 
ATOM      9  C   UNL     1       4.971   6.703  16.685  0.00  0.00    +0.000 C 
ATOM     10  C   UNL     1       5.838   5.449  16.438  0.00  0.00    +0.000 C 
ATOM     11  C   UNL     1       4.977   4.181  16.295  0.00  0.00    +0.000 C 
BRANCH   9  12
ATOM     12  O   UNL     1       5.823   7.829  16.933  0.00  0.00    +0.000 OA
ATOM     13  H   UNL     1       6.742   7.531  17.061  0.00  0.00    +0.000 HD
ENDBRANCH   9  12
BRANCH  10  14
ATOM     14  O   UNL     1       6.674   5.614  15.288  0.00  0.00    +0.000 OA
ATOM     15  H   UNL     1       7.276   4.853  15.219  0.00  0.00    +0.000 HD
ENDBRANCH  10  14
BRANCH  11  16
ATOM     16  O   UNL     1       5.784   3.009  16.178  0.00  0.00    +0.000 OA
ATOM     17  H   UNL     1       5.657   2.450  16.966  0.00  0.00    +0.000 HD
ENDBRANCH  11  16
BRANCH   6  18
ATOM     18  C   UNL     1       3.110   2.860  17.391  0.00  0.00    +0.000 C 
BRANCH  18  19
ATOM     19  O   UNL     1       3.791   1.701  17.877  0.00  0.00    +0.000 OA
ATOM     20  H   UNL     1       3.384   0.938  17.425  0.00  0.00    +0.000 HD
ENDBRANCH  18  19
ENDBRANCH   6  18
ENDBRANCH   1   8
BRANCH   3  21
ATOM     21  C   UNL     1       0.602   9.784  19.549  0.00  0.00    +0.000 C 
BRANCH  21  22
ATOM     22  N   UNL     1       0.082  10.969  18.853  0.00  0.00    +0.000 N 
ATOM     23  H   UNL     1       0.650  11.781  19.069  0.00  0.00    +0.000 HD
BRANCH  22  24
ATOM     24  C   UNL     1      -1.284  11.308  19.011  0.00  0.00    +0.000 A 
ATOM     25  C   UNL     1      -2.211  11.042  17.956  0.00  0.00    +0.000 A 
ATOM     26  C   UNL     1      -1.839  10.313  16.803  0.00  0.00    +0.000 A 
ATOM     27  C   UNL     1      -2.737  10.080  15.764  0.00  0.00    +0.000 A 
ATOM     28  C   UNL     1      -4.035  10.557  15.866  0.00  0.00    +0.000 A 
ATOM     29  C   UNL     1      -4.426  11.250  17.012  0.00  0.00    +0.000 A 
ATOM     30  C   UNL     1      -3.549  11.508  18.059  0.00  0.00    +0.000 A 
ATOM     31  N   UNL     1      -4.031  12.197  19.096  0.00  0.00    +0.000 NA
ATOM     32  C   UNL     1      -3.185  12.358  20.139  0.00  0.00    +0.000 A 
ATOM     33  C   UNL     1      -1.878  11.893  20.134  0.00  0.00    +0.000 A 
ATOM     34  O   UNL     1      -1.305  12.121  21.356  0.00  0.00    +0.000 OA
ATOM     35  C   UNL     1      -2.241  12.741  22.127  0.00  0.00    +0.000 A 
ATOM     36  C   UNL     1      -2.089  13.077  23.470  0.00  0.00    +0.000 A 
ATOM     37  C   UNL     1      -3.154  13.760  24.065  0.00  0.00    +0.000 A 
ATOM     38  C   UNL     1      -4.282  14.129  23.326  0.00  0.00    +0.000 A 
ATOM     39  C   UNL     1      -4.416  13.754  21.982  0.00  0.00    +0.000 A 
ATOM     40  C   UNL     1      -3.388  13.003  21.386  0.00  0.00    +0.000 A 
ENDBRANCH  22  24
ENDBRANCH  21  22
ENDBRANCH   3  21
TORSDOF 9
ENDMDL
MODEL 4
REMARK VINA RESULT:      -8.5      1.242      2.499
REMARK  Name = 
REMARK  9 active torsions:
REMARK  status: ('A' for Active; 'I' for Inactive)
REMARK    1  A    between atoms: O_1  and  C_2
REMARK    2  A    between atoms: C_2  and  C_3
REMARK    3  A    between atoms: C_5  and  N_6
REMARK    4  A    between atoms: C_8  and  C_9
REMARK    5  A    between atoms: C_9  and  N_10
REMARK    6  A    between atoms: N_10  and  C_11
REMARK    7  A    between atoms: C_30  and  O_31
REMARK    8  A    between atoms: C_32  and  O_33
REMARK    9  A    between atoms: C_34  and  O_35
REMARK                            x       y       z     vdW  Elec       q    Type
REMARK                         _______ _______ _______ _____ _____    ______ ____
ROOT
ATOM      1  N   UNL     1       2.566   7.655  18.213  0.00  0.00    +0.000 N 
ATOM      2  C   UNL     1       1.900   7.958  19.368  0.00  0.00    +0.000 A 
ATOM      3  C   UNL     1       1.313   9.178  19.099  0.00  0.00    +0.000 A 
ATOM      4  N   UNL     1       1.652   9.565  17.829  0.00  0.00    +0.000 NA
ATOM      5  N   UNL     1       2.430   8.631  17.300  0.00  0.00    +0.000 NA
ENDROOT
BRANCH   1   8
ATOM      6  C   UNL     1       5.707   6.001  17.383  0.00  0.00    +0.000 C 
ATOM      7  O   UNL     1       4.773   7.019  17.769  0.00  0.00    +0.000 OA
ATOM      8  C   UNL     1       3.439   6.513  17.933  0.00  0.00    +0.000 C 
ATOM      9  C   UNL     1       3.381   5.438  19.037  0.00  0.00    +0.000 C 
ATOM     10  C   UNL     1       4.433   4.344  18.755  0.00  0.00    +0.000 C 
ATOM     11  C   UNL     1       5.823   4.947  18.483  0.00  0.00    +0.000 C 
BRANCH   9  12
ATOM     12  O   UNL     1       2.086   4.833  19.161  0.00  0.00    +0.000 OA
ATOM     13  H   UNL     1       1.706   4.676  18.278  0.00  0.00    +0.000 HD
ENDBRANCH   9  12
BRANCH  10  14
ATOM     14  O   UNL     1       4.503   3.401  19.830  0.00  0.00    +0.000 OA
ATOM     15  H   UNL     1       3.751   3.545  20.431  0.00  0.00    +0.000 HD
ENDBRANCH  10  14
BRANCH  11  16
ATOM     16  O   UNL     1       6.768   3.943  18.113  0.00  0.00    +0.000 OA
ATOM     17  H   UNL     1       6.971   4.024  17.164  0.00  0.00    +0.000 HD
ENDBRANCH  11  16
BRANCH   6  18
ATOM     18  C   UNL     1       7.045   6.691  17.104  0.00  0.00    +0.000 C 
BRANCH  18  19
ATOM     19  O   UNL     1       7.648   6.089  15.956  0.00  0.00    +0.000 OA
ATOM     20  H   UNL     1       7.122   5.292  15.759  0.00  0.00    +0.000 HD
ENDBRANCH  18  19
ENDBRANCH   6  18
ENDBRANCH   1   8
BRANCH   3  21
ATOM     21  C   UNL     1       0.432  10.038  19.961  0.00  0.00    +0.000 C 
BRANCH  21  22
ATOM     22  N   UNL     1      -0.066  11.266  19.326  0.00  0.00    +0.000 N 
ATOM     23  H   UNL     1       0.446  12.072  19.669  0.00  0.00    +0.000 HD
BRANCH  22  24
ATOM     24  C   UNL     1      -1.453  11.546  19.377  0.00  0.00    +0.000 A 
ATOM     25  C   UNL     1      -2.289  11.211  18.269  0.00  0.00    +0.000 A 
ATOM     26  C   UNL     1      -1.804  10.470  17.167  0.00  0.00    +0.000 A 
ATOM     27  C   UNL     1      -2.615  10.169  16.073  0.00  0.00    +0.000 A 
ATOM     28  C   UNL     1      -3.936  10.588  16.070  0.00  0.00    +0.000 A 
ATOM     29  C   UNL     1      -4.439  11.293  17.166  0.00  0.00    +0.000 A 
ATOM     30  C   UNL     1      -3.651  11.617  18.264  0.00  0.00    +0.000 A 
ATOM     31  N   UNL     1      -4.236  12.310  19.244  0.00  0.00    +0.000 NA
ATOM     32  C   UNL     1      -3.474  12.536  20.339  0.00  0.00    +0.000 A 
ATOM     33  C   UNL     1      -2.151  12.132  20.439  0.00  0.00    +0.000 A 
ATOM     34  O   UNL     1      -1.678  12.418  21.691  0.00  0.00    +0.000 OA
ATOM     35  C   UNL     1      -2.692  13.014  22.376  0.00  0.00    +0.000 A 
ATOM     36  C   UNL     1      -2.651  13.390  23.716  0.00  0.00    +0.000 A 
ATOM     37  C   UNL     1      -3.786  14.039  24.215  0.00  0.00    +0.000 A 
ATOM     38  C   UNL     1      -4.873  14.337  23.387  0.00  0.00    +0.000 A 
ATOM     39  C   UNL     1      -4.894  13.921  22.049  0.00  0.00    +0.000 A 
ATOM     40  C   UNL     1      -3.794  13.204  21.549  0.00  0.00    +0.000 A 
ENDBRANCH  22  24
ENDBRANCH  21  22
ENDBRANCH   3  21
TORSDOF 9
ENDMDL
MODEL 5
REMARK VINA RESULT:      -8.5      1.476      4.584
REMARK  Name = 
REMARK  9 active torsions:
REMARK  status: ('A' for Active; 'I' for Inactive)
REMARK    1  A    between atoms: O_1  and  C_2
REMARK    2  A    between atoms: C_2  and  C_3
REMARK    3  A    between atoms: C_5  and  N_6
REMARK    4  A    between atoms: C_8  and  C_9
REMARK    5  A    between atoms: C_9  and  N_10
REMARK    6  A    between atoms: N_10  and  C_11
REMARK    7  A    between atoms: C_30  and  O_31
REMARK    8  A    between atoms: C_32  and  O_33
REMARK    9  A    between atoms: C_34  and  O_35
REMARK                            x       y       z     vdW  Elec       q    Type
REMARK                         _______ _______ _______ _____ _____    ______ ____
ROOT
ATOM      1  N   UNL     1       1.984   7.224  19.726  0.00  0.00    +0.000 N 
ATOM      2  C   UNL     1       1.478   7.632  20.928  0.00  0.00    +0.000 A 
ATOM      3  C   UNL     1       1.121   8.947  20.705  0.00  0.00    +0.000 A 
ATOM      4  N   UNL     1       1.433   9.281  19.414  0.00  0.00    +0.000 NA
ATOM      5  N   UNL     1       1.974   8.222  18.827  0.00  0.00    +0.000 NA
ENDROOT
BRANCH   1   8
ATOM      6  C   UNL     1       4.711   4.981  18.815  0.00  0.00    +0.000 C 
ATOM      7  O   UNL     1       4.011   6.153  19.259  0.00  0.00    +0.000 OA
ATOM      8  C   UNL     1       2.596   5.940  19.379  0.00  0.00    +0.000 C 
ATOM      9  C   UNL     1       2.283   4.837  20.412  0.00  0.00    +0.000 C 
ATOM     10  C   UNL     1       3.079   3.560  20.068  0.00  0.00    +0.000 C 
ATOM     11  C   UNL     1       4.573   3.862  19.846  0.00  0.00    +0.000 C 
BRANCH   9  12
ATOM     12  O   UNL     1       0.886   4.521  20.486  0.00  0.00    +0.000 OA
ATOM     13  H   UNL     1       0.392   5.276  20.853  0.00  0.00    +0.000 HD
ENDBRANCH   9  12
BRANCH  10  14
ATOM     14  O   UNL     1       2.920   2.560  21.080  0.00  0.00    +0.000 OA
ATOM     15  H   UNL     1       2.336   1.857  20.746  0.00  0.00    +0.000 HD
ENDBRANCH  10  14
BRANCH  11  16
ATOM     16  O   UNL     1       5.285   2.701  19.419  0.00  0.00    +0.000 OA
ATOM     17  H   UNL     1       6.081   2.973  18.928  0.00  0.00    +0.000 HD
ENDBRANCH  11  16
BRANCH   6  18
ATOM     18  C   UNL     1       6.172   5.380  18.592  0.00  0.00    +0.000 C 
BRANCH  18  19
ATOM     19  O   UNL     1       6.889   5.225  19.819  0.00  0.00    +0.000 OA
ATOM     20  H   UNL     1       6.820   6.080  20.283  0.00  0.00    +0.000 HD
ENDBRANCH  18  19
ENDBRANCH   6  18
ENDBRANCH   1   8
BRANCH   3  21
ATOM     21  C   UNL     1       0.491   9.948  21.633  0.00  0.00    +0.000 C 
BRANCH  21  22
ATOM     22  N   UNL     1       0.450  11.330  21.135  0.00  0.00    +0.000 N 
ATOM     23  H   UNL     1       0.944  11.947  21.770  0.00  0.00    +0.000 HD
BRANCH  22  24
ATOM     24  C   UNL     1      -0.806  11.903  20.818  0.00  0.00    +0.000 A 
ATOM     25  C   UNL     1      -1.423  12.815  21.728  0.00  0.00    +0.000 A 
ATOM     26  C   UNL     1      -0.753  13.284  22.881  0.00  0.00    +0.000 A 
ATOM     27  C   UNL     1      -1.368  14.152  23.782  0.00  0.00    +0.000 A 
ATOM     28  C   UNL     1      -2.662  14.583  23.537  0.00  0.00    +0.000 A 
ATOM     29  C   UNL     1      -3.326  14.154  22.385  0.00  0.00    +0.000 A 
ATOM     30  C   UNL     1      -2.742  13.280  21.476  0.00  0.00    +0.000 A 
ATOM     31  N   UNL     1      -3.480  12.924  20.421  0.00  0.00    +0.000 NA
ATOM     32  C   UNL     1      -2.858  12.144  19.506  0.00  0.00    +0.000 A 
ATOM     33  C   UNL     1      -1.558  11.687  19.658  0.00  0.00    +0.000 A 
ATOM     34  O   UNL     1      -1.178  11.004  18.534  0.00  0.00    +0.000 OA
ATOM     35  C   UNL     1      -2.238  11.018  17.680  0.00  0.00    +0.000 A 
ATOM     36  C   UNL     1      -2.242  10.501  16.387  0.00  0.00    +0.000 A 
ATOM     37  C   UNL     1      -3.455  10.568  15.693  0.00  0.00    +0.000 A 
ATOM     38  C   UNL     1      -4.607  11.078  16.298  0.00  0.00    +0.000 A 
ATOM     39  C   UNL     1      -4.565  11.614  17.592  0.00  0.00    +0.000 A 
ATOM     40  C   UNL     1      -3.338  11.622  18.278  0.00  0.00    +0.000 A 
ENDBRANCH  22  24
ENDBRANCH  21  22
ENDBRANCH   3  21
TORSDOF 9
ENDMDL
MODEL 6
REMARK VINA RESULT:      -8.5      1.485      4.747
REMARK  Name = 
REMARK  9 active torsions:
REMARK  status: ('A' for Active; 'I' for Inactive)
REMARK    1  A    between atoms: O_1  and  C_2
REMARK    2  A    between atoms: C_2  and  C_3
REMARK    3  A    between atoms: C_5  and  N_6
REMARK    4  A    between atoms: C_8  and  C_9
REMARK    5  A    between atoms: C_9  and  N_10
REMARK    6  A    between atoms: N_10  and  C_11
REMARK    7  A    between atoms: C_30  and  O_31
REMARK    8  A    between atoms: C_32  and  O_33
REMARK    9  A    between atoms: C_34  and  O_35
REMARK                            x       y       z     vdW  Elec       q    Type
REMARK                         _______ _______ _______ _____ _____    ______ ____
ROOT
ATOM      1  N   UNL     1       2.867   7.307  18.423  0.00  0.00    +0.000 N 
ATOM      2  C   UNL     1       2.249   7.417  19.637  0.00  0.00    +0.000 A 
ATOM      3  C   UNL     1       1.489   8.564  19.516  0.00  0.00    +0.000 A 
ATOM      4  N   UNL     1       1.685   9.099  18.271  0.00  0.00    +0.000 NA
ATOM      5  N   UNL     1       2.541   8.328  17.614  0.00  0.00    +0.000 NA
ENDROOT
BRANCH   1   8
ATOM      6  C   UNL     1       6.180   6.143  17.443  0.00  0.00    +0.000 C 
ATOM      7  O   UNL     1       5.137   6.982  17.959  0.00  0.00    +0.000 OA
ATOM      8  C   UNL     1       3.861   6.323  17.988  0.00  0.00    +0.000 C 
ATOM      9  C   UNL     1       3.896   5.076  18.896  0.00  0.00    +0.000 C 
ATOM     10  C   UNL     1       5.064   4.158  18.474  0.00  0.00    +0.000 C 
ATOM     11  C   UNL     1       6.387   4.935  18.356  0.00  0.00    +0.000 C 
BRANCH   9  12
ATOM     12  O   UNL     1       2.671   4.331  18.869  0.00  0.00    +0.000 OA
ATOM     13  H   UNL     1       2.149   4.519  19.671  0.00  0.00    +0.000 HD
ENDBRANCH   9  12
BRANCH  10  14
ATOM     14  O   UNL     1       5.213   3.058  19.378  0.00  0.00    +0.000 OA
ATOM     15  H   UNL     1       4.575   3.156  20.108  0.00  0.00    +0.000 HD
ENDBRANCH  10  14
BRANCH  11  16
ATOM     16  O   UNL     1       7.439   4.109  17.859  0.00  0.00    +0.000 OA
ATOM     17  H   UNL     1       8.293   4.556  17.997  0.00  0.00    +0.000 HD
ENDBRANCH  11  16
BRANCH   6  18
ATOM     18  C   UNL     1       7.443   7.002  17.332  0.00  0.00    +0.000 C 
BRANCH  18  19
ATOM     19  O   UNL     1       8.142   6.965  18.579  0.00  0.00    +0.000 OA
ATOM     20  H   UNL     1       8.960   6.459  18.417  0.00  0.00    +0.000 HD
ENDBRANCH  18  19
ENDBRANCH   6  18
ENDBRANCH   1   8
BRANCH   3  21
ATOM     21  C   UNL     1       0.565   9.219  20.504  0.00  0.00    +0.000 C 
BRANCH  21  22
ATOM     22  N   UNL     1       0.534  10.687  20.459  0.00  0.00    +0.000 N 
ATOM     23  H   UNL     1       0.938  11.073  21.306  0.00  0.00    +0.000 HD
BRANCH  22  24
ATOM     24  C   UNL     1      -0.697  11.336  20.199  0.00  0.00    +0.000 A 
ATOM     25  C   UNL     1      -1.245  12.238  21.161  0.00  0.00    +0.000 A 
ATOM     26  C   UNL     1      -0.525  12.625  22.315  0.00  0.00    +0.000 A 
ATOM     27  C   UNL     1      -1.073  13.483  23.266  0.00  0.00    +0.000 A 
ATOM     28  C   UNL     1      -2.349  13.988  23.072  0.00  0.00    +0.000 A 
ATOM     29  C   UNL     1      -3.061  13.642  21.922  0.00  0.00    +0.000 A 
ATOM     30  C   UNL     1      -2.545  12.779  20.963  0.00  0.00    +0.000 A 
ATOM     31  N   UNL     1      -3.324  12.505  19.913  0.00  0.00    +0.000 NA
ATOM     32  C   UNL     1      -2.765  11.735  18.952  0.00  0.00    +0.000 A 
ATOM     33  C   UNL     1      -1.487  11.206  19.050  0.00  0.00    +0.000 A 
ATOM     34  O   UNL     1      -1.169  10.554  17.890  0.00  0.00    +0.000 OA
ATOM     35  C   UNL     1      -2.248  10.656  17.066  0.00  0.00    +0.000 A 
ATOM     36  C   UNL     1      -2.308  10.195  15.753  0.00  0.00    +0.000 A 
ATOM     37  C   UNL     1      -3.532  10.352  15.094  0.00  0.00    +0.000 A 
ATOM     38  C   UNL     1      -4.643  10.893  15.749  0.00  0.00    +0.000 A 
ATOM     39  C   UNL     1      -4.542  11.372  17.062  0.00  0.00    +0.000 A 
ATOM     40  C   UNL     1      -3.301  11.290  17.716  0.00  0.00    +0.000 A 
ENDBRANCH  22  24
ENDBRANCH  21  22
ENDBRANCH   3  21
TORSDOF 9
ENDMDL
MODEL 7
REMARK VINA RESULT:      -8.4      2.852      4.172
REMARK  Name = 
REMARK  9 active torsions:
REMARK  status: ('A' for Active; 'I' for Inactive)
REMARK    1  A    between atoms: O_1  and  C_2
REMARK    2  A    between atoms: C_2  and  C_3
REMARK    3  A    between atoms: C_5  and  N_6
REMARK    4  A    between atoms: C_8  and  C_9
REMARK    5  A    between atoms: C_9  and  N_10
REMARK    6  A    between atoms: N_10  and  C_11
REMARK    7  A    between atoms: C_30  and  O_31
REMARK    8  A    between atoms: C_32  and  O_33
REMARK    9  A    between atoms: C_34  and  O_35
REMARK                            x       y       z     vdW  Elec       q    Type
REMARK                         _______ _______ _______ _____ _____    ______ ____
ROOT
ATOM      1  N   UNL     1       2.750   7.097  18.757  0.00  0.00    +0.000 N 
ATOM      2  C   UNL     1       1.922   7.829  19.561  0.00  0.00    +0.000 A 
ATOM      3  C   UNL     1       1.622   8.941  18.799  0.00  0.00    +0.000 A 
ATOM      4  N   UNL     1       2.278   8.849  17.600  0.00  0.00    +0.000 NA
ATOM      5  N   UNL     1       2.976   7.722  17.590  0.00  0.00    +0.000 NA
ENDROOT
BRANCH   1   8
ATOM      6  C   UNL     1       3.025   3.574  19.656  0.00  0.00    +0.000 C 
ATOM      7  O   UNL     1       2.460   4.827  19.246  0.00  0.00    +0.000 OA
ATOM      8  C   UNL     1       3.452   5.849  19.062  0.00  0.00    +0.000 C 
ATOM      9  C   UNL     1       4.462   5.455  17.964  0.00  0.00    +0.000 C 
ATOM     10  C   UNL     1       5.050   4.061  18.273  0.00  0.00    +0.000 C 
ATOM     11  C   UNL     1       3.946   3.028  18.565  0.00  0.00    +0.000 C 
BRANCH   9  12
ATOM     12  O   UNL     1       5.530   6.401  17.822  0.00  0.00    +0.000 OA
ATOM     13  H   UNL     1       5.418   6.910  16.999  0.00  0.00    +0.000 HD
ENDBRANCH   9  12
BRANCH  10  14
ATOM     14  O   UNL     1       5.888   3.603  17.206  0.00  0.00    +0.000 OA
ATOM     15  H   UNL     1       6.808   3.557  17.520  0.00  0.00    +0.000 HD
ENDBRANCH  10  14
BRANCH  11  16
ATOM     16  O   UNL     1       4.494   1.771  18.959  0.00  0.00    +0.000 OA
ATOM     17  H   UNL     1       3.828   1.273  19.466  0.00  0.00    +0.000 HD
ENDBRANCH  11  16
BRANCH   6  18
ATOM     18  C   UNL     1       1.861   2.624  19.953  0.00  0.00    +0.000 C 
BRANCH  18  19
ATOM     19  O   UNL     1       1.651   1.777  18.820  0.00  0.00    +0.000 OA
ATOM     20  H   UNL     1       2.016   0.905  19.062  0.00  0.00    +0.000 HD
ENDBRANCH  18  19
ENDBRANCH   6  18
ENDBRANCH   1   8
BRANCH   3  21
ATOM     21  C   UNL     1       0.743  10.119  19.113  0.00  0.00    +0.000 C 
BRANCH  21  22
ATOM     22  N   UNL     1       1.060  10.826  20.361  0.00  0.00    +0.000 N 
ATOM     23  H   UNL     1       0.766  10.275  21.161  0.00  0.00    +0.000 HD
BRANCH  22  24
ATOM     24  C   UNL     1       0.604  12.156  20.525  0.00  0.00    +0.000 A 
ATOM     25  C   UNL     1      -0.449  12.441  21.448  0.00  0.00    +0.000 A 
ATOM     26  C   UNL     1      -0.962  11.454  22.320  0.00  0.00    +0.000 A 
ATOM     27  C   UNL     1      -2.008  11.726  23.200  0.00  0.00    +0.000 A 
ATOM     28  C   UNL     1      -2.551  13.001  23.237  0.00  0.00    +0.000 A 
ATOM     29  C   UNL     1      -2.034  13.996  22.405  0.00  0.00    +0.000 A 
ATOM     30  C   UNL     1      -0.999  13.750  21.510  0.00  0.00    +0.000 A 
ATOM     31  N   UNL     1      -0.600  14.773  20.751  0.00  0.00    +0.000 NA
ATOM     32  C   UNL     1       0.466  14.532  19.953  0.00  0.00    +0.000 A 
ATOM     33  C   UNL     1       1.087  13.295  19.870  0.00  0.00    +0.000 A 
ATOM     34  O   UNL     1       2.184  13.386  19.057  0.00  0.00    +0.000 OA
ATOM     35  C   UNL     1       2.249  14.672  18.615  0.00  0.00    +0.000 A 
ATOM     36  C   UNL     1       3.264  15.206  17.826  0.00  0.00    +0.000 A 
ATOM     37  C   UNL     1       3.113  16.540  17.435  0.00  0.00    +0.000 A 
ATOM     38  C   UNL     1       1.972  17.271  17.779  0.00  0.00    +0.000 A 
ATOM     39  C   UNL     1       0.979  16.713  18.596  0.00  0.00    +0.000 A 
ATOM     40  C   UNL     1       1.148  15.397  19.059  0.00  0.00    +0.000 A 
ENDBRANCH  22  24
ENDBRANCH  21  22
ENDBRANCH   3  21
TORSDOF 9
ENDMDL
MODEL 8
REMARK VINA RESULT:      -8.4      2.997      4.948
REMARK  Name = 
REMARK  9 active torsions:
REMARK  status: ('A' for Active; 'I' for Inactive)
REMARK    1  A    between atoms: O_1  and  C_2
REMARK    2  A    between atoms: C_2  and  C_3
REMARK    3  A    between atoms: C_5  and  N_6
REMARK    4  A    between atoms: C_8  and  C_9
REMARK    5  A    between atoms: C_9  and  N_10
REMARK    6  A    between atoms: N_10  and  C_11
REMARK    7  A    between atoms: C_30  and  O_31
REMARK    8  A    between atoms: C_32  and  O_33
REMARK    9  A    between atoms: C_34  and  O_35
REMARK                            x       y       z     vdW  Elec       q    Type
REMARK                         _______ _______ _______ _____ _____    ______ ____
ROOT
ATOM      1  N   UNL     1       3.008   7.528  18.006  0.00  0.00    +0.000 N 
ATOM      2  C   UNL     1       2.275   7.691  19.148  0.00  0.00    +0.000 A 
ATOM      3  C   UNL     1       1.535   8.831  18.903  0.00  0.00    +0.000 A 
ATOM      4  N   UNL     1       1.853   9.310  17.660  0.00  0.00    +0.000 NA
ATOM      5  N   UNL     1       2.766   8.512  17.124  0.00  0.00    +0.000 NA
ENDROOT
BRANCH   1   8
ATOM      6  C   UNL     1       6.406   6.308  17.495  0.00  0.00    +0.000 C 
ATOM      7  O   UNL     1       5.315   7.165  17.861  0.00  0.00    +0.000 OA
ATOM      8  C   UNL     1       4.037   6.527  17.714  0.00  0.00    +0.000 C 
ATOM      9  C   UNL     1       3.926   5.283  18.619  0.00  0.00    +0.000 C 
ATOM     10  C   UNL     1       5.125   4.344  18.363  0.00  0.00    +0.000 C 
ATOM     11  C   UNL     1       6.465   5.100  18.429  0.00  0.00    +0.000 C 
BRANCH   9  12
ATOM     12  O   UNL     1       2.704   4.557  18.424  0.00  0.00    +0.000 OA
ATOM     13  H   UNL     1       1.999   5.163  18.131  0.00  0.00    +0.000 HD
ENDBRANCH   9  12
BRANCH  10  14
ATOM     14  O   UNL     1       5.130   3.246  19.281  0.00  0.00    +0.000 OA
ATOM     15  H   UNL     1       4.216   2.939  19.417  0.00  0.00    +0.000 HD
ENDBRANCH  10  14
BRANCH  11  16
ATOM     16  O   UNL     1       7.562   4.256  18.083  0.00  0.00    +0.000 OA
ATOM     17  H   UNL     1       8.392   4.760  18.151  0.00  0.00    +0.000 HD
ENDBRANCH  11  16
BRANCH   6  18
ATOM     18  C   UNL     1       7.686   7.147  17.559  0.00  0.00    +0.000 C 
BRANCH  18  19
ATOM     19  O   UNL     1       8.294   6.970  18.841  0.00  0.00    +0.000 OA
ATOM     20  H   UNL     1       7.576   6.715  19.449  0.00  0.00    +0.000 HD
ENDBRANCH  18  19
ENDBRANCH   6  18
ENDBRANCH   1   8
BRANCH   3  21
ATOM     21  C   UNL     1       0.521   9.528  19.766  0.00  0.00    +0.000 C 
BRANCH  21  22
ATOM     22  N   UNL     1       1.076  10.394  20.815  0.00  0.00    +0.000 N 
ATOM     23  H   UNL     1       0.921   9.982  21.730  0.00  0.00    +0.000 HD
BRANCH  22  24
ATOM     24  C   UNL     1       0.688  11.755  20.852  0.00  0.00    +0.000 A 
ATOM     25  C   UNL     1      -0.409  12.163  21.671  0.00  0.00    +0.000 A 
ATOM     26  C   UNL     1      -1.039  11.271  22.570  0.00  0.00    +0.000 A 
ATOM     27  C   UNL     1      -2.127  11.664  23.348  0.00  0.00    +0.000 A 
ATOM     28  C   UNL     1      -2.595  12.965  23.255  0.00  0.00    +0.000 A 
ATOM     29  C   UNL     1      -1.963  13.866  22.396  0.00  0.00    +0.000 A 
ATOM     30  C   UNL     1      -0.885  13.500  21.600  0.00  0.00    +0.000 A 
ATOM     31  N   UNL     1      -0.374  14.442  20.803  0.00  0.00    +0.000 NA
ATOM     32  C   UNL     1       0.730  14.086  20.106  0.00  0.00    +0.000 A 
ATOM     33  C   UNL     1       1.282  12.815  20.156  0.00  0.00    +0.000 A 
ATOM     34  O   UNL     1       2.437  12.787  19.423  0.00  0.00    +0.000 OA
ATOM     35  C   UNL     1       2.608  14.032  18.898  0.00  0.00    +0.000 A 
ATOM     36  C   UNL     1       3.706  14.451  18.151  0.00  0.00    +0.000 A 
ATOM     37  C   UNL     1       3.661  15.759  17.658  0.00  0.00    +0.000 A 
ATOM     38  C   UNL     1       2.543  16.572  17.864  0.00  0.00    +0.000 A 
ATOM     39  C   UNL     1       1.464  16.130  18.642  0.00  0.00    +0.000 A 
ATOM     40  C   UNL     1       1.523  14.845  19.207  0.00  0.00    +0.000 A 
ENDBRANCH  22  24
ENDBRANCH  21  22
ENDBRANCH   3  21
TORSDOF 9
ENDMDL
MODEL 9
REMARK VINA RESULT:      -8.4      1.139      2.219
REMARK  Name = 
REMARK  9 active torsions:
REMARK  status: ('A' for Active; 'I' for Inactive)
REMARK    1  A    between atoms: O_1  and  C_2
REMARK    2  A    between atoms: C_2  and  C_3
REMARK    3  A    between atoms: C_5  and  N_6
REMARK    4  A    between atoms: C_8  and  C_9
REMARK    5  A    between atoms: C_9  and  N_10
REMARK    6  A    between atoms: N_10  and  C_11
REMARK    7  A    between atoms: C_30  and  O_31
REMARK    8  A    between atoms: C_32  and  O_33
REMARK    9  A    between atoms: C_34  and  O_35
REMARK                            x       y       z     vdW  Elec       q    Type
REMARK                         _______ _______ _______ _____ _____    ______ ____
ROOT
ATOM      1  N   UNL     1       2.190   7.142  19.002  0.00  0.00    +0.000 N 
ATOM      2  C   UNL     1       1.744   7.802  20.113  0.00  0.00    +0.000 A 
ATOM      3  C   UNL     1       1.399   9.051  19.637  0.00  0.00    +0.000 A 
ATOM      4  N   UNL     1       1.660   9.104  18.293  0.00  0.00    +0.000 NA
ATOM      5  N   UNL     1       2.156   7.933  17.917  0.00  0.00    +0.000 NA
ENDROOT
BRANCH   1   8
ATOM      6  C   UNL     1       4.869   4.692  18.666  0.00  0.00    +0.000 C 
ATOM      7  O   UNL     1       4.194   5.941  18.868  0.00  0.00    +0.000 OA
ATOM      8  C   UNL     1       2.765   5.799  18.905  0.00  0.00    +0.000 C 
ATOM      9  C   UNL     1       2.325   4.881  20.065  0.00  0.00    +0.000 C 
ATOM     10  C   UNL     1       3.084   3.539  19.984  0.00  0.00    +0.000 C 
ATOM     11  C   UNL     1       4.602   3.751  19.840  0.00  0.00    +0.000 C 
BRANCH   9  12
ATOM     12  O   UNL     1       0.913   4.630  20.072  0.00  0.00    +0.000 OA
ATOM     13  H   UNL     1       0.427   5.458  20.236  0.00  0.00    +0.000 HD
ENDBRANCH   9  12
BRANCH  10  14
ATOM     14  O   UNL     1       2.803   2.715  21.120  0.00  0.00    +0.000 OA
ATOM     15  H   UNL     1       2.079   2.103  20.900  0.00  0.00    +0.000 HD
ENDBRANCH  10  14
BRANCH  11  16
ATOM     16  O   UNL     1       5.289   2.514  19.654  0.00  0.00    +0.000 OA
ATOM     17  H   UNL     1       4.661   1.840  19.337  0.00  0.00    +0.000 HD
ENDBRANCH  11  16
BRANCH   6  18
ATOM     18  C   UNL     1       6.360   4.999  18.503  0.00  0.00    +0.000 C 
BRANCH  18  19
ATOM     19  O   UNL     1       6.943   5.170  19.798  0.00  0.00    +0.000 OA
ATOM     20  H   UNL     1       7.572   4.433  19.911  0.00  0.00    +0.000 HD
ENDBRANCH  18  19
ENDBRANCH   6  18
ENDBRANCH   1   8
BRANCH   3  21
ATOM     21  C   UNL     1       0.826  10.237  20.361  0.00  0.00    +0.000 C 
BRANCH  21  22
ATOM     22  N   UNL     1       0.274  11.294  19.502  0.00  0.00    +0.000 N 
ATOM     23  H   UNL     1       0.815  12.146  19.601  0.00  0.00    +0.000 HD
BRANCH  22  24
ATOM     24  C   UNL     1      -1.103  11.607  19.605  0.00  0.00    +0.000 A 
ATOM     25  C   UNL     1      -2.005  11.205  18.573  0.00  0.00    +0.000 A 
ATOM     26  C   UNL     1      -1.595  10.370  17.508  0.00  0.00    +0.000 A 
ATOM     27  C   UNL     1      -2.470  10.002  16.488  0.00  0.00    +0.000 A 
ATOM     28  C   UNL     1      -3.782  10.449  16.522  0.00  0.00    +0.000 A 
ATOM     29  C   UNL     1      -4.211  11.248  17.584  0.00  0.00    +0.000 A 
ATOM     30  C   UNL     1      -3.357  11.640  18.609  0.00  0.00    +0.000 A 
ATOM     31  N   UNL     1      -3.875  12.420  19.562  0.00  0.00    +0.000 NA
ATOM     32  C   UNL     1      -3.049  12.713  20.593  0.00  0.00    +0.000 A 
ATOM     33  C   UNL     1      -1.731  12.289  20.653  0.00  0.00    +0.000 A 
ATOM     34  O   UNL     1      -1.184  12.661  21.852  0.00  0.00    +0.000 OA
ATOM     35  C   UNL     1      -2.148  13.331  22.541  0.00  0.00    +0.000 A 
ATOM     36  C   UNL     1      -2.026  13.810  23.843  0.00  0.00    +0.000 A 
ATOM     37  C   UNL     1      -3.120  14.520  24.349  0.00  0.00    +0.000 A 
ATOM     38  C   UNL     1      -4.245  14.776  23.561  0.00  0.00    +0.000 A 
ATOM     39  C   UNL     1      -4.348  14.258  22.262  0.00  0.00    +0.000 A 
ATOM     40  C   UNL     1      -3.290  13.480  21.762  0.00  0.00    +0.000 A 
ENDBRANCH  22  24
ENDBRANCH  21  22
ENDBRANCH   3  21
TORSDOF 9
ENDMDL
