MODEL 1
REMARK VINA RESULT:      -7.3      0.000      0.000
REMARK  Name = 
REMARK  8 active torsions:
REMARK  status: ('A' for Active; 'I' for Inactive)
REMARK    1  A    between atoms: C_1  and  O_2
REMARK    2  A    between atoms: O_2  and  C_3
REMARK    3  A    between atoms: C_6  and  O_7
REMARK    4  A    between atoms: O_7  and  C_8
REMARK    5  A    between atoms: C_9  and  C_10
REMARK    6  A    between atoms: N_11  and  N_12
REMARK    7  A    between atoms: C_16  and  C_17
REMARK    8  A    between atoms: N_25  and  C_26
REMARK                            x       y       z     vdW  Elec       q    Type
REMARK                         _______ _______ _______ _____ _____    ______ ____
ROOT
ATOM      1  N   UNL     1       1.215   9.416  20.212  0.00  0.00    +0.000 NA
ATOM      2  C   UNL     1       0.422   9.849  21.148  0.00  0.00    +0.000 A 
ATOM      3  S   UNL     1       0.004   8.874  22.605  0.00  0.00    +0.000 S 
ATOM      4  C   UNL     1      -0.978  10.156  23.230  0.00  0.00    +0.000 A 
ATOM      5  C   UNL     1      -1.012  11.229  22.415  0.00  0.00    +0.000 A 
ATOM      6  N   UNL     1      -0.227  11.096  21.240  0.00  0.00    +0.000 N 
ENDROOT
BRANCH   5   7
ATOM      7  C   UNL     1      -1.864  12.366  22.739  0.00  0.00    +0.000 C 
ATOM      8  C   UNL     1      -3.199  12.304  22.616  0.00  0.00    +0.000 C 
ATOM      9  C   UNL     1      -4.066  13.470  22.856  0.00  0.00    +0.000 C 
ATOM     10  O   UNL     1      -5.277  13.411  22.689  0.00  0.00    +0.000 OA
ATOM     11  C   UNL     1      -3.421  14.721  23.293  0.00  0.00    +0.000 C 
ATOM     12  C   UNL     1      -2.099  14.796  23.454  0.00  0.00    +0.000 C 
ATOM     13  C   UNL     1      -1.225  13.636  23.196  0.00  0.00    +0.000 C 
ATOM     14  O   UNL     1      -0.009  13.750  23.352  0.00  0.00    +0.000 OA
ENDBRANCH   5   7
BRANCH   6  15
ATOM     15  C   UNL     1      -0.078  12.098  20.226  0.00  0.00    +0.000 A 
ATOM     16  C   UNL     1       0.931  13.076  20.285  0.00  0.00    +0.000 A 
ATOM     17  C   UNL     1       1.011  14.110  19.346  0.00  0.00    +0.000 A 
ATOM     18  C   UNL     1       0.123  14.152  18.279  0.00  0.00    +0.000 A 
ATOM     19  C   UNL     1      -0.845  13.162  18.154  0.00  0.00    +0.000 A 
ATOM     20  C   UNL     1      -0.950  12.157  19.122  0.00  0.00    +0.000 A 
ENDBRANCH   6  15
BRANCH   1  22
ATOM     21  C   UNL     1       2.150   7.639  19.263  0.00  0.00    +0.000 C 
ATOM     22  N   UNL     1       1.674   8.115  20.372  0.00  0.00    +0.000 NA
BRANCH  21  27
ATOM     23  C   UNL     1       2.881   4.119  20.332  0.00  0.00    +0.000 A 
ATOM     24  C   UNL     1       3.777   3.699  19.355  0.00  0.00    +0.000 A 
ATOM     25  C   UNL     1       4.127   4.549  18.301  0.00  0.00    +0.000 A 
ATOM     26  C   UNL     1       3.592   5.841  18.197  0.00  0.00    +0.000 A 
ATOM     27  C   UNL     1       2.695   6.270  19.184  0.00  0.00    +0.000 A 
ATOM     28  C   UNL     1       2.334   5.396  20.235  0.00  0.00    +0.000 A 
BRANCH  23  30
ATOM     29  C   UNL     1       1.299   2.765  21.480  0.00  0.00    +0.000 C 
ATOM     30  O   UNL     1       2.640   3.222  21.336  0.00  0.00    +0.000 OA
ENDBRANCH  23  30
BRANCH  26  31
ATOM     31  O   UNL     1       4.132   6.565  17.169  0.00  0.00    +0.000 OA
ATOM     32  C   UNL     1       5.527   6.838  17.198  0.00  0.00    +0.000 C 
ENDBRANCH  26  31
ENDBRANCH  21  27
ENDBRANCH   1  22
TORSDOF 6
ENDMDL
MODEL 2
REMARK VINA RESULT:      -7.3      1.698      3.172
REMARK  Name = 
REMARK  8 active torsions:
REMARK  status: ('A' for Active; 'I' for Inactive)
REMARK    1  A    between atoms: C_1  and  O_2
REMARK    2  A    between atoms: O_2  and  C_3
REMARK    3  A    between atoms: C_6  and  O_7
REMARK    4  A    between atoms: O_7  and  C_8
REMARK    5  A    between atoms: C_9  and  C_10
REMARK    6  A    between atoms: N_11  and  N_12
REMARK    7  A    between atoms: C_16  and  C_17
REMARK    8  A    between atoms: N_25  and  C_26
REMARK                            x       y       z     vdW  Elec       q    Type
REMARK                         _______ _______ _______ _____ _____    ______ ____
ROOT
ATOM      1  N   UNL     1       1.266   8.640  19.137  0.00  0.00    +0.000 NA
ATOM      2  C   UNL     1       0.976   9.178  20.285  0.00  0.00    +0.000 A 
ATOM      3  S   UNL     1       1.742   8.658  21.831  0.00  0.00    +0.000 S 
ATOM      4  C   UNL     1       0.844   9.843  22.720  0.00  0.00    +0.000 A 
ATOM      5  C   UNL     1       0.020  10.566  21.936  0.00  0.00    +0.000 A 
ATOM      6  N   UNL     1       0.076  10.227  20.560  0.00  0.00    +0.000 N 
ENDROOT
BRANCH   5   7
ATOM      7  C   UNL     1      -0.880  11.546  22.531  0.00  0.00    +0.000 C 
ATOM      8  C   UNL     1      -2.031  11.181  23.116  0.00  0.00    +0.000 C 
ATOM      9  C   UNL     1      -2.991  12.166  23.644  0.00  0.00    +0.000 C 
ATOM     10  O   UNL     1      -4.061  11.819  24.128  0.00  0.00    +0.000 OA
ATOM     11  C   UNL     1      -2.624  13.591  23.556  0.00  0.00    +0.000 C 
ATOM     12  C   UNL     1      -1.471  13.973  23.008  0.00  0.00    +0.000 C 
ATOM     13  C   UNL     1      -0.515  12.993  22.461  0.00  0.00    +0.000 C 
ATOM     14  O   UNL     1       0.537  13.389  21.959  0.00  0.00    +0.000 OA
ENDBRANCH   5   7
BRANCH   6  15
ATOM     15  C   UNL     1      -0.683  10.858  19.520  0.00  0.00    +0.000 A 
ATOM     16  C   UNL     1      -1.854  10.283  18.994  0.00  0.00    +0.000 A 
ATOM     17  C   UNL     1      -2.535  10.854  17.914  0.00  0.00    +0.000 A 
ATOM     18  C   UNL     1      -2.098  12.056  17.373  0.00  0.00    +0.000 A 
ATOM     19  C   UNL     1      -0.983  12.685  17.912  0.00  0.00    +0.000 A 
ATOM     20  C   UNL     1      -0.278  12.086  18.962  0.00  0.00    +0.000 A 
ENDBRANCH   6  15
BRANCH   1  22
ATOM     21  C   UNL     1       2.682   7.348  18.016  0.00  0.00    +0.000 C 
ATOM     22  N   UNL     1       2.165   7.583  19.182  0.00  0.00    +0.000 NA
BRANCH  21  27
ATOM     23  C   UNL     1       5.723   5.618  16.664  0.00  0.00    +0.000 A 
ATOM     24  C   UNL     1       5.549   4.318  17.127  0.00  0.00    +0.000 A 
ATOM     25  C   UNL     1       4.449   3.993  17.929  0.00  0.00    +0.000 A 
ATOM     26  C   UNL     1       3.497   4.958  18.287  0.00  0.00    +0.000 A 
ATOM     27  C   UNL     1       3.666   6.266  17.815  0.00  0.00    +0.000 A 
ATOM     28  C   UNL     1       4.790   6.587  17.021  0.00  0.00    +0.000 A 
BRANCH  23  30
ATOM     29  C   UNL     1       7.105   4.787  14.916  0.00  0.00    +0.000 C 
ATOM     30  O   UNL     1       6.810   5.815  15.857  0.00  0.00    +0.000 OA
ENDBRANCH  23  30
BRANCH  26  31
ATOM     31  O   UNL     1       2.438   4.435  18.978  0.00  0.00    +0.000 OA
ATOM     32  C   UNL     1       1.512   3.618  18.274  0.00  0.00    +0.000 C 
ENDBRANCH  26  31
ENDBRANCH  21  27
ENDBRANCH   1  22
TORSDOF 6
ENDMDL
MODEL 3
REMARK VINA RESULT:      -7.3      0.657      1.065
REMARK  Name = 
REMARK  8 active torsions:
REMARK  status: ('A' for Active; 'I' for Inactive)
REMARK    1  A    between atoms: C_1  and  O_2
REMARK    2  A    between atoms: O_2  and  C_3
REMARK    3  A    between atoms: C_6  and  O_7
REMARK    4  A    between atoms: O_7  and  C_8
REMARK    5  A    between atoms: C_9  and  C_10
REMARK    6  A    between atoms: N_11  and  N_12
REMARK    7  A    between atoms: C_16  and  C_17
REMARK    8  A    between atoms: N_25  and  C_26
REMARK                            x       y       z     vdW  Elec       q    Type
REMARK                         _______ _______ _______ _____ _____    ______ ____
ROOT
ATOM      1  N   UNL     1       1.148   9.973  20.540  0.00  0.00    +0.000 NA
ATOM      2  C   UNL     1       0.243  10.375  21.384  0.00  0.00    +0.000 A 
ATOM      3  S   UNL     1      -0.333   9.360  22.758  0.00  0.00    +0.000 S 
ATOM      4  C   UNL     1      -1.399  10.618  23.290  0.00  0.00    +0.000 A 
ATOM      5  C   UNL     1      -1.349  11.709  22.502  0.00  0.00    +0.000 A 
ATOM      6  N   UNL     1      -0.428  11.613  21.426  0.00  0.00    +0.000 N 
ENDROOT
BRANCH   5   7
ATOM      7  C   UNL     1      -2.248  12.830  22.748  0.00  0.00    +0.000 C 
ATOM      8  C   UNL     1      -3.511  12.832  22.294  0.00  0.00    +0.000 C 
ATOM      9  C   UNL     1      -4.403  13.993  22.460  0.00  0.00    +0.000 C 
ATOM     10  O   UNL     1      -5.535  13.999  21.993  0.00  0.00    +0.000 OA
ATOM     11  C   UNL     1      -3.879  15.156  23.196  0.00  0.00    +0.000 C 
ATOM     12  C   UNL     1      -2.639  15.162  23.685  0.00  0.00    +0.000 C 
ATOM     13  C   UNL     1      -1.735  14.011  23.505  0.00  0.00    +0.000 C 
ATOM     14  O   UNL     1      -0.595  14.059  23.968  0.00  0.00    +0.000 OA
ENDBRANCH   5   7
BRANCH   6  15
ATOM     15  C   UNL     1      -0.172  12.640  20.461  0.00  0.00    +0.000 A 
ATOM     16  C   UNL     1      -0.806  12.662  19.205  0.00  0.00    +0.000 A 
ATOM     17  C   UNL     1      -0.479  13.610  18.230  0.00  0.00    +0.000 A 
ATOM     18  C   UNL     1       0.445  14.607  18.512  0.00  0.00    +0.000 A 
ATOM     19  C   UNL     1       1.041  14.655  19.766  0.00  0.00    +0.000 A 
ATOM     20  C   UNL     1       0.745  13.676  20.721  0.00  0.00    +0.000 A 
ENDBRANCH   6  15
BRANCH   1  22
ATOM     21  C   UNL     1       1.875   8.101  19.592  0.00  0.00    +0.000 C 
ATOM     22  N   UNL     1       1.601   8.673  20.723  0.00  0.00    +0.000 NA
BRANCH  21  27
ATOM     23  C   UNL     1       2.506   4.580  20.720  0.00  0.00    +0.000 A 
ATOM     24  C   UNL     1       3.369   4.110  19.737  0.00  0.00    +0.000 A 
ATOM     25  C   UNL     1       3.729   4.927  18.659  0.00  0.00    +0.000 A 
ATOM     26  C   UNL     1       3.236   6.234  18.538  0.00  0.00    +0.000 A 
ATOM     27  C   UNL     1       2.372   6.713  19.532  0.00  0.00    +0.000 A 
ATOM     28  C   UNL     1       2.001   5.873  20.606  0.00  0.00    +0.000 A 
BRANCH  23  30
ATOM     29  C   UNL     1       1.333   2.657  21.482  0.00  0.00    +0.000 C 
ATOM     30  O   UNL     1       2.253   3.712  21.746  0.00  0.00    +0.000 OA
ENDBRANCH  23  30
BRANCH  26  31
ATOM     31  O   UNL     1       3.782   6.918  17.487  0.00  0.00    +0.000 OA
ATOM     32  C   UNL     1       5.123   6.626  17.116  0.00  0.00    +0.000 C 
ENDBRANCH  26  31
ENDBRANCH  21  27
ENDBRANCH   1  22
TORSDOF 6
ENDMDL
MODEL 4
REMARK VINA RESULT:      -7.3      0.937      1.628
REMARK  Name = 
REMARK  8 active torsions:
REMARK  status: ('A' for Active; 'I' for Inactive)
REMARK    1  A    between atoms: C_1  and  O_2
REMARK    2  A    between atoms: O_2  and  C_3
REMARK    3  A    between atoms: C_6  and  O_7
REMARK    4  A    between atoms: O_7  and  C_8
REMARK    5  A    between atoms: C_9  and  C_10
REMARK    6  A    between atoms: N_11  and  N_12
REMARK    7  A    between atoms: C_16  and  C_17
REMARK    8  A    between atoms: N_25  and  C_26
REMARK                            x       y       z     vdW  Elec       q    Type
REMARK                         _______ _______ _______ _____ _____    ______ ____
ROOT
ATOM      1  N   UNL     1       1.046   9.893  20.499  0.00  0.00    +0.000 NA
ATOM      2  C   UNL     1       0.236  10.376  21.395  0.00  0.00    +0.000 A 
ATOM      3  S   UNL     1      -0.441   9.385  22.739  0.00  0.00    +0.000 S 
ATOM      4  C   UNL     1      -1.296  10.753  23.370  0.00  0.00    +0.000 A 
ATOM      5  C   UNL     1      -1.110  11.865  22.633  0.00  0.00    +0.000 A 
ATOM      6  N   UNL     1      -0.247  11.694  21.520  0.00  0.00    +0.000 N 
ENDROOT
BRANCH   5   7
ATOM      7  C   UNL     1      -1.829  13.090  22.965  0.00  0.00    +0.000 C 
ATOM      8  C   UNL     1      -1.225  14.114  23.588  0.00  0.00    +0.000 C 
ATOM      9  C   UNL     1      -1.959  15.321  24.007  0.00  0.00    +0.000 C 
ATOM     10  O   UNL     1      -1.404  16.223  24.621  0.00  0.00    +0.000 OA
ATOM     11  C   UNL     1      -3.392  15.398  23.674  0.00  0.00    +0.000 C 
ATOM     12  C   UNL     1      -4.004  14.406  23.027  0.00  0.00    +0.000 C 
ATOM     13  C   UNL     1      -3.279  13.188  22.622  0.00  0.00    +0.000 C 
ATOM     14  O   UNL     1      -3.884  12.293  22.030  0.00  0.00    +0.000 OA
ENDBRANCH   5   7
BRANCH   6  15
ATOM     15  C   UNL     1       0.127  12.723  20.596  0.00  0.00    +0.000 A 
ATOM     16  C   UNL     1       1.275  13.515  20.783  0.00  0.00    +0.000 A 
ATOM     17  C   UNL     1       1.581  14.582  19.932  0.00  0.00    +0.000 A 
ATOM     18  C   UNL     1       0.782  14.841  18.826  0.00  0.00    +0.000 A 
ATOM     19  C   UNL     1      -0.322  14.036  18.574  0.00  0.00    +0.000 A 
ATOM     20  C   UNL     1      -0.650  13.000  19.455  0.00  0.00    +0.000 A 
ENDBRANCH   6  15
BRANCH   1  22
ATOM     21  C   UNL     1       2.002   8.104  19.594  0.00  0.00    +0.000 C 
ATOM     22  N   UNL     1       1.310   8.533  20.603  0.00  0.00    +0.000 NA
BRANCH  21  27
ATOM     23  C   UNL     1       2.475   4.530  20.628  0.00  0.00    +0.000 A 
ATOM     24  C   UNL     1       3.241   4.024  19.584  0.00  0.00    +0.000 A 
ATOM     25  C   UNL     1       3.581   4.836  18.496  0.00  0.00    +0.000 A 
ATOM     26  C   UNL     1       3.167   6.174  18.426  0.00  0.00    +0.000 A 
ATOM     27  C   UNL     1       2.403   6.688  19.482  0.00  0.00    +0.000 A 
ATOM     28  C   UNL     1       2.049   5.854  20.566  0.00  0.00    +0.000 A 
BRANCH  23  30
ATOM     29  C   UNL     1       1.426   2.526  21.362  0.00  0.00    +0.000 C 
ATOM     30  O   UNL     1       2.234   3.661  21.657  0.00  0.00    +0.000 OA
ENDBRANCH  23  30
BRANCH  26  31
ATOM     31  O   UNL     1       3.686   6.840  17.351  0.00  0.00    +0.000 OA
ATOM     32  C   UNL     1       5.071   6.688  17.068  0.00  0.00    +0.000 C 
ENDBRANCH  26  31
ENDBRANCH  21  27
ENDBRANCH   1  22
TORSDOF 6
ENDMDL
MODEL 5
REMARK VINA RESULT:      -7.3      1.401      1.675
REMARK  Name = 
REMARK  8 active torsions:
REMARK  status: ('A' for Active; 'I' for Inactive)
REMARK    1  A    between atoms: C_1  and  O_2
REMARK    2  A    between atoms: O_2  and  C_3
REMARK    3  A    between atoms: C_6  and  O_7
REMARK    4  A    between atoms: O_7  and  C_8
REMARK    5  A    between atoms: C_9  and  C_10
REMARK    6  A    between atoms: N_11  and  N_12
REMARK    7  A    between atoms: C_16  and  C_17
REMARK    8  A    between atoms: N_25  and  C_26
REMARK                            x       y       z     vdW  Elec       q    Type
REMARK                         _______ _______ _______ _____ _____    ______ ____
ROOT
ATOM      1  N   UNL     1       1.449   8.979  19.353  0.00  0.00    +0.000 NA
ATOM      2  C   UNL     1       0.941   9.358  20.490  0.00  0.00    +0.000 A 
ATOM      3  S   UNL     1       1.154   8.425  22.017  0.00  0.00    +0.000 S 
ATOM      4  C   UNL     1       0.247   9.601  22.908  0.00  0.00    +0.000 A 
ATOM      5  C   UNL     1      -0.199  10.609  22.133  0.00  0.00    +0.000 A 
ATOM      6  N   UNL     1       0.181  10.511  20.769  0.00  0.00    +0.000 N 
ENDROOT
BRANCH   5   7
ATOM      7  C   UNL     1      -1.059  11.641  22.700  0.00  0.00    +0.000 C 
ATOM      8  C   UNL     1      -2.298  11.363  23.137  0.00  0.00    +0.000 C 
ATOM      9  C   UNL     1      -3.209  12.410  23.632  0.00  0.00    +0.000 C 
ATOM     10  O   UNL     1      -4.353  12.148  23.978  0.00  0.00    +0.000 OA
ATOM     11  C   UNL     1      -2.698  13.791  23.682  0.00  0.00    +0.000 C 
ATOM     12  C   UNL     1      -1.460  14.083  23.283  0.00  0.00    +0.000 C 
ATOM     13  C   UNL     1      -0.551  13.043  22.770  0.00  0.00    +0.000 C 
ATOM     14  O   UNL     1       0.583  13.357  22.407  0.00  0.00    +0.000 OA
ENDBRANCH   5   7
BRANCH   6  15
ATOM     15  C   UNL     1      -0.147  11.461  19.748  0.00  0.00    +0.000 A 
ATOM     16  C   UNL     1      -1.340  11.380  19.007  0.00  0.00    +0.000 A 
ATOM     17  C   UNL     1      -1.609  12.250  17.945  0.00  0.00    +0.000 A 
ATOM     18  C   UNL     1      -0.720  13.272  17.641  0.00  0.00    +0.000 A 
ATOM     19  C   UNL     1       0.436  13.423  18.396  0.00  0.00    +0.000 A 
ATOM     20  C   UNL     1       0.723  12.520  19.426  0.00  0.00    +0.000 A 
ENDBRANCH   6  15
BRANCH   1  22
ATOM     21  C   UNL     1       2.254   7.274  18.180  0.00  0.00    +0.000 C 
ATOM     22  N   UNL     1       2.118   7.762  19.374  0.00  0.00    +0.000 NA
BRANCH  21  27
ATOM     23  C   UNL     1       2.724   3.554  18.110  0.00  0.00    +0.000 A 
ATOM     24  C   UNL     1       4.070   3.437  17.780  0.00  0.00    +0.000 A 
ATOM     25  C   UNL     1       4.841   4.578  17.531  0.00  0.00    +0.000 A 
ATOM     26  C   UNL     1       4.286   5.864  17.608  0.00  0.00    +0.000 A 
ATOM     27  C   UNL     1       2.933   5.984  17.949  0.00  0.00    +0.000 A 
ATOM     28  C   UNL     1       2.160   4.824  18.180  0.00  0.00    +0.000 A 
BRANCH  23  30
ATOM     29  C   UNL     1       0.750   2.473  18.878  0.00  0.00    +0.000 C 
ATOM     30  O   UNL     1       2.077   2.377  18.370  0.00  0.00    +0.000 OA
ENDBRANCH  23  30
BRANCH  26  31
ATOM     31  O   UNL     1       5.212   6.858  17.445  0.00  0.00    +0.000 OA
ATOM     32  C   UNL     1       6.590   6.508  17.481  0.00  0.00    +0.000 C 
ENDBRANCH  26  31
ENDBRANCH  21  27
ENDBRANCH   1  22
TORSDOF 6
ENDMDL
MODEL 6
REMARK VINA RESULT:      -7.3      1.644      2.926
REMARK  Name = 
REMARK  8 active torsions:
REMARK  status: ('A' for Active; 'I' for Inactive)
REMARK    1  A    between atoms: C_1  and  O_2
REMARK    2  A    between atoms: O_2  and  C_3
REMARK    3  A    between atoms: C_6  and  O_7
REMARK    4  A    between atoms: O_7  and  C_8
REMARK    5  A    between atoms: C_9  and  C_10
REMARK    6  A    between atoms: N_11  and  N_12
REMARK    7  A    between atoms: C_16  and  C_17
REMARK    8  A    between atoms: N_25  and  C_26
REMARK                            x       y       z     vdW  Elec       q    Type
REMARK                         _______ _______ _______ _____ _____    ______ ____
ROOT
ATOM      1  N   UNL     1       1.376   8.599  19.201  0.00  0.00    +0.000 NA
ATOM      2  C   UNL     1       1.041   9.133  20.339  0.00  0.00    +0.000 A 
ATOM      3  S   UNL     1       1.698   8.564  21.918  0.00  0.00    +0.000 S 
ATOM      4  C   UNL     1       0.797   9.771  22.772  0.00  0.00    +0.000 A 
ATOM      5  C   UNL     1       0.048  10.536  21.954  0.00  0.00    +0.000 A 
ATOM      6  N   UNL     1       0.168  10.213  20.578  0.00  0.00    +0.000 N 
ENDROOT
BRANCH   5   7
ATOM      7  C   UNL     1      -0.847  11.544  22.511  0.00  0.00    +0.000 C 
ATOM      8  C   UNL     1      -2.018  11.211  23.076  0.00  0.00    +0.000 C 
ATOM      9  C   UNL     1      -2.970  12.224  23.565  0.00  0.00    +0.000 C 
ATOM     10  O   UNL     1      -4.057  11.906  24.029  0.00  0.00    +0.000 OA
ATOM     11  C   UNL     1      -2.573  13.639  23.462  0.00  0.00    +0.000 C 
ATOM     12  C   UNL     1      -1.399  13.990  22.935  0.00  0.00    +0.000 C 
ATOM     13  C   UNL     1      -0.451  12.982  22.427  0.00  0.00    +0.000 C 
ATOM     14  O   UNL     1       0.620  13.349  21.944  0.00  0.00    +0.000 OA
ENDBRANCH   5   7
BRANCH   6  15
ATOM     15  C   UNL     1      -0.504  10.887  19.506  0.00  0.00    +0.000 A 
ATOM     16  C   UNL     1      -0.043  12.110  18.985  0.00  0.00    +0.000 A 
ATOM     17  C   UNL     1      -0.757  12.811  18.009  0.00  0.00    +0.000 A 
ATOM     18  C   UNL     1      -1.920  12.273  17.476  0.00  0.00    +0.000 A 
ATOM     19  C   UNL     1      -2.369  11.035  17.920  0.00  0.00    +0.000 A 
ATOM     20  C   UNL     1      -1.676  10.359  18.931  0.00  0.00    +0.000 A 
ENDBRANCH   6  15
BRANCH   1  22
ATOM     21  C   UNL     1       2.390   6.943  18.124  0.00  0.00    +0.000 C 
ATOM     22  N   UNL     1       2.229   7.507  19.281  0.00  0.00    +0.000 NA
BRANCH  21  27
ATOM     23  C   UNL     1       5.451   4.965  17.236  0.00  0.00    +0.000 A 
ATOM     24  C   UNL     1       5.003   3.656  17.381  0.00  0.00    +0.000 A 
ATOM     25  C   UNL     1       3.699   3.397  17.814  0.00  0.00    +0.000 A 
ATOM     26  C   UNL     1       2.808   4.438  18.112  0.00  0.00    +0.000 A 
ATOM     27  C   UNL     1       3.254   5.758  17.960  0.00  0.00    +0.000 A 
ATOM     28  C   UNL     1       4.579   6.008  17.539  0.00  0.00    +0.000 A 
BRANCH  23  30
ATOM     29  C   UNL     1       6.965   4.718  15.419  0.00  0.00    +0.000 C 
ATOM     30  O   UNL     1       6.729   5.102  16.770  0.00  0.00    +0.000 OA
ENDBRANCH  23  30
BRANCH  26  31
ATOM     31  O   UNL     1       1.548   3.997  18.411  0.00  0.00    +0.000 OA
ATOM     32  C   UNL     1       1.222   3.762  19.774  0.00  0.00    +0.000 C 
ENDBRANCH  26  31
ENDBRANCH  21  27
ENDBRANCH   1  22
TORSDOF 6
ENDMDL
MODEL 7
REMARK VINA RESULT:      -7.1      1.614      2.678
REMARK  Name = 
REMARK  8 active torsions:
REMARK  status: ('A' for Active; 'I' for Inactive)
REMARK    1  A    between atoms: C_1  and  O_2
REMARK    2  A    between atoms: O_2  and  C_3
REMARK    3  A    between atoms: C_6  and  O_7
REMARK    4  A    between atoms: O_7  and  C_8
REMARK    5  A    between atoms: C_9  and  C_10
REMARK    6  A    between atoms: N_11  and  N_12
REMARK    7  A    between atoms: C_16  and  C_17
REMARK    8  A    between atoms: N_25  and  C_26
REMARK                            x       y       z     vdW  Elec       q    Type
REMARK                         _______ _______ _______ _____ _____    ______ ____
ROOT
ATOM      1  N   UNL     1       1.297   8.610  19.693  0.00  0.00    +0.000 NA
ATOM      2  C   UNL     1       0.886   9.232  20.759  0.00  0.00    +0.000 A 
ATOM      3  S   UNL     1       1.440   8.799  22.419  0.00  0.00    +0.000 S 
ATOM      4  C   UNL     1       0.480  10.065  23.111  0.00  0.00    +0.000 A 
ATOM      5  C   UNL     1      -0.216  10.753  22.185  0.00  0.00    +0.000 A 
ATOM      6  N   UNL     1      -0.005  10.319  20.851  0.00  0.00    +0.000 N 
ENDROOT
BRANCH   5   7
ATOM      7  C   UNL     1      -1.149  11.795  22.599  0.00  0.00    +0.000 C 
ATOM      8  C   UNL     1      -2.410  11.509  22.961  0.00  0.00    +0.000 C 
ATOM      9  C   UNL     1      -3.387  12.558  23.297  0.00  0.00    +0.000 C 
ATOM     10  O   UNL     1      -4.548  12.283  23.574  0.00  0.00    +0.000 OA
ATOM     11  C   UNL     1      -2.923  13.956  23.274  0.00  0.00    +0.000 C 
ATOM     12  C   UNL     1      -1.666  14.260  22.950  0.00  0.00    +0.000 C 
ATOM     13  C   UNL     1      -0.689  13.215  22.594  0.00  0.00    +0.000 C 
ATOM     14  O   UNL     1       0.461  13.540  22.295  0.00  0.00    +0.000 OA
ENDBRANCH   5   7
BRANCH   6  15
ATOM     15  C   UNL     1      -0.608  10.897  19.687  0.00  0.00    +0.000 A 
ATOM     16  C   UNL     1      -1.631  10.247  18.973  0.00  0.00    +0.000 A 
ATOM     17  C   UNL     1      -2.148  10.769  17.783  0.00  0.00    +0.000 A 
ATOM     18  C   UNL     1      -1.700  11.995  17.309  0.00  0.00    +0.000 A 
ATOM     19  C   UNL     1      -0.738  12.697  18.025  0.00  0.00    +0.000 A 
ATOM     20  C   UNL     1      -0.191  12.147  19.190  0.00  0.00    +0.000 A 
ENDBRANCH   6  15
BRANCH   1  22
ATOM     21  C   UNL     1       2.232   6.769  18.875  0.00  0.00    +0.000 C 
ATOM     22  N   UNL     1       2.147   7.535  19.918  0.00  0.00    +0.000 NA
BRANCH  21  27
ATOM     23  C   UNL     1       5.363   4.713  19.061  0.00  0.00    +0.000 A 
ATOM     24  C   UNL     1       4.900   3.446  18.723  0.00  0.00    +0.000 A 
ATOM     25  C   UNL     1       3.541   3.233  18.469  0.00  0.00    +0.000 A 
ATOM     26  C   UNL     1       2.611   4.280  18.543  0.00  0.00    +0.000 A 
ATOM     27  C   UNL     1       3.077   5.559  18.876  0.00  0.00    +0.000 A 
ATOM     28  C   UNL     1       4.449   5.759  19.149  0.00  0.00    +0.000 A 
BRANCH  23  30
ATOM     29  C   UNL     1       7.491   5.223  18.129  0.00  0.00    +0.000 C 
ATOM     30  O   UNL     1       6.714   4.815  19.251  0.00  0.00    +0.000 OA
ENDBRANCH  23  30
BRANCH  26  31
ATOM     31  O   UNL     1       1.353   3.910  18.154  0.00  0.00    +0.000 OA
ATOM     32  C   UNL     1       0.794   2.730  18.718  0.00  0.00    +0.000 C 
ENDBRANCH  26  31
ENDBRANCH  21  27
ENDBRANCH   1  22
TORSDOF 6
ENDMDL
MODEL 8
REMARK VINA RESULT:      -7.1      1.127      2.566
REMARK  Name = 
REMARK  8 active torsions:
REMARK  status: ('A' for Active; 'I' for Inactive)
REMARK    1  A    between atoms: C_1  and  O_2
REMARK    2  A    between atoms: O_2  and  C_3
REMARK    3  A    between atoms: C_6  and  O_7
REMARK    4  A    between atoms: O_7  and  C_8
REMARK    5  A    between atoms: C_9  and  C_10
REMARK    6  A    between atoms: N_11  and  N_12
REMARK    7  A    between atoms: C_16  and  C_17
REMARK    8  A    between atoms: N_25  and  C_26
REMARK                            x       y       z     vdW  Elec       q    Type
REMARK                         _______ _______ _______ _____ _____    ______ ____
ROOT
ATOM      1  N   UNL     1       1.438   8.948  19.735  0.00  0.00    +0.000 NA
ATOM      2  C   UNL     1       0.861   9.394  20.812  0.00  0.00    +0.000 A 
ATOM      3  S   UNL     1       0.939   8.531  22.392  0.00  0.00    +0.000 S 
ATOM      4  C   UNL     1       0.003   9.769  23.160  0.00  0.00    +0.000 A 
ATOM      5  C   UNL     1      -0.360  10.748  22.308  0.00  0.00    +0.000 A 
ATOM      6  N   UNL     1       0.113  10.576  20.982  0.00  0.00    +0.000 N 
ENDROOT
BRANCH   5   7
ATOM      7  C   UNL     1      -1.231  11.826  22.763  0.00  0.00    +0.000 C 
ATOM      8  C   UNL     1      -2.506  11.599  23.117  0.00  0.00    +0.000 C 
ATOM      9  C   UNL     1      -3.422  12.690  23.494  0.00  0.00    +0.000 C 
ATOM     10  O   UNL     1      -4.596  12.472  23.764  0.00  0.00    +0.000 OA
ATOM     11  C   UNL     1      -2.878  14.058  23.523  0.00  0.00    +0.000 C 
ATOM     12  C   UNL     1      -1.605  14.302  23.207  0.00  0.00    +0.000 C 
ATOM     13  C   UNL     1      -0.690  13.217  22.810  0.00  0.00    +0.000 C 
ATOM     14  O   UNL     1       0.477  13.485  22.521  0.00  0.00    +0.000 OA
ENDBRANCH   5   7
BRANCH   6  15
ATOM     15  C   UNL     1      -0.115  11.483  19.896  0.00  0.00    +0.000 A 
ATOM     16  C   UNL     1       0.827  12.459  19.526  0.00  0.00    +0.000 A 
ATOM     17  C   UNL     1       0.558  13.405  18.531  0.00  0.00    +0.000 A 
ATOM     18  C   UNL     1      -0.640  13.355  17.830  0.00  0.00    +0.000 A 
ATOM     19  C   UNL     1      -1.566  12.362  18.125  0.00  0.00    +0.000 A 
ATOM     20  C   UNL     1      -1.311  11.448  19.153  0.00  0.00    +0.000 A 
ENDBRANCH   6  15
BRANCH   1  22
ATOM     21  C   UNL     1       2.232   7.147  18.707  0.00  0.00    +0.000 C 
ATOM     22  N   UNL     1       2.071   7.719  19.860  0.00  0.00    +0.000 NA
BRANCH  21  27
ATOM     23  C   UNL     1       4.364   4.441  17.226  0.00  0.00    +0.000 A 
ATOM     24  C   UNL     1       4.065   3.355  18.041  0.00  0.00    +0.000 A 
ATOM     25  C   UNL     1       3.188   3.501  19.122  0.00  0.00    +0.000 A 
ATOM     26  C   UNL     1       2.588   4.734  19.413  0.00  0.00    +0.000 A 
ATOM     27  C   UNL     1       2.882   5.827  18.587  0.00  0.00    +0.000 A 
ATOM     28  C   UNL     1       3.783   5.673  17.510  0.00  0.00    +0.000 A 
BRANCH  23  30
ATOM     29  C   UNL     1       5.899   5.285  15.616  0.00  0.00    +0.000 C 
ATOM     30  O   UNL     1       5.202   4.176  16.177  0.00  0.00    +0.000 OA
ENDBRANCH  23  30
BRANCH  26  31
ATOM     31  O   UNL     1       1.678   4.660  20.432  0.00  0.00    +0.000 OA
ATOM     32  C   UNL     1       1.254   3.374  20.864  0.00  0.00    +0.000 C 
ENDBRANCH  26  31
ENDBRANCH  21  27
ENDBRANCH   1  22
TORSDOF 6
ENDMDL
MODEL 9
REMARK VINA RESULT:      -7.1      2.274      4.336
REMARK  Name = 
REMARK  8 active torsions:
REMARK  status: ('A' for Active; 'I' for Inactive)
REMARK    1  A    between atoms: C_1  and  O_2
REMARK    2  A    between atoms: O_2  and  C_3
REMARK    3  A    between atoms: C_6  and  O_7
REMARK    4  A    between atoms: O_7  and  C_8
REMARK    5  A    between atoms: C_9  and  C_10
REMARK    6  A    between atoms: N_11  and  N_12
REMARK    7  A    between atoms: C_16  and  C_17
REMARK    8  A    between atoms: N_25  and  C_26
REMARK                            x       y       z     vdW  Elec       q    Type
REMARK                         _______ _______ _______ _____ _____    ______ ____
ROOT
ATOM      1  N   UNL     1       0.474  10.024  19.498  0.00  0.00    +0.000 NA
ATOM      2  C   UNL     1       0.842  11.266  19.375  0.00  0.00    +0.000 A 
ATOM      3  S   UNL     1       2.195  11.785  18.304  0.00  0.00    +0.000 S 
ATOM      4  C   UNL     1       1.947  13.446  18.729  0.00  0.00    +0.000 A 
ATOM      5  C   UNL     1       0.944  13.611  19.614  0.00  0.00    +0.000 A 
ATOM      6  N   UNL     1       0.294  12.408  19.992  0.00  0.00    +0.000 N 
ENDROOT
BRANCH   5   7
ATOM      7  C   UNL     1       0.657  14.934  20.154  0.00  0.00    +0.000 C 
ATOM      8  C   UNL     1      -0.096  15.820  19.484  0.00  0.00    +0.000 C 
ATOM      9  C   UNL     1      -0.323  17.190  19.976  0.00  0.00    +0.000 C 
ATOM     10  O   UNL     1      -0.969  18.002  19.327  0.00  0.00    +0.000 OA
ATOM     11  C   UNL     1       0.270  17.555  21.275  0.00  0.00    +0.000 C 
ATOM     12  C   UNL     1       0.994  16.680  21.973  0.00  0.00    +0.000 C 
ATOM     13  C   UNL     1       1.240  15.314  21.476  0.00  0.00    +0.000 C 
ATOM     14  O   UNL     1       1.919  14.539  22.150  0.00  0.00    +0.000 OA
ENDBRANCH   5   7
BRANCH   6  15
ATOM     15  C   UNL     1      -0.812  12.314  20.900  0.00  0.00    +0.000 A 
ATOM     16  C   UNL     1      -2.127  12.627  20.511  0.00  0.00    +0.000 A 
ATOM     17  C   UNL     1      -3.186  12.629  21.426  0.00  0.00    +0.000 A 
ATOM     18  C   UNL     1      -2.967  12.250  22.744  0.00  0.00    +0.000 A 
ATOM     19  C   UNL     1      -1.692  11.871  23.146  0.00  0.00    +0.000 A 
ATOM     20  C   UNL     1      -0.628  11.916  22.238  0.00  0.00    +0.000 A 
ENDBRANCH   6  15
BRANCH   1  22
ATOM     21  C   UNL     1       1.766   8.221  19.587  0.00  0.00    +0.000 C 
ATOM     22  N   UNL     1       1.239   9.103  18.796  0.00  0.00    +0.000 NA
BRANCH  21  27
ATOM     23  C   UNL     1       4.101   6.450  17.246  0.00  0.00    +0.000 A 
ATOM     24  C   UNL     1       4.148   5.173  17.793  0.00  0.00    +0.000 A 
ATOM     25  C   UNL     1       3.447   4.878  18.967  0.00  0.00    +0.000 A 
ATOM     26  C   UNL     1       2.680   5.852  19.623  0.00  0.00    +0.000 A 
ATOM     27  C   UNL     1       2.624   7.138  19.069  0.00  0.00    +0.000 A 
ATOM     28  C   UNL     1       3.351   7.429  17.893  0.00  0.00    +0.000 A 
BRANCH  23  30
ATOM     29  C   UNL     1       5.702   5.581  15.717  0.00  0.00    +0.000 C 
ATOM     30  O   UNL     1       4.792   6.616  16.077  0.00  0.00    +0.000 OA
ENDBRANCH  23  30
BRANCH  26  31
ATOM     31  O   UNL     1       1.978   5.355  20.687  0.00  0.00    +0.000 OA
ATOM     32  C   UNL     1       1.092   4.267  20.460  0.00  0.00    +0.000 C 
ENDBRANCH  26  31
ENDBRANCH  21  27
ENDBRANCH   1  22
TORSDOF 6
ENDMDL
