MODEL 1
REMARK VINA RESULT:      -8.6      0.000      0.000
REMARK  Name = 
REMARK  6 active torsions:
REMARK  status: ('A' for Active; 'I' for Inactive)
REMARK    1  A    between atoms: C_1  and  C_2
REMARK    2  A    between atoms: C_7  and  N_8
REMARK    3  A    between atoms: C_10  and  C_11
REMARK    4  A    between atoms: C_14  and  N_15
REMARK    5  A    between atoms: C_18  and  C_19
REMARK    6  A    between atoms: C_23  and  O_24
REMARK                            x       y       z     vdW  Elec       q    Type
REMARK                         _______ _______ _______ _____ _____    ______ ____
ROOT
ATOM      1  C   UNL     1       1.194  10.087  20.046  0.00  0.00    +0.000 A 
ATOM      2  C   UNL     1       1.468  11.004  19.007  0.00  0.00    +0.000 A 
ATOM      3  N   UNL     1       0.546  11.730  18.319  0.00  0.00    +0.000 NA
ATOM      4  C   UNL     1      -0.693  11.861  18.814  0.00  0.00    +0.000 A 
ATOM      5  C   UNL     1      -0.867  11.480  20.136  0.00  0.00    +0.000 A 
ATOM      6  O   UNL     1      -1.800  12.062  20.941  0.00  0.00    +0.000 OA
ATOM      7  C   UNL     1      -1.415  11.930  22.248  0.00  0.00    +0.000 A 
ATOM      8  C   UNL     1      -0.337  11.006  22.228  0.00  0.00    +0.000 A 
ATOM      9  C   UNL     1       0.002  10.597  20.795  0.00  0.00    +0.000 A 
ENDROOT
BRANCH   7  10
ATOM     10  C   UNL     1      -2.193  12.854  23.198  0.00  0.00    +0.000 A 
ATOM     11  C   UNL     1      -1.679  14.035  23.773  0.00  0.00    +0.000 A 
ATOM     12  C   UNL     1      -2.427  14.860  24.651  0.00  0.00    +0.000 A 
ATOM     13  C   UNL     1      -3.743  14.543  25.004  0.00  0.00    +0.000 A 
ATOM     14  C   UNL     1      -4.295  13.410  24.436  0.00  0.00    +0.000 A 
ATOM     15  C   UNL     1      -3.545  12.596  23.559  0.00  0.00    +0.000 A 
BRANCH  14  16
ATOM     16  O   UNL     1      -5.591  13.068  24.735  0.00  0.00    +0.000 OA
ATOM     17  H   UNL     1      -6.146  13.158  23.939  0.00  0.00    +0.000 HD
ENDBRANCH  14  16
ENDBRANCH   7  10
BRANCH   1  20
ATOM     18  N   UNL     1       2.788   6.791  18.965  0.00  0.00    +0.000 N 
ATOM     19  C   UNL     1       2.036   7.510  19.936  0.00  0.00    +0.000 A 
ATOM     20  C   UNL     1       1.493   8.686  19.358  0.00  0.00    +0.000 A 
ATOM     21  C   UNL     1       2.051   8.553  18.024  0.00  0.00    +0.000 A 
ATOM     22  N   UNL     1       2.775   7.451  17.795  0.00  0.00    +0.000 NA
BRANCH  18  29
ATOM     23  C   UNL     1       6.467   3.723  14.936  0.00  0.00    +0.000 C 
ATOM     24  C   UNL     1       6.718   4.374  16.280  0.00  0.00    +0.000 C 
ATOM     25  O   UNL     1       7.880   4.581  16.636  0.00  0.00    +0.000 OA
ATOM     26  N   UNL     1       5.615   4.727  17.072  0.00  0.00    +0.000 N 
ATOM     27  C   UNL     1       5.873   5.591  18.223  0.00  0.00    +0.000 C 
ATOM     28  C   UNL     1       4.912   5.337  19.385  0.00  0.00    +0.000 C 
ATOM     29  C   UNL     1       3.417   5.439  19.008  0.00  0.00    +0.000 C 
ATOM     30  C   UNL     1       3.231   4.497  17.760  0.00  0.00    +0.000 C 
ATOM     31  C   UNL     1       4.227   4.720  16.607  0.00  0.00    +0.000 C 
ENDBRANCH  18  29
ENDBRANCH   1  20
BRANCH   4  32
ATOM     32  N   UNL     1      -1.611  12.591  18.073  0.00  0.00    +0.000 N 
ATOM     33  H   UNL     1      -2.201  13.104  18.717  0.00  0.00    +0.000 HD
ATOM     34  H   UNL     1      -2.114  11.994  17.424  0.00  0.00    +0.000 HD
ENDBRANCH   4  32
TORSDOF 5
ENDMDL
MODEL 2
REMARK VINA RESULT:      -8.4      0.878      1.222
REMARK  Name = 
REMARK  6 active torsions:
REMARK  status: ('A' for Active; 'I' for Inactive)
REMARK    1  A    between atoms: C_1  and  C_2
REMARK    2  A    between atoms: C_7  and  N_8
REMARK    3  A    between atoms: C_10  and  C_11
REMARK    4  A    between atoms: C_14  and  N_15
REMARK    5  A    between atoms: C_18  and  C_19
REMARK    6  A    between atoms: C_23  and  O_24
REMARK                            x       y       z     vdW  Elec       q    Type
REMARK                         _______ _______ _______ _____ _____    ______ ____
ROOT
ATOM      1  C   UNL     1       1.189  10.072  20.052  0.00  0.00    +0.000 A 
ATOM      2  C   UNL     1       1.452  10.999  19.019  0.00  0.00    +0.000 A 
ATOM      3  N   UNL     1       0.523  11.723  18.339  0.00  0.00    +0.000 NA
ATOM      4  C   UNL     1      -0.716  11.841  18.840  0.00  0.00    +0.000 A 
ATOM      5  C   UNL     1      -0.882  11.449  20.160  0.00  0.00    +0.000 A 
ATOM      6  O   UNL     1      -1.817  12.018  20.972  0.00  0.00    +0.000 OA
ATOM      7  C   UNL     1      -1.427  11.879  22.277  0.00  0.00    +0.000 A 
ATOM      8  C   UNL     1      -0.342  10.963  22.246  0.00  0.00    +0.000 A 
ATOM      9  C   UNL     1      -0.004  10.567  20.809  0.00  0.00    +0.000 A 
ENDROOT
BRANCH   7  10
ATOM     10  C   UNL     1      -2.208  12.790  23.236  0.00  0.00    +0.000 A 
ATOM     11  C   UNL     1      -3.498  12.515  23.736  0.00  0.00    +0.000 A 
ATOM     12  C   UNL     1      -4.192  13.384  24.617  0.00  0.00    +0.000 A 
ATOM     13  C   UNL     1      -3.625  14.589  25.046  0.00  0.00    +0.000 A 
ATOM     14  C   UNL     1      -2.348  14.881  24.602  0.00  0.00    +0.000 A 
ATOM     15  C   UNL     1      -1.662  14.007  23.730  0.00  0.00    +0.000 A 
BRANCH  14  16
ATOM     16  O   UNL     1      -1.741  16.042  25.013  0.00  0.00    +0.000 OA
ATOM     17  H   UNL     1      -1.106  16.337  24.335  0.00  0.00    +0.000 HD
ENDBRANCH  14  16
ENDBRANCH   7  10
BRANCH   1  20
ATOM     18  N   UNL     1       2.795   6.787  18.957  0.00  0.00    +0.000 N 
ATOM     19  C   UNL     1       2.030   7.496  19.925  0.00  0.00    +0.000 A 
ATOM     20  C   UNL     1       1.496   8.678  19.353  0.00  0.00    +0.000 A 
ATOM     21  C   UNL     1       2.073   8.560  18.026  0.00  0.00    +0.000 A 
ATOM     22  N   UNL     1       2.799   7.459  17.794  0.00  0.00    +0.000 NA
BRANCH  18  29
ATOM     23  C   UNL     1       6.496   3.745  14.928  0.00  0.00    +0.000 C 
ATOM     24  C   UNL     1       6.739   4.385  16.279  0.00  0.00    +0.000 C 
ATOM     25  O   UNL     1       7.899   4.588  16.645  0.00  0.00    +0.000 OA
ATOM     26  N   UNL     1       5.632   4.733  17.067  0.00  0.00    +0.000 N 
ATOM     27  C   UNL     1       5.883   5.588  18.226  0.00  0.00    +0.000 C 
ATOM     28  C   UNL     1       4.914   5.327  19.379  0.00  0.00    +0.000 C 
ATOM     29  C   UNL     1       3.422   5.433  18.993  0.00  0.00    +0.000 C 
ATOM     30  C   UNL     1       3.243   4.501  17.737  0.00  0.00    +0.000 C 
ATOM     31  C   UNL     1       4.246   4.731  16.593  0.00  0.00    +0.000 C 
ENDBRANCH  18  29
ENDBRANCH   1  20
BRANCH   4  32
ATOM     32  N   UNL     1      -1.641  12.569  18.107  0.00  0.00    +0.000 N 
ATOM     33  H   UNL     1      -2.434  11.969  17.914  0.00  0.00    +0.000 HD
ATOM     34  H   UNL     1      -1.213  12.980  17.283  0.00  0.00    +0.000 HD
ENDBRANCH   4  32
TORSDOF 5
ENDMDL
MODEL 3
REMARK VINA RESULT:      -8.3      1.412      1.824
REMARK  Name = 
REMARK  6 active torsions:
REMARK  status: ('A' for Active; 'I' for Inactive)
REMARK    1  A    between atoms: C_1  and  C_2
REMARK    2  A    between atoms: C_7  and  N_8
REMARK    3  A    between atoms: C_10  and  C_11
REMARK    4  A    between atoms: C_14  and  N_15
REMARK    5  A    between atoms: C_18  and  C_19
REMARK    6  A    between atoms: C_23  and  O_24
REMARK                            x       y       z     vdW  Elec       q    Type
REMARK                         _______ _______ _______ _____ _____    ______ ____
ROOT
ATOM      1  C   UNL     1       1.634   8.214  20.971  0.00  0.00    +0.000 A 
ATOM      2  C   UNL     1       1.982   8.763  19.717  0.00  0.00    +0.000 A 
ATOM      3  N   UNL     1       1.119   9.301  18.814  0.00  0.00    +0.000 NA
ATOM      4  C   UNL     1      -0.118   9.643  19.206  0.00  0.00    +0.000 A 
ATOM      5  C   UNL     1      -0.336   9.683  20.575  0.00  0.00    +0.000 A 
ATOM      6  O   UNL     1      -1.242  10.530  21.138  0.00  0.00    +0.000 OA
ATOM      7  C   UNL     1      -0.887  10.772  22.438  0.00  0.00    +0.000 A 
ATOM      8  C   UNL     1       0.130   9.825  22.730  0.00  0.00    +0.000 A 
ATOM      9  C   UNL     1       0.465   8.989  21.494  0.00  0.00    +0.000 A 
ENDROOT
BRANCH   7  10
ATOM     10  C   UNL     1      -1.620  11.979  23.044  0.00  0.00    +0.000 A 
ATOM     11  C   UNL     1      -1.098  13.288  23.109  0.00  0.00    +0.000 A 
ATOM     12  C   UNL     1      -1.803  14.378  23.682  0.00  0.00    +0.000 A 
ATOM     13  C   UNL     1      -3.081  14.212  24.227  0.00  0.00    +0.000 A 
ATOM     14  C   UNL     1      -3.641  12.949  24.155  0.00  0.00    +0.000 A 
ATOM     15  C   UNL     1      -2.934  11.871  23.578  0.00  0.00    +0.000 A 
BRANCH  14  16
ATOM     16  O   UNL     1      -4.902  12.742  24.657  0.00  0.00    +0.000 OA
ATOM     17  H   UNL     1      -4.884  12.004  25.294  0.00  0.00    +0.000 HD
ENDBRANCH  14  16
ENDBRANCH   7  10
BRANCH   1  20
ATOM     18  N   UNL     1       2.464   4.804  19.468  0.00  0.00    +0.000 N 
ATOM     19  C   UNL     1       2.927   5.998  20.089  0.00  0.00    +0.000 A 
ATOM     20  C   UNL     1       1.853   6.656  20.740  0.00  0.00    +0.000 A 
ATOM     21  C   UNL     1       0.784   5.743  20.378  0.00  0.00    +0.000 A 
ATOM     22  N   UNL     1       1.142   4.667  19.668  0.00  0.00    +0.000 NA
BRANCH  18  29
ATOM     23  C   UNL     1       6.823   4.700  14.976  0.00  0.00    +0.000 C 
ATOM     24  C   UNL     1       6.864   4.439  16.466  0.00  0.00    +0.000 C 
ATOM     25  O   UNL     1       7.957   4.402  17.037  0.00  0.00    +0.000 OA
ATOM     26  N   UNL     1       5.653   4.255  17.151  0.00  0.00    +0.000 N 
ATOM     27  C   UNL     1       5.705   4.280  18.612  0.00  0.00    +0.000 C 
ATOM     28  C   UNL     1       4.645   3.389  19.260  0.00  0.00    +0.000 C 
ATOM     29  C   UNL     1       3.199   3.687  18.806  0.00  0.00    +0.000 C 
ATOM     30  C   UNL     1       3.236   3.657  17.232  0.00  0.00    +0.000 C 
ATOM     31  C   UNL     1       4.332   4.517  16.578  0.00  0.00    +0.000 C 
ENDBRANCH  18  29
ENDBRANCH   1  20
BRANCH   4  32
ATOM     32  N   UNL     1      -0.975  10.169  18.250  0.00  0.00    +0.000 N 
ATOM     33  H   UNL     1      -1.407   9.397  17.756  0.00  0.00    +0.000 HD
ATOM     34  H   UNL     1      -0.494  10.834  17.654  0.00  0.00    +0.000 HD
ENDBRANCH   4  32
TORSDOF 5
ENDMDL
MODEL 4
REMARK VINA RESULT:      -8.3      2.815     11.014
REMARK  Name = 
REMARK  6 active torsions:
REMARK  status: ('A' for Active; 'I' for Inactive)
REMARK    1  A    between atoms: C_1  and  C_2
REMARK    2  A    between atoms: C_7  and  N_8
REMARK    3  A    between atoms: C_10  and  C_11
REMARK    4  A    between atoms: C_14  and  N_15
REMARK    5  A    between atoms: C_18  and  C_19
REMARK    6  A    between atoms: C_23  and  O_24
REMARK                            x       y       z     vdW  Elec       q    Type
REMARK                         _______ _______ _______ _____ _____    ______ ____
ROOT
ATOM      1  C   UNL     1       0.311  11.450  19.151  0.00  0.00    +0.000 A 
ATOM      2  C   UNL     1       0.892  11.846  20.375  0.00  0.00    +0.000 A 
ATOM      3  N   UNL     1       1.129  11.040  21.445  0.00  0.00    +0.000 NA
ATOM      4  C   UNL     1       1.116   9.708  21.283  0.00  0.00    +0.000 A 
ATOM      5  C   UNL     1       1.140   9.252  19.974  0.00  0.00    +0.000 A 
ATOM      6  O   UNL     1       1.712   8.063  19.633  0.00  0.00    +0.000 OA
ATOM      7  C   UNL     1       2.090   8.104  18.318  0.00  0.00    +0.000 A 
ATOM      8  C   UNL     1       1.485   9.276  17.792  0.00  0.00    +0.000 A 
ATOM      9  C   UNL     1       0.737  10.039  18.885  0.00  0.00    +0.000 A 
ENDROOT
BRANCH   7  10
ATOM     10  C   UNL     1       3.058   6.972  17.937  0.00  0.00    +0.000 A 
ATOM     11  C   UNL     1       2.834   5.603  18.190  0.00  0.00    +0.000 A 
ATOM     12  C   UNL     1       3.755   4.586  17.829  0.00  0.00    +0.000 A 
ATOM     13  C   UNL     1       4.961   4.890  17.190  0.00  0.00    +0.000 A 
ATOM     14  C   UNL     1       5.204   6.219  16.895  0.00  0.00    +0.000 A 
ATOM     15  C   UNL     1       4.280   7.225  17.254  0.00  0.00    +0.000 A 
BRANCH  14  16
ATOM     16  O   UNL     1       6.365   6.565  16.250  0.00  0.00    +0.000 OA
ATOM     17  H   UNL     1       6.848   5.760  15.989  0.00  0.00    +0.000 HD
ENDBRANCH  14  16
ENDBRANCH   7  10
BRANCH   1  20
ATOM     18  N   UNL     1      -3.249  12.429  20.119  0.00  0.00    +0.000 N 
ATOM     19  C   UNL     1      -1.852  12.565  20.350  0.00  0.00    +0.000 A 
ATOM     20  C   UNL     1      -1.125  12.128  19.214  0.00  0.00    +0.000 A 
ATOM     21  C   UNL     1      -2.243  11.712  18.385  0.00  0.00    +0.000 A 
ATOM     22  N   UNL     1      -3.463  11.909  18.898  0.00  0.00    +0.000 NA
BRANCH  18  29
ATOM     23  C   UNL     1      -3.837  16.430  24.898  0.00  0.00    +0.000 C 
ATOM     24  C   UNL     1      -4.227  16.496  23.437  0.00  0.00    +0.000 C 
ATOM     25  O   UNL     1      -4.529  17.588  22.947  0.00  0.00    +0.000 OA
ATOM     26  N   UNL     1      -4.223  15.312  22.685  0.00  0.00    +0.000 N 
ATOM     27  C   UNL     1      -4.333  15.445  21.233  0.00  0.00    +0.000 C 
ATOM     28  C   UNL     1      -5.047  14.262  20.579  0.00  0.00    +0.000 C 
ATOM     29  C   UNL     1      -4.430  12.884  20.910  0.00  0.00    +0.000 C 
ATOM     30  C   UNL     1      -4.334  12.831  22.480  0.00  0.00    +0.000 C 
ATOM     31  C   UNL     1      -3.656  14.042  23.145  0.00  0.00    +0.000 C 
ENDBRANCH  18  29
ENDBRANCH   1  20
BRANCH   4  32
ATOM     32  N   UNL     1       1.341   8.920  22.402  0.00  0.00    +0.000 N 
ATOM     33  H   UNL     1       1.011   9.426  23.215  0.00  0.00    +0.000 HD
ATOM     34  H   UNL     1       2.310   8.625  22.453  0.00  0.00    +0.000 HD
ENDBRANCH   4  32
TORSDOF 5
ENDMDL
MODEL 5
REMARK VINA RESULT:      -8.3      2.586     11.005
REMARK  Name = 
REMARK  6 active torsions:
REMARK  status: ('A' for Active; 'I' for Inactive)
REMARK    1  A    between atoms: C_1  and  C_2
REMARK    2  A    between atoms: C_7  and  N_8
REMARK    3  A    between atoms: C_10  and  C_11
REMARK    4  A    between atoms: C_14  and  N_15
REMARK    5  A    between atoms: C_18  and  C_19
REMARK    6  A    between atoms: C_23  and  O_24
REMARK                            x       y       z     vdW  Elec       q    Type
REMARK                         _______ _______ _______ _____ _____    ______ ____
ROOT
ATOM      1  C   UNL     1      -0.363   9.801  21.106  0.00  0.00    +0.000 A 
ATOM      2  C   UNL     1      -0.802  10.249  19.841  0.00  0.00    +0.000 A 
ATOM      3  N   UNL     1      -0.025  10.408  18.735  0.00  0.00    +0.000 NA
ATOM      4  C   UNL     1       1.183   9.826  18.690  0.00  0.00    +0.000 A 
ATOM      5  C   UNL     1       1.438   8.870  19.661  0.00  0.00    +0.000 A 
ATOM      6  O   UNL     1       2.274   7.817  19.438  0.00  0.00    +0.000 OA
ATOM      7  C   UNL     1       1.937   6.788  20.276  0.00  0.00    +0.000 A 
ATOM      8  C   UNL     1       1.028   7.350  21.211  0.00  0.00    +0.000 A 
ATOM      9  C   UNL     1       0.739   8.813  20.877  0.00  0.00    +0.000 A 
ENDROOT
BRANCH   7  10
ATOM     10  C   UNL     1       2.565   5.449  19.861  0.00  0.00    +0.000 A 
ATOM     11  C   UNL     1       1.855   4.240  19.707  0.00  0.00    +0.000 A 
ATOM     12  C   UNL     1       2.472   3.020  19.327  0.00  0.00    +0.000 A 
ATOM     13  C   UNL     1       3.847   2.945  19.081  0.00  0.00    +0.000 A 
ATOM     14  C   UNL     1       4.574   4.116  19.191  0.00  0.00    +0.000 A 
ATOM     15  C   UNL     1       3.951   5.328  19.564  0.00  0.00    +0.000 A 
BRANCH  14  16
ATOM     16  O   UNL     1       5.923   4.098  18.938  0.00  0.00    +0.000 OA
ATOM     17  H   UNL     1       6.174   4.896  18.438  0.00  0.00    +0.000 HD
ENDBRANCH  14  16
ENDBRANCH   7  10
BRANCH   1  20
ATOM     18  N   UNL     1      -1.496  13.028  22.801  0.00  0.00    +0.000 N 
ATOM     19  C   UNL     1      -1.508  11.605  22.777  0.00  0.00    +0.000 A 
ATOM     20  C   UNL     1      -0.435  11.122  21.986  0.00  0.00    +0.000 A 
ATOM     21  C   UNL     1       0.115  12.397  21.561  0.00  0.00    +0.000 A 
ATOM     22  N   UNL     1      -0.482  13.490  22.050  0.00  0.00    +0.000 NA
BRANCH  18  29
ATOM     23  C   UNL     1      -7.494  14.800  22.539  0.00  0.00    +0.000 C 
ATOM     24  C   UNL     1      -6.702  13.965  23.523  0.00  0.00    +0.000 C 
ATOM     25  O   UNL     1      -7.308  13.279  24.349  0.00  0.00    +0.000 OA
ATOM     26  N   UNL     1      -5.301  13.995  23.455  0.00  0.00    +0.000 N 
ATOM     27  C   UNL     1      -4.577  12.983  24.222  0.00  0.00    +0.000 C 
ATOM     28  C   UNL     1      -3.213  13.471  24.713  0.00  0.00    +0.000 C 
ATOM     29  C   UNL     1      -2.290  14.009  23.597  0.00  0.00    +0.000 C 
ATOM     30  C   UNL     1      -3.148  15.074  22.816  0.00  0.00    +0.000 C 
ATOM     31  C   UNL     1      -4.539  14.599  22.360  0.00  0.00    +0.000 C 
ENDBRANCH  18  29
ENDBRANCH   1  20
BRANCH   4  32
ATOM     32  N   UNL     1       1.954  10.029  17.555  0.00  0.00    +0.000 N 
ATOM     33  H   UNL     1       1.344   9.986  16.747  0.00  0.00    +0.000 HD
ATOM     34  H   UNL     1       2.738   9.385  17.526  0.00  0.00    +0.000 HD
ENDBRANCH   4  32
TORSDOF 5
ENDMDL
MODEL 6
REMARK VINA RESULT:      -8.2      2.978      4.136
REMARK  Name = 
REMARK  6 active torsions:
REMARK  status: ('A' for Active; 'I' for Inactive)
REMARK    1  A    between atoms: C_1  and  C_2
REMARK    2  A    between atoms: C_7  and  N_8
REMARK    3  A    between atoms: C_10  and  C_11
REMARK    4  A    between atoms: C_14  and  N_15
REMARK    5  A    between atoms: C_18  and  C_19
REMARK    6  A    between atoms: C_23  and  O_24
REMARK                            x       y       z     vdW  Elec       q    Type
REMARK                         _______ _______ _______ _____ _____    ______ ____
ROOT
ATOM      1  C   UNL     1       1.019   9.464  19.304  0.00  0.00    +0.000 A 
ATOM      2  C   UNL     1      -0.206   9.239  19.968  0.00  0.00    +0.000 A 
ATOM      3  N   UNL     1      -0.649   9.898  21.073  0.00  0.00    +0.000 NA
ATOM      4  C   UNL     1      -0.074  11.058  21.423  0.00  0.00    +0.000 A 
ATOM      5  C   UNL     1       0.747  11.645  20.473  0.00  0.00    +0.000 A 
ATOM      6  O   UNL     1       0.910  12.996  20.392  0.00  0.00    +0.000 OA
ATOM      7  C   UNL     1       1.278  13.331  19.116  0.00  0.00    +0.000 A 
ATOM      8  C   UNL     1       1.595  12.100  18.483  0.00  0.00    +0.000 A 
ATOM      9  C   UNL     1       1.336  10.923  19.424  0.00  0.00    +0.000 A 
ENDROOT
BRANCH   7  10
ATOM     10  C   UNL     1       1.132  14.833  18.827  0.00  0.00    +0.000 A 
ATOM     11  C   UNL     1       2.205  15.714  18.579  0.00  0.00    +0.000 A 
ATOM     12  C   UNL     1       2.032  17.098  18.321  0.00  0.00    +0.000 A 
ATOM     13  C   UNL     1       0.760  17.679  18.298  0.00  0.00    +0.000 A 
ATOM     14  C   UNL     1      -0.323  16.843  18.505  0.00  0.00    +0.000 A 
ATOM     15  C   UNL     1      -0.141  15.466  18.757  0.00  0.00    +0.000 A 
BRANCH  14  16
ATOM     16  O   UNL     1      -1.593  17.364  18.472  0.00  0.00    +0.000 OA
ATOM     17  H   UNL     1      -1.643  18.144  19.054  0.00  0.00    +0.000 HD
ENDBRANCH  14  16
ENDBRANCH   7  10
BRANCH   1  20
ATOM     18  N   UNL     1       2.452   5.928  19.423  0.00  0.00    +0.000 N 
ATOM     19  C   UNL     1       2.444   7.210  18.805  0.00  0.00    +0.000 A 
ATOM     20  C   UNL     1       1.857   8.165  19.674  0.00  0.00    +0.000 A 
ATOM     21  C   UNL     1       1.518   7.282  20.775  0.00  0.00    +0.000 A 
ATOM     22  N   UNL     1       1.883   6.001  20.638  0.00  0.00    +0.000 NA
BRANCH  18  29
ATOM     23  C   UNL     1       6.929   4.558  15.267  0.00  0.00    +0.000 C 
ATOM     24  C   UNL     1       6.890   4.578  16.780  0.00  0.00    +0.000 C 
ATOM     25  O   UNL     1       7.952   4.541  17.406  0.00  0.00    +0.000 OA
ATOM     26  N   UNL     1       5.644   4.645  17.420  0.00  0.00    +0.000 N 
ATOM     27  C   UNL     1       5.647   4.938  18.853  0.00  0.00    +0.000 C 
ATOM     28  C   UNL     1       4.476   4.292  19.594  0.00  0.00    +0.000 C 
ATOM     29  C   UNL     1       3.086   4.640  19.016  0.00  0.00    +0.000 C 
ATOM     30  C   UNL     1       3.175   4.312  17.478  0.00  0.00    +0.000 C 
ATOM     31  C   UNL     1       4.378   4.923  16.738  0.00  0.00    +0.000 C 
ENDBRANCH  18  29
ENDBRANCH   1  20
BRANCH   4  32
ATOM     32  N   UNL     1      -0.539  11.689  22.568  0.00  0.00    +0.000 N 
ATOM     33  H   UNL     1      -1.258  12.348  22.295  0.00  0.00    +0.000 HD
ATOM     34  H   UNL     1       0.226  12.095  23.098  0.00  0.00    +0.000 HD
ENDBRANCH   4  32
TORSDOF 5
ENDMDL
MODEL 7
REMARK VINA RESULT:      -8.2      2.774     10.943
REMARK  Name = 
REMARK  6 active torsions:
REMARK  status: ('A' for Active; 'I' for Inactive)
REMARK    1  A    between atoms: C_1  and  C_2
REMARK    2  A    between atoms: C_7  and  N_8
REMARK    3  A    between atoms: C_10  and  C_11
REMARK    4  A    between atoms: C_14  and  N_15
REMARK    5  A    between atoms: C_18  and  C_19
REMARK    6  A    between atoms: C_23  and  O_24
REMARK                            x       y       z     vdW  Elec       q    Type
REMARK                         _______ _______ _______ _____ _____    ______ ____
ROOT
ATOM      1  C   UNL     1      -0.414   9.835  21.091  0.00  0.00    +0.000 A 
ATOM      2  C   UNL     1      -0.868  10.340  19.853  0.00  0.00    +0.000 A 
ATOM      3  N   UNL     1      -0.096  10.599  18.764  0.00  0.00    +0.000 NA
ATOM      4  C   UNL     1       1.137  10.074  18.690  0.00  0.00    +0.000 A 
ATOM      5  C   UNL     1       1.431   9.073  19.604  0.00  0.00    +0.000 A 
ATOM      6  O   UNL     1       2.312   8.072  19.322  0.00  0.00    +0.000 OA
ATOM      7  C   UNL     1       2.018   6.981  20.095  0.00  0.00    +0.000 A 
ATOM      8  C   UNL     1       1.082   7.445  21.056  0.00  0.00    +0.000 A 
ATOM      9  C   UNL     1       0.730   8.912  20.809  0.00  0.00    +0.000 A 
ENDROOT
BRANCH   7  10
ATOM     10  C   UNL     1       2.705   5.697  19.603  0.00  0.00    +0.000 A 
ATOM     11  C   UNL     1       4.101   5.509  19.528  0.00  0.00    +0.000 A 
ATOM     12  C   UNL     1       4.699   4.310  19.063  0.00  0.00    +0.000 A 
ATOM     13  C   UNL     1       3.923   3.225  18.642  0.00  0.00    +0.000 A 
ATOM     14  C   UNL     1       2.549   3.358  18.730  0.00  0.00    +0.000 A 
ATOM     15  C   UNL     1       1.962   4.553  19.199  0.00  0.00    +0.000 A 
BRANCH  14  16
ATOM     16  O   UNL     1       1.746   2.312  18.348  0.00  0.00    +0.000 OA
ATOM     17  H   UNL     1       2.232   1.732  17.735  0.00  0.00    +0.000 HD
ENDBRANCH  14  16
ENDBRANCH   7  10
BRANCH   1  20
ATOM     18  N   UNL     1      -1.690  12.906  22.966  0.00  0.00    +0.000 N 
ATOM     19  C   UNL     1      -1.645  11.488  22.856  0.00  0.00    +0.000 A 
ATOM     20  C   UNL     1      -0.546  11.097  22.049  0.00  0.00    +0.000 A 
ATOM     21  C   UNL     1      -0.044  12.416  21.708  0.00  0.00    +0.000 A 
ATOM     22  N   UNL     1      -0.689  13.453  22.256  0.00  0.00    +0.000 NA
BRANCH  18  29
ATOM     23  C   UNL     1      -7.715  14.575  22.653  0.00  0.00    +0.000 C 
ATOM     24  C   UNL     1      -6.935  13.680  23.593  0.00  0.00    +0.000 C 
ATOM     25  O   UNL     1      -7.551  12.918  24.342  0.00  0.00    +0.000 OA
ATOM     26  N   UNL     1      -5.534  13.742  23.572  0.00  0.00    +0.000 N 
ATOM     27  C   UNL     1      -4.810  12.686  24.279  0.00  0.00    +0.000 C 
ATOM     28  C   UNL     1      -3.474  13.161  24.851  0.00  0.00    +0.000 C 
ATOM     29  C   UNL     1      -2.529  13.804  23.811  0.00  0.00    +0.000 C 
ATOM     30  C   UNL     1      -3.386  14.911  23.090  0.00  0.00    +0.000 C 
ATOM     31  C   UNL     1      -4.752  14.447  22.554  0.00  0.00    +0.000 C 
ENDBRANCH  18  29
ENDBRANCH   1  20
BRANCH   4  32
ATOM     32  N   UNL     1       1.902  10.379  17.574  0.00  0.00    +0.000 N 
ATOM     33  H   UNL     1       2.284  11.309  17.697  0.00  0.00    +0.000 HD
ATOM     34  H   UNL     1       1.369  10.251  16.720  0.00  0.00    +0.000 HD
ENDBRANCH   4  32
TORSDOF 5
ENDMDL
MODEL 8
REMARK VINA RESULT:      -8.2      2.896     10.866
REMARK  Name = 
REMARK  6 active torsions:
REMARK  status: ('A' for Active; 'I' for Inactive)
REMARK    1  A    between atoms: C_1  and  C_2
REMARK    2  A    between atoms: C_7  and  N_8
REMARK    3  A    between atoms: C_10  and  C_11
REMARK    4  A    between atoms: C_14  and  N_15
REMARK    5  A    between atoms: C_18  and  C_19
REMARK    6  A    between atoms: C_23  and  O_24
REMARK                            x       y       z     vdW  Elec       q    Type
REMARK                         _______ _______ _______ _____ _____    ______ ____
ROOT
ATOM      1  C   UNL     1       0.357  11.403  19.066  0.00  0.00    +0.000 A 
ATOM      2  C   UNL     1       0.898  11.831  20.299  0.00  0.00    +0.000 A 
ATOM      3  N   UNL     1       1.116  11.049  21.390  0.00  0.00    +0.000 NA
ATOM      4  C   UNL     1       1.127   9.714  21.253  0.00  0.00    +0.000 A 
ATOM      5  C   UNL     1       1.194   9.234  19.954  0.00  0.00    +0.000 A 
ATOM      6  O   UNL     1       1.792   8.047  19.651  0.00  0.00    +0.000 OA
ATOM      7  C   UNL     1       2.206   8.069  18.346  0.00  0.00    +0.000 A 
ATOM      8  C   UNL     1       1.599   9.222  17.782  0.00  0.00    +0.000 A 
ATOM      9  C   UNL     1       0.811   9.995  18.839  0.00  0.00    +0.000 A 
ENDROOT
BRANCH   7  10
ATOM     10  C   UNL     1       3.200   6.945  18.015  0.00  0.00    +0.000 A 
ATOM     11  C   UNL     1       4.258   7.053  17.089  0.00  0.00    +0.000 A 
ATOM     12  C   UNL     1       5.153   5.990  16.805  0.00  0.00    +0.000 A 
ATOM     13  C   UNL     1       5.033   4.748  17.438  0.00  0.00    +0.000 A 
ATOM     14  C   UNL     1       4.027   4.612  18.377  0.00  0.00    +0.000 A 
ATOM     15  C   UNL     1       3.143   5.677  18.658  0.00  0.00    +0.000 A 
BRANCH  14  16
ATOM     16  O   UNL     1       3.882   3.419  19.041  0.00  0.00    +0.000 OA
ATOM     17  H   UNL     1       4.684   3.234  19.563  0.00  0.00    +0.000 HD
ENDBRANCH  14  16
ENDBRANCH   7  10
BRANCH   1  20
ATOM     18  N   UNL     1      -3.216  12.407  19.962  0.00  0.00    +0.000 N 
ATOM     19  C   UNL     1      -1.820  12.584  20.174  0.00  0.00    +0.000 A 
ATOM     20  C   UNL     1      -1.090  12.061  19.077  0.00  0.00    +0.000 A 
ATOM     21  C   UNL     1      -2.203  11.557  18.293  0.00  0.00    +0.000 A 
ATOM     22  N   UNL     1      -3.425  11.778  18.792  0.00  0.00    +0.000 NA
BRANCH  18  29
ATOM     23  C   UNL     1      -3.766  16.164  24.939  0.00  0.00    +0.000 C 
ATOM     24  C   UNL     1      -4.064  16.344  23.465  0.00  0.00    +0.000 C 
ATOM     25  O   UNL     1      -4.252  17.483  23.028  0.00  0.00    +0.000 OA
ATOM     26  N   UNL     1      -4.109  15.208  22.644  0.00  0.00    +0.000 N 
ATOM     27  C   UNL     1      -4.124  15.432  21.199  0.00  0.00    +0.000 C 
ATOM     28  C   UNL     1      -4.889  14.350  20.437  0.00  0.00    +0.000 C 
ATOM     29  C   UNL     1      -4.401  12.910  20.715  0.00  0.00    +0.000 C 
ATOM     30  C   UNL     1      -4.400  12.760  22.282  0.00  0.00    +0.000 C 
ATOM     31  C   UNL     1      -3.670  13.873  23.055  0.00  0.00    +0.000 C 
ENDBRANCH  18  29
ENDBRANCH   1  20
BRANCH   4  32
ATOM     32  N   UNL     1       1.331   8.950  22.393  0.00  0.00    +0.000 N 
ATOM     33  H   UNL     1       1.503   7.994  22.105  0.00  0.00    +0.000 HD
ATOM     34  H   UNL     1       0.565   9.062  23.049  0.00  0.00    +0.000 HD
ENDBRANCH   4  32
TORSDOF 5
ENDMDL
MODEL 9
REMARK VINA RESULT:      -8.1      3.024      4.512
REMARK  Name = 
REMARK  6 active torsions:
REMARK  status: ('A' for Active; 'I' for Inactive)
REMARK    1  A    between atoms: C_1  and  C_2
REMARK    2  A    between atoms: C_7  and  N_8
REMARK    3  A    between atoms: C_10  and  C_11
REMARK    4  A    between atoms: C_14  and  N_15
REMARK    5  A    between atoms: C_18  and  C_19
REMARK    6  A    between atoms: C_23  and  O_24
REMARK                            x       y       z     vdW  Elec       q    Type
REMARK                         _______ _______ _______ _____ _____    ______ ____
ROOT
ATOM      1  C   UNL     1       1.057   9.435  19.347  0.00  0.00    +0.000 A 
ATOM      2  C   UNL     1      -0.187   9.215  19.979  0.00  0.00    +0.000 A 
ATOM      3  N   UNL     1      -0.650   9.866  21.080  0.00  0.00    +0.000 NA
ATOM      4  C   UNL     1      -0.072  11.016  21.457  0.00  0.00    +0.000 A 
ATOM      5  C   UNL     1       0.778  11.606  20.533  0.00  0.00    +0.000 A 
ATOM      6  O   UNL     1       0.956  12.955  20.472  0.00  0.00    +0.000 OA
ATOM      7  C   UNL     1       1.358  13.301  19.209  0.00  0.00    +0.000 A 
ATOM      8  C   UNL     1       1.678  12.073  18.570  0.00  0.00    +0.000 A 
ATOM      9  C   UNL     1       1.385  10.889  19.491  0.00  0.00    +0.000 A 
ENDROOT
BRANCH   7  10
ATOM     10  C   UNL     1       1.234  14.807  18.933  0.00  0.00    +0.000 A 
ATOM     11  C   UNL     1       0.141  15.610  19.321  0.00  0.00    +0.000 A 
ATOM     12  C   UNL     1       0.060  16.999  19.043  0.00  0.00    +0.000 A 
ATOM     13  C   UNL     1       1.079  17.663  18.352  0.00  0.00    +0.000 A 
ATOM     14  C   UNL     1       2.183  16.918  17.981  0.00  0.00    +0.000 A 
ATOM     15  C   UNL     1       2.258  15.537  18.267  0.00  0.00    +0.000 A 
BRANCH  14  16
ATOM     16  O   UNL     1       3.218  17.530  17.319  0.00  0.00    +0.000 OA
ATOM     17  H   UNL     1       2.864  18.183  16.689  0.00  0.00    +0.000 HD
ENDBRANCH  14  16
ENDBRANCH   7  10
BRANCH   1  20
ATOM     18  N   UNL     1       2.458   5.886  19.455  0.00  0.00    +0.000 N 
ATOM     19  C   UNL     1       2.479   7.177  18.859  0.00  0.00    +0.000 A 
ATOM     20  C   UNL     1       1.872   8.123  19.723  0.00  0.00    +0.000 A 
ATOM     21  C   UNL     1       1.492   7.226  20.798  0.00  0.00    +0.000 A 
ATOM     22  N   UNL     1       1.850   5.944  20.653  0.00  0.00    +0.000 NA
BRANCH  18  29
ATOM     23  C   UNL     1       6.950   4.527  15.313  0.00  0.00    +0.000 C 
ATOM     24  C   UNL     1       6.906   4.544  16.826  0.00  0.00    +0.000 C 
ATOM     25  O   UNL     1       7.966   4.507  17.456  0.00  0.00    +0.000 OA
ATOM     26  N   UNL     1       5.658   4.609  17.462  0.00  0.00    +0.000 N 
ATOM     27  C   UNL     1       5.655   4.899  18.895  0.00  0.00    +0.000 C 
ATOM     28  C   UNL     1       4.482   4.251  19.631  0.00  0.00    +0.000 C 
ATOM     29  C   UNL     1       3.094   4.599  19.048  0.00  0.00    +0.000 C 
ATOM     30  C   UNL     1       3.189   4.274  17.511  0.00  0.00    +0.000 C 
ATOM     31  C   UNL     1       4.394   4.887  16.776  0.00  0.00    +0.000 C 
ENDBRANCH  18  29
ENDBRANCH   1  20
BRANCH   4  32
ATOM     32  N   UNL     1      -0.559  11.640  22.597  0.00  0.00    +0.000 N 
ATOM     33  H   UNL     1      -0.767  12.603  22.365  0.00  0.00    +0.000 HD
ATOM     34  H   UNL     1       0.079  11.522  23.378  0.00  0.00    +0.000 HD
ENDBRANCH   4  32
TORSDOF 5
ENDMDL
