MODEL 1
REMARK VINA RESULT:      -5.7      0.000      0.000
REMARK  Name = 
REMARK  7 active torsions:
REMARK  status: ('A' for Active; 'I' for Inactive)
REMARK    1  A    between atoms: C_1  and  C_2
REMARK    2  A    between atoms: C_2  and  C_3
REMARK    3  A    between atoms: C_3  and  N_4
REMARK    4  A    between atoms: C_8  and  C_9
REMARK    5  A    between atoms: C_9  and  O_11
REMARK    6  A    between atoms: O_11  and  C_12
REMARK    7  A    between atoms: C_13  and  C_14
REMARK                            x       y       z     vdW  Elec       q    Type
REMARK                         _______ _______ _______ _____ _____    ______ ____
ROOT
ATOM      1  N   UNL     1       6.613   5.435  17.284  0.00  0.00    +0.000 N 
ATOM      2  C   UNL     1       6.725   4.962  15.977  0.00  0.00    +0.000 C 
ATOM      3  O   UNL     1       7.573   5.266  15.152  0.00  0.00    +0.000 OA
ATOM      4  C   UNL     1       5.591   3.980  15.752  0.00  0.00    +0.000 C 
ATOM      5  C   UNL     1       4.919   4.019  17.095  0.00  0.00    +0.000 C 
ATOM      6  C   UNL     1       5.544   4.860  17.937  0.00  0.00    +0.000 C 
ATOM      7  C   UNL     1       5.232   5.210  19.355  0.00  0.00    +0.000 C 
ENDROOT
BRANCH   5   8
ATOM      8  C   UNL     1       3.724   3.216  17.398  0.00  0.00    +0.000 C 
ATOM      9  O   UNL     1       3.743   2.068  17.809  0.00  0.00    +0.000 OA
BRANCH   8  10
ATOM     10  O   UNL     1       2.599   3.937  17.159  0.00  0.00    +0.000 OA
ATOM     11  C   UNL     1       1.665   3.893  18.241  0.00  0.00    +0.000 C 
ENDBRANCH   8  10
ENDBRANCH   5   8
BRANCH   1  12
ATOM     12  C   UNL     1       7.568   6.367  17.858  0.00  0.00    +0.000 C 
BRANCH  12  14
ATOM     13  C   UNL     1       8.296   8.772  18.036  0.00  0.00    +0.000 C 
ATOM     14  C   UNL     1       7.247   7.816  17.494  0.00  0.00    +0.000 C 
ENDBRANCH  12  14
ENDBRANCH   1  12
TORSDOF 4
ENDMDL
MODEL 2
REMARK VINA RESULT:      -5.7      1.871      5.350
REMARK  Name = 
REMARK  7 active torsions:
REMARK  status: ('A' for Active; 'I' for Inactive)
REMARK    1  A    between atoms: C_1  and  C_2
REMARK    2  A    between atoms: C_2  and  C_3
REMARK    3  A    between atoms: C_3  and  N_4
REMARK    4  A    between atoms: C_8  and  C_9
REMARK    5  A    between atoms: C_9  and  O_11
REMARK    6  A    between atoms: O_11  and  C_12
REMARK    7  A    between atoms: C_13  and  C_14
REMARK                            x       y       z     vdW  Elec       q    Type
REMARK                         _______ _______ _______ _____ _____    ______ ____
ROOT
ATOM      1  N   UNL     1       3.829   4.435  17.984  0.00  0.00    +0.000 N 
ATOM      2  C   UNL     1       4.098   4.823  19.297  0.00  0.00    +0.000 C 
ATOM      3  O   UNL     1       3.302   4.914  20.219  0.00  0.00    +0.000 OA
ATOM      4  C   UNL     1       5.584   5.114  19.387  0.00  0.00    +0.000 C 
ATOM      5  C   UNL     1       6.011   4.818  17.977  0.00  0.00    +0.000 C 
ATOM      6  C   UNL     1       4.973   4.428  17.217  0.00  0.00    +0.000 C 
ATOM      7  C   UNL     1       4.929   4.038  15.777  0.00  0.00    +0.000 C 
ENDROOT
BRANCH   5   8
ATOM      8  C   UNL     1       7.408   4.957  17.535  0.00  0.00    +0.000 C 
ATOM      9  O   UNL     1       8.301   4.167  17.794  0.00  0.00    +0.000 OA
BRANCH   8  10
ATOM     10  O   UNL     1       7.558   6.085  16.796  0.00  0.00    +0.000 OA
ATOM     11  C   UNL     1       7.691   7.264  17.594  0.00  0.00    +0.000 C 
ENDBRANCH   8  10
ENDBRANCH   5   8
BRANCH   1  12
ATOM     12  C   UNL     1       2.502   4.037  17.549  0.00  0.00    +0.000 C 
BRANCH  12  14
ATOM     13  C   UNL     1       1.022   2.447  18.825  0.00  0.00    +0.000 C 
ATOM     14  C   UNL     1       2.203   2.575  17.878  0.00  0.00    +0.000 C 
ENDBRANCH  12  14
ENDBRANCH   1  12
TORSDOF 4
ENDMDL
MODEL 3
REMARK VINA RESULT:      -5.7      2.314      5.231
REMARK  Name = 
REMARK  7 active torsions:
REMARK  status: ('A' for Active; 'I' for Inactive)
REMARK    1  A    between atoms: C_1  and  C_2
REMARK    2  A    between atoms: C_2  and  C_3
REMARK    3  A    between atoms: C_3  and  N_4
REMARK    4  A    between atoms: C_8  and  C_9
REMARK    5  A    between atoms: C_9  and  O_11
REMARK    6  A    between atoms: O_11  and  C_12
REMARK    7  A    between atoms: C_13  and  C_14
REMARK                            x       y       z     vdW  Elec       q    Type
REMARK                         _______ _______ _______ _____ _____    ______ ____
ROOT
ATOM      1  N   UNL     1       2.707   4.408  18.228  0.00  0.00    +0.000 N 
ATOM      2  C   UNL     1       3.458   3.346  17.726  0.00  0.00    +0.000 C 
ATOM      3  O   UNL     1       3.253   2.153  17.890  0.00  0.00    +0.000 OA
ATOM      4  C   UNL     1       4.599   3.939  16.920  0.00  0.00    +0.000 C 
ATOM      5  C   UNL     1       4.316   5.406  17.077  0.00  0.00    +0.000 C 
ATOM      6  C   UNL     1       3.221   5.622  17.827  0.00  0.00    +0.000 C 
ATOM      7  C   UNL     1       2.575   6.903  18.239  0.00  0.00    +0.000 C 
ENDROOT
BRANCH   5   8
ATOM      8  C   UNL     1       5.167   6.438  16.464  0.00  0.00    +0.000 C 
ATOM      9  O   UNL     1       5.160   6.733  15.281  0.00  0.00    +0.000 OA
BRANCH   8  10
ATOM     10  O   UNL     1       5.955   7.018  17.405  0.00  0.00    +0.000 OA
ATOM     11  C   UNL     1       7.304   6.546  17.374  0.00  0.00    +0.000 C 
ENDBRANCH   8  10
ENDBRANCH   5   8
BRANCH   1  12
ATOM     12  C   UNL     1       1.504   4.205  19.016  0.00  0.00    +0.000 C 
BRANCH  12  14
ATOM     13  C   UNL     1       1.361   2.830  21.123  0.00  0.00    +0.000 C 
ATOM     14  C   UNL     1       1.800   4.152  20.515  0.00  0.00    +0.000 C 
ENDBRANCH  12  14
ENDBRANCH   1  12
TORSDOF 4
ENDMDL
MODEL 4
REMARK VINA RESULT:      -5.7      0.689      1.077
REMARK  Name = 
REMARK  7 active torsions:
REMARK  status: ('A' for Active; 'I' for Inactive)
REMARK    1  A    between atoms: C_1  and  C_2
REMARK    2  A    between atoms: C_2  and  C_3
REMARK    3  A    between atoms: C_3  and  N_4
REMARK    4  A    between atoms: C_8  and  C_9
REMARK    5  A    between atoms: C_9  and  O_11
REMARK    6  A    between atoms: O_11  and  C_12
REMARK    7  A    between atoms: C_13  and  C_14
REMARK                            x       y       z     vdW  Elec       q    Type
REMARK                         _______ _______ _______ _____ _____    ______ ____
ROOT
ATOM      1  N   UNL     1       6.473   5.277  17.381  0.00  0.00    +0.000 N 
ATOM      2  C   UNL     1       6.706   4.671  16.147  0.00  0.00    +0.000 C 
ATOM      3  O   UNL     1       7.658   4.850  15.404  0.00  0.00    +0.000 OA
ATOM      4  C   UNL     1       5.548   3.726  15.880  0.00  0.00    +0.000 C 
ATOM      5  C   UNL     1       4.731   3.932  17.124  0.00  0.00    +0.000 C 
ATOM      6  C   UNL     1       5.304   4.822  17.953  0.00  0.00    +0.000 C 
ATOM      7  C   UNL     1       4.854   5.326  19.284  0.00  0.00    +0.000 C 
ENDROOT
BRANCH   5   8
ATOM      8  C   UNL     1       3.463   3.221  17.356  0.00  0.00    +0.000 C 
ATOM      9  O   UNL     1       2.398   3.511  16.836  0.00  0.00    +0.000 OA
BRANCH   8  10
ATOM     10  O   UNL     1       3.650   2.195  18.224  0.00  0.00    +0.000 OA
ATOM     11  C   UNL     1       2.515   1.955  19.059  0.00  0.00    +0.000 C 
ENDBRANCH   8  10
ENDBRANCH   5   8
BRANCH   1  12
ATOM     12  C   UNL     1       7.410   6.215  17.975  0.00  0.00    +0.000 C 
BRANCH  12  14
ATOM     13  C   UNL     1       8.230   8.596  18.042  0.00  0.00    +0.000 C 
ATOM     14  C   UNL     1       7.268   7.619  17.388  0.00  0.00    +0.000 C 
ENDBRANCH  12  14
ENDBRANCH   1  12
TORSDOF 4
ENDMDL
MODEL 5
REMARK VINA RESULT:      -5.6      1.059      1.636
REMARK  Name = 
REMARK  7 active torsions:
REMARK  status: ('A' for Active; 'I' for Inactive)
REMARK    1  A    between atoms: C_1  and  C_2
REMARK    2  A    between atoms: C_2  and  C_3
REMARK    3  A    between atoms: C_3  and  N_4
REMARK    4  A    between atoms: C_8  and  C_9
REMARK    5  A    between atoms: C_9  and  O_11
REMARK    6  A    between atoms: O_11  and  C_12
REMARK    7  A    between atoms: C_13  and  C_14
REMARK                            x       y       z     vdW  Elec       q    Type
REMARK                         _______ _______ _______ _____ _____    ______ ____
ROOT
ATOM      1  N   UNL     1       5.794   5.921  16.926  0.00  0.00    +0.000 N 
ATOM      2  C   UNL     1       6.322   5.115  15.917  0.00  0.00    +0.000 C 
ATOM      3  O   UNL     1       7.307   5.341  15.231  0.00  0.00    +0.000 OA
ATOM      4  C   UNL     1       5.447   3.880  15.818  0.00  0.00    +0.000 C 
ATOM      5  C   UNL     1       4.439   4.167  16.895  0.00  0.00    +0.000 C 
ATOM      6  C   UNL     1       4.684   5.342  17.502  0.00  0.00    +0.000 C 
ATOM      7  C   UNL     1       3.954   6.021  18.613  0.00  0.00    +0.000 C 
ENDROOT
BRANCH   5   8
ATOM      8  C   UNL     1       3.337   3.243  17.204  0.00  0.00    +0.000 C 
ATOM      9  O   UNL     1       2.162   3.452  16.949  0.00  0.00    +0.000 OA
BRANCH   8  10
ATOM     10  O   UNL     1       3.814   2.125  17.807  0.00  0.00    +0.000 OA
ATOM     11  C   UNL     1       3.764   2.194  19.234  0.00  0.00    +0.000 C 
ENDBRANCH   8  10
ENDBRANCH   5   8
BRANCH   1  12
ATOM     12  C   UNL     1       6.412   7.173  17.324  0.00  0.00    +0.000 C 
BRANCH  12  14
ATOM     13  C   UNL     1       7.702   5.941  19.103  0.00  0.00    +0.000 C 
ATOM     14  C   UNL     1       7.777   6.959  17.977  0.00  0.00    +0.000 C 
ENDBRANCH  12  14
ENDBRANCH   1  12
TORSDOF 4
ENDMDL
MODEL 6
REMARK VINA RESULT:      -5.5      0.995      1.210
REMARK  Name = 
REMARK  7 active torsions:
REMARK  status: ('A' for Active; 'I' for Inactive)
REMARK    1  A    between atoms: C_1  and  C_2
REMARK    2  A    between atoms: C_2  and  C_3
REMARK    3  A    between atoms: C_3  and  N_4
REMARK    4  A    between atoms: C_8  and  C_9
REMARK    5  A    between atoms: C_9  and  O_11
REMARK    6  A    between atoms: O_11  and  C_12
REMARK    7  A    between atoms: C_13  and  C_14
REMARK                            x       y       z     vdW  Elec       q    Type
REMARK                         _______ _______ _______ _____ _____    ______ ____
ROOT
ATOM      1  N   UNL     1       5.475   5.883  16.986  0.00  0.00    +0.000 N 
ATOM      2  C   UNL     1       5.767   5.256  15.775  0.00  0.00    +0.000 C 
ATOM      3  O   UNL     1       6.514   5.659  14.896  0.00  0.00    +0.000 OA
ATOM      4  C   UNL     1       4.982   3.958  15.735  0.00  0.00    +0.000 C 
ATOM      5  C   UNL     1       4.283   4.016  17.064  0.00  0.00    +0.000 C 
ATOM      6  C   UNL     1       4.602   5.131  17.743  0.00  0.00    +0.000 C 
ATOM      7  C   UNL     1       4.153   5.601  19.088  0.00  0.00    +0.000 C 
ENDROOT
BRANCH   5   8
ATOM      8  C   UNL     1       3.369   2.955  17.515  0.00  0.00    +0.000 C 
ATOM      9  O   UNL     1       3.718   1.923  18.063  0.00  0.00    +0.000 OA
BRANCH   8  10
ATOM     10  O   UNL     1       2.084   3.293  17.241  0.00  0.00    +0.000 OA
ATOM     11  C   UNL     1       1.234   3.243  18.390  0.00  0.00    +0.000 C 
ENDBRANCH   8  10
ENDBRANCH   5   8
BRANCH   1  12
ATOM     12  C   UNL     1       6.092   7.137  17.381  0.00  0.00    +0.000 C 
BRANCH  12  14
ATOM     13  C   UNL     1       7.830   6.142  18.909  0.00  0.00    +0.000 C 
ATOM     14  C   UNL     1       7.585   6.980  17.666  0.00  0.00    +0.000 C 
ENDBRANCH  12  14
ENDBRANCH   1  12
TORSDOF 4
ENDMDL
MODEL 7
REMARK VINA RESULT:      -5.5      2.207      5.139
REMARK  Name = 
REMARK  7 active torsions:
REMARK  status: ('A' for Active; 'I' for Inactive)
REMARK    1  A    between atoms: C_1  and  C_2
REMARK    2  A    between atoms: C_2  and  C_3
REMARK    3  A    between atoms: C_3  and  N_4
REMARK    4  A    between atoms: C_8  and  C_9
REMARK    5  A    between atoms: C_9  and  O_11
REMARK    6  A    between atoms: O_11  and  C_12
REMARK    7  A    between atoms: C_13  and  C_14
REMARK                            x       y       z     vdW  Elec       q    Type
REMARK                         _______ _______ _______ _____ _____    ______ ____
ROOT
ATOM      1  N   UNL     1       3.799   4.987  19.224  0.00  0.00    +0.000 N 
ATOM      2  C   UNL     1       4.763   3.984  19.122  0.00  0.00    +0.000 C 
ATOM      3  O   UNL     1       4.858   2.978  19.809  0.00  0.00    +0.000 OA
ATOM      4  C   UNL     1       5.691   4.361  17.982  0.00  0.00    +0.000 C 
ATOM      5  C   UNL     1       5.069   5.654  17.535  0.00  0.00    +0.000 C 
ATOM      6  C   UNL     1       3.988   5.965  18.271  0.00  0.00    +0.000 C 
ATOM      7  C   UNL     1       3.069   7.138  18.184  0.00  0.00    +0.000 C 
ENDROOT
BRANCH   5   8
ATOM      8  C   UNL     1       5.618   6.444  16.422  0.00  0.00    +0.000 C 
ATOM      9  O   UNL     1       5.493   6.164  15.241  0.00  0.00    +0.000 OA
BRANCH   8  10
ATOM     10  O   UNL     1       6.279   7.530  16.897  0.00  0.00    +0.000 OA
ATOM     11  C   UNL     1       7.547   7.208  17.472  0.00  0.00    +0.000 C 
ENDBRANCH   8  10
ENDBRANCH   5   8
BRANCH   1  12
ATOM     12  C   UNL     1       2.716   4.928  20.189  0.00  0.00    +0.000 C 
BRANCH  12  14
ATOM     13  C   UNL     1       1.205   2.966  20.657  0.00  0.00    +0.000 C 
ATOM     14  C   UNL     1       1.543   4.086  19.687  0.00  0.00    +0.000 C 
ENDBRANCH  12  14
ENDBRANCH   1  12
TORSDOF 4
ENDMDL
MODEL 8
REMARK VINA RESULT:      -5.4      2.477      5.370
REMARK  Name = 
REMARK  7 active torsions:
REMARK  status: ('A' for Active; 'I' for Inactive)
REMARK    1  A    between atoms: C_1  and  C_2
REMARK    2  A    between atoms: C_2  and  C_3
REMARK    3  A    between atoms: C_3  and  N_4
REMARK    4  A    between atoms: C_8  and  C_9
REMARK    5  A    between atoms: C_9  and  O_11
REMARK    6  A    between atoms: O_11  and  C_12
REMARK    7  A    between atoms: C_13  and  C_14
REMARK                            x       y       z     vdW  Elec       q    Type
REMARK                         _______ _______ _______ _____ _____    ______ ____
ROOT
ATOM      1  N   UNL     1       2.687   3.079  18.659  0.00  0.00    +0.000 N 
ATOM      2  C   UNL     1       2.337   4.004  17.676  0.00  0.00    +0.000 C 
ATOM      3  O   UNL     1       1.229   4.190  17.198  0.00  0.00    +0.000 OA
ATOM      4  C   UNL     1       3.597   4.760  17.297  0.00  0.00    +0.000 C 
ATOM      5  C   UNL     1       4.597   4.108  18.208  0.00  0.00    +0.000 C 
ATOM      6  C   UNL     1       4.027   3.158  18.971  0.00  0.00    +0.000 C 
ATOM      7  C   UNL     1       4.629   2.266  20.006  0.00  0.00    +0.000 C 
ENDROOT
BRANCH   5   8
ATOM      8  C   UNL     1       6.016   4.497  18.223  0.00  0.00    +0.000 C 
ATOM      9  O   UNL     1       6.797   4.314  17.303  0.00  0.00    +0.000 OA
BRANCH   8  10
ATOM     10  O   UNL     1       6.329   5.093  19.401  0.00  0.00    +0.000 OA
ATOM     11  C   UNL     1       7.636   5.673  19.405  0.00  0.00    +0.000 C 
ENDBRANCH   8  10
ENDBRANCH   5   8
BRANCH   1  12
ATOM     12  C   UNL     1       1.710   2.208  19.289  0.00  0.00    +0.000 C 
BRANCH  12  14
ATOM     13  C   UNL     1       1.042   4.215  20.657  0.00  0.00    +0.000 C 
ATOM     14  C   UNL     1       1.292   2.716  20.669  0.00  0.00    +0.000 C 
ENDBRANCH  12  14
ENDBRANCH   1  12
TORSDOF 4
ENDMDL
MODEL 9
REMARK VINA RESULT:      -5.4      1.661      2.038
REMARK  Name = 
REMARK  7 active torsions:
REMARK  status: ('A' for Active; 'I' for Inactive)
REMARK    1  A    between atoms: C_1  and  C_2
REMARK    2  A    between atoms: C_2  and  C_3
REMARK    3  A    between atoms: C_3  and  N_4
REMARK    4  A    between atoms: C_8  and  C_9
REMARK    5  A    between atoms: C_9  and  O_11
REMARK    6  A    between atoms: O_11  and  C_12
REMARK    7  A    between atoms: C_13  and  C_14
REMARK                            x       y       z     vdW  Elec       q    Type
REMARK                         _______ _______ _______ _____ _____    ______ ____
ROOT
ATOM      1  N   UNL     1       5.143   5.671  16.831  0.00  0.00    +0.000 N 
ATOM      2  C   UNL     1       5.452   4.352  16.500  0.00  0.00    +0.000 C 
ATOM      3  O   UNL     1       6.475   3.943  15.973  0.00  0.00    +0.000 OA
ATOM      4  C   UNL     1       4.274   3.492  16.919  0.00  0.00    +0.000 C 
ATOM      5  C   UNL     1       3.361   4.536  17.499  0.00  0.00    +0.000 C 
ATOM      6  C   UNL     1       3.906   5.763  17.431  0.00  0.00    +0.000 C 
ATOM      7  C   UNL     1       3.366   7.081  17.880  0.00  0.00    +0.000 C 
ENDROOT
BRANCH   5   8
ATOM      8  C   UNL     1       2.042   4.200  18.058  0.00  0.00    +0.000 C 
ATOM      9  O   UNL     1       1.031   4.024  17.398  0.00  0.00    +0.000 OA
BRANCH   8  10
ATOM     10  O   UNL     1       2.112   4.110  19.410  0.00  0.00    +0.000 OA
ATOM     11  C   UNL     1       2.048   2.763  19.885  0.00  0.00    +0.000 C 
ENDBRANCH   8  10
ENDBRANCH   5   8
BRANCH   1  12
ATOM     12  C   UNL     1       6.072   6.766  16.609  0.00  0.00    +0.000 C 
BRANCH  12  14
ATOM     13  C   UNL     1       7.864   8.166  17.693  0.00  0.00    +0.000 C 
ATOM     14  C   UNL     1       7.165   6.817  17.676  0.00  0.00    +0.000 C 
ENDBRANCH  12  14
ENDBRANCH   1  12
TORSDOF 4
ENDMDL
