MODEL 1
REMARK VINA RESULT:      -7.9      0.000      0.000
REMARK  Name = 
REMARK  6 active torsions:
REMARK  status: ('A' for Active; 'I' for Inactive)
REMARK    1  A    between atoms: C_1  and  O_2
REMARK    2  A    between atoms: O_2  and  C_3
REMARK    3  A    between atoms: C_7  and  C_8
REMARK    4  A    between atoms: C_10  and  C_11
REMARK    5  A    between atoms: C_11  and  O_12
REMARK    6  A    between atoms: O_12  and  C_13
REMARK                            x       y       z     vdW  Elec       q    Type
REMARK                         _______ _______ _______ _____ _____    ______ ____
ROOT
ATOM      1  C   UNL     1       6.703   4.507  15.979  0.00  0.00    +0.000 A 
ATOM      2  N   UNL     1       5.650   4.605  16.758  0.00  0.00    +0.000 NA
ATOM      3  C   UNL     1       6.215   4.606  18.011  0.00  0.00    +0.000 A 
ATOM      4  N   UNL     1       7.552   4.540  18.033  0.00  0.00    +0.000 NA
ATOM      5  O   UNL     1       7.881   4.467  16.677  0.00  0.00    +0.000 OA
ENDROOT
BRANCH   1  10
ATOM      6  C   UNL     1       6.111   3.496  12.401  0.00  0.00    +0.000 A 
ATOM      7  C   UNL     1       7.022   4.323  11.741  0.00  0.00    +0.000 A 
ATOM      8  C   UNL     1       7.806   5.227  12.459  0.00  0.00    +0.000 A 
ATOM      9  C   UNL     1       7.687   5.299  13.847  0.00  0.00    +0.000 A 
ATOM     10  C   UNL     1       6.789   4.464  14.528  0.00  0.00    +0.000 A 
ATOM     11  C   UNL     1       5.997   3.577  13.787  0.00  0.00    +0.000 A 
BRANCH   6  13
ATOM     12  C   UNL     1       4.086   3.070  11.246  0.00  0.00    +0.000 C 
ATOM     13  O   UNL     1       5.399   2.645  11.601  0.00  0.00    +0.000 OA
ENDBRANCH   6  13
ENDBRANCH   1  10
BRANCH   3  14
ATOM     14  C   UNL     1       5.379   4.698  19.237  0.00  0.00    +0.000 C 
BRANCH  14  15
ATOM     15  O   UNL     1       3.996   4.542  18.918  0.00  0.00    +0.000 OA
BRANCH  15  16
ATOM     16  C   UNL     1       3.095   5.453  19.386  0.00  0.00    +0.000 A 
ATOM     17  C   UNL     1       3.124   6.658  18.665  0.00  0.00    +0.000 A 
ATOM     18  C   UNL     1       2.340   7.753  19.050  0.00  0.00    +0.000 A 
ATOM     19  C   UNL     1       1.518   7.645  20.160  0.00  0.00    +0.000 A 
ATOM     20 CL   UNL     1       0.580   8.991  20.677  0.00  0.00    +0.000 Cl
ATOM     21  C   UNL     1       1.468   6.460  20.887  0.00  0.00    +0.000 A 
ATOM     22  C   UNL     1       2.259   5.364  20.514  0.00  0.00    +0.000 A 
ATOM     23 CL   UNL     1       2.171   4.022  21.593  0.00  0.00    +0.000 Cl
ENDBRANCH  15  16
ENDBRANCH  14  15
ENDBRANCH   3  14
TORSDOF 5
ENDMDL
MODEL 2
REMARK VINA RESULT:      -7.7      5.110      7.127
REMARK  Name = 
REMARK  6 active torsions:
REMARK  status: ('A' for Active; 'I' for Inactive)
REMARK    1  A    between atoms: C_1  and  O_2
REMARK    2  A    between atoms: O_2  and  C_3
REMARK    3  A    between atoms: C_7  and  C_8
REMARK    4  A    between atoms: C_10  and  C_11
REMARK    5  A    between atoms: C_11  and  O_12
REMARK    6  A    between atoms: O_12  and  C_13
REMARK                            x       y       z     vdW  Elec       q    Type
REMARK                         _______ _______ _______ _____ _____    ______ ____
ROOT
ATOM      1  C   UNL     1       8.131   8.460  18.070  0.00  0.00    +0.000 A 
ATOM      2  N   UNL     1       7.371   8.012  17.098  0.00  0.00    +0.000 NA
ATOM      3  C   UNL     1       7.286   6.671  17.390  0.00  0.00    +0.000 A 
ATOM      4  N   UNL     1       7.931   6.289  18.499  0.00  0.00    +0.000 NA
ATOM      5  O   UNL     1       8.502   7.480  18.952  0.00  0.00    +0.000 OA
ENDROOT
BRANCH   1  10
ATOM      6  C   UNL     1       9.723  11.402  19.800  0.00  0.00    +0.000 A 
ATOM      7  C   UNL     1       9.406  12.431  18.911  0.00  0.00    +0.000 A 
ATOM      8  C   UNL     1       8.701  12.161  17.738  0.00  0.00    +0.000 A 
ATOM      9  C   UNL     1       8.299  10.855  17.454  0.00  0.00    +0.000 A 
ATOM     10  C   UNL     1       8.594   9.812  18.344  0.00  0.00    +0.000 A 
ATOM     11  C   UNL     1       9.320  10.100  19.507  0.00  0.00    +0.000 A 
BRANCH   6  13
ATOM     12  C   UNL     1       9.865  12.876  21.650  0.00  0.00    +0.000 C 
ATOM     13  O   UNL     1      10.410  11.779  20.921  0.00  0.00    +0.000 OA
ENDBRANCH   6  13
ENDBRANCH   1  10
BRANCH   3  14
ATOM     14  C   UNL     1       6.508   5.740  16.531  0.00  0.00    +0.000 C 
BRANCH  14  15
ATOM     15  O   UNL     1       5.146   6.158  16.436  0.00  0.00    +0.000 OA
BRANCH  15  16
ATOM     16  C   UNL     1       4.183   5.460  17.104  0.00  0.00    +0.000 A 
ATOM     17  C   UNL     1       4.261   4.077  16.869  0.00  0.00    +0.000 A 
ATOM     18  C   UNL     1       3.304   3.198  17.390  0.00  0.00    +0.000 A 
ATOM     19  C   UNL     1       2.263   3.700  18.154  0.00  0.00    +0.000 A 
ATOM     20 CL   UNL     1       1.051   2.643  18.767  0.00  0.00    +0.000 Cl
ATOM     21  C   UNL     1       2.167   5.064  18.405  0.00  0.00    +0.000 A 
ATOM     22  C   UNL     1       3.115   5.951  17.877  0.00  0.00    +0.000 A 
ATOM     23 CL   UNL     1       2.779   7.616  18.177  0.00  0.00    +0.000 Cl
ENDBRANCH  15  16
ENDBRANCH  14  15
ENDBRANCH   3  14
TORSDOF 5
ENDMDL
MODEL 3
REMARK VINA RESULT:      -7.7      1.862      2.758
REMARK  Name = 
REMARK  6 active torsions:
REMARK  status: ('A' for Active; 'I' for Inactive)
REMARK    1  A    between atoms: C_1  and  O_2
REMARK    2  A    between atoms: O_2  and  C_3
REMARK    3  A    between atoms: C_7  and  C_8
REMARK    4  A    between atoms: C_10  and  C_11
REMARK    5  A    between atoms: C_11  and  O_12
REMARK    6  A    between atoms: O_12  and  C_13
REMARK                            x       y       z     vdW  Elec       q    Type
REMARK                         _______ _______ _______ _____ _____    ______ ____
ROOT
ATOM      1  C   UNL     1       6.517   5.223  15.652  0.00  0.00    +0.000 A 
ATOM      2  N   UNL     1       6.551   4.515  16.756  0.00  0.00    +0.000 NA
ATOM      3  C   UNL     1       6.324   5.468  17.721  0.00  0.00    +0.000 A 
ATOM      4  N   UNL     1       6.129   6.709  17.258  0.00  0.00    +0.000 NA
ATOM      5  O   UNL     1       6.264   6.550  15.877  0.00  0.00    +0.000 OA
ENDROOT
BRANCH   1  10
ATOM      6  C   UNL     1       6.073   3.338  12.423  0.00  0.00    +0.000 A 
ATOM      7  C   UNL     1       7.054   3.938  11.632  0.00  0.00    +0.000 A 
ATOM      8  C   UNL     1       7.838   4.973  12.142  0.00  0.00    +0.000 A 
ATOM      9  C   UNL     1       7.649   5.407  13.455  0.00  0.00    +0.000 A 
ATOM     10  C   UNL     1       6.679   4.803  14.268  0.00  0.00    +0.000 A 
ATOM     11  C   UNL     1       5.888   3.778  13.732  0.00  0.00    +0.000 A 
BRANCH   6  13
ATOM     12  C   UNL     1       6.141   1.318  11.187  0.00  0.00    +0.000 C 
ATOM     13  O   UNL     1       5.367   2.329  11.826  0.00  0.00    +0.000 OA
ENDBRANCH   6  13
ENDBRANCH   1  10
BRANCH   3  14
ATOM     14  C   UNL     1       6.281   5.114  19.164  0.00  0.00    +0.000 C 
BRANCH  14  15
ATOM     15  O   UNL     1       5.067   5.572  19.761  0.00  0.00    +0.000 OA
BRANCH  15  16
ATOM     16  C   UNL     1       3.904   4.907  19.505  0.00  0.00    +0.000 A 
ATOM     17  C   UNL     1       3.955   3.561  19.905  0.00  0.00    +0.000 A 
ATOM     18  C   UNL     1       2.894   2.686  19.643  0.00  0.00    +0.000 A 
ATOM     19  C   UNL     1       1.771   3.155  18.981  0.00  0.00    +0.000 A 
ATOM     20 CL   UNL     1       0.475   2.087  18.610  0.00  0.00    +0.000 Cl
ATOM     21  C   UNL     1       1.696   4.485  18.579  0.00  0.00    +0.000 A 
ATOM     22  C   UNL     1       2.759   5.363  18.827  0.00  0.00    +0.000 A 
ATOM     23 CL   UNL     1       2.554   6.938  18.154  0.00  0.00    +0.000 Cl
ENDBRANCH  15  16
ENDBRANCH  14  15
ENDBRANCH   3  14
TORSDOF 5
ENDMDL
MODEL 4
REMARK VINA RESULT:      -7.7      1.113      1.580
REMARK  Name = 
REMARK  6 active torsions:
REMARK  status: ('A' for Active; 'I' for Inactive)
REMARK    1  A    between atoms: C_1  and  O_2
REMARK    2  A    between atoms: O_2  and  C_3
REMARK    3  A    between atoms: C_7  and  C_8
REMARK    4  A    between atoms: C_10  and  C_11
REMARK    5  A    between atoms: C_11  and  O_12
REMARK    6  A    between atoms: O_12  and  C_13
REMARK                            x       y       z     vdW  Elec       q    Type
REMARK                         _______ _______ _______ _____ _____    ______ ____
ROOT
ATOM      1  C   UNL     1       6.638   4.420  16.048  0.00  0.00    +0.000 A 
ATOM      2  N   UNL     1       5.574   4.417  16.817  0.00  0.00    +0.000 NA
ATOM      3  C   UNL     1       6.125   4.471  18.076  0.00  0.00    +0.000 A 
ATOM      4  N   UNL     1       7.462   4.532  18.109  0.00  0.00    +0.000 NA
ATOM      5  O   UNL     1       7.808   4.492  16.757  0.00  0.00    +0.000 OA
ENDROOT
BRANCH   1  10
ATOM      6  C   UNL     1       6.072   3.447  12.455  0.00  0.00    +0.000 A 
ATOM      7  C   UNL     1       7.006   4.263  11.812  0.00  0.00    +0.000 A 
ATOM      8  C   UNL     1       7.796   5.147  12.547  0.00  0.00    +0.000 A 
ATOM      9  C   UNL     1       7.662   5.211  13.934  0.00  0.00    +0.000 A 
ATOM     10  C   UNL     1       6.741   4.387  14.597  0.00  0.00    +0.000 A 
ATOM     11  C   UNL     1       5.942   3.519  13.841  0.00  0.00    +0.000 A 
BRANCH   6  13
ATOM     12  C   UNL     1       4.109   3.120  11.168  0.00  0.00    +0.000 C 
ATOM     13  O   UNL     1       5.355   2.614  11.640  0.00  0.00    +0.000 OA
ENDBRANCH   6  13
ENDBRANCH   1  10
BRANCH   3  14
ATOM     14  C   UNL     1       5.273   4.481  19.294  0.00  0.00    +0.000 C 
BRANCH  14  15
ATOM     15  O   UNL     1       3.892   4.588  18.944  0.00  0.00    +0.000 OA
BRANCH  15  16
ATOM     16  C   UNL     1       3.195   5.703  19.305  0.00  0.00    +0.000 A 
ATOM     17  C   UNL     1       2.399   5.495  20.443  0.00  0.00    +0.000 A 
ATOM     18  C   UNL     1       1.537   6.492  20.917  0.00  0.00    +0.000 A 
ATOM     19  C   UNL     1       1.469   7.706  20.253  0.00  0.00    +0.000 A 
ATOM     20 CL   UNL     1       0.384   8.928  20.791  0.00  0.00    +0.000 Cl
ATOM     21  C   UNL     1       2.251   7.937  19.127  0.00  0.00    +0.000 A 
ATOM     22  C   UNL     1       3.108   6.940  18.640  0.00  0.00    +0.000 A 
ATOM     23 CL   UNL     1       3.909   7.345  17.167  0.00  0.00    +0.000 Cl
ENDBRANCH  15  16
ENDBRANCH  14  15
ENDBRANCH   3  14
TORSDOF 5
ENDMDL
MODEL 5
REMARK VINA RESULT:      -7.6      5.030      6.825
REMARK  Name = 
REMARK  6 active torsions:
REMARK  status: ('A' for Active; 'I' for Inactive)
REMARK    1  A    between atoms: C_1  and  O_2
REMARK    2  A    between atoms: O_2  and  C_3
REMARK    3  A    between atoms: C_7  and  C_8
REMARK    4  A    between atoms: C_10  and  C_11
REMARK    5  A    between atoms: C_11  and  O_12
REMARK    6  A    between atoms: O_12  and  C_13
REMARK                            x       y       z     vdW  Elec       q    Type
REMARK                         _______ _______ _______ _____ _____    ______ ____
ROOT
ATOM      1  C   UNL     1       8.116   8.402  18.086  0.00  0.00    +0.000 A 
ATOM      2  N   UNL     1       7.344   7.992  17.106  0.00  0.00    +0.000 NA
ATOM      3  C   UNL     1       7.249   6.643  17.355  0.00  0.00    +0.000 A 
ATOM      4  N   UNL     1       7.899   6.220  18.445  0.00  0.00    +0.000 NA
ATOM      5  O   UNL     1       8.484   7.390  18.932  0.00  0.00    +0.000 OA
ENDROOT
BRANCH   1  10
ATOM      6  C   UNL     1       8.665  12.123  17.918  0.00  0.00    +0.000 A 
ATOM      7  C   UNL     1       9.584  12.299  18.954  0.00  0.00    +0.000 A 
ATOM      8  C   UNL     1      10.001  11.212  19.722  0.00  0.00    +0.000 A 
ATOM      9  C   UNL     1       9.504   9.937  19.449  0.00  0.00    +0.000 A 
ATOM     10  C   UNL     1       8.593   9.740  18.400  0.00  0.00    +0.000 A 
ATOM     11  C   UNL     1       8.172  10.847  17.652  0.00  0.00    +0.000 A 
BRANCH   6  13
ATOM     12  C   UNL     1       8.057  14.411  18.011  0.00  0.00    +0.000 C 
ATOM     13  O   UNL     1       8.332  13.255  17.225  0.00  0.00    +0.000 OA
ENDBRANCH   6  13
ENDBRANCH   1  10
BRANCH   3  14
ATOM     14  C   UNL     1       6.456   5.747  16.472  0.00  0.00    +0.000 C 
BRANCH  14  15
ATOM     15  O   UNL     1       5.092   6.167  16.420  0.00  0.00    +0.000 OA
BRANCH  15  16
ATOM     16  C   UNL     1       4.148   5.458  17.104  0.00  0.00    +0.000 A 
ATOM     17  C   UNL     1       4.244   4.075  16.877  0.00  0.00    +0.000 A 
ATOM     18  C   UNL     1       3.307   3.185  17.414  0.00  0.00    +0.000 A 
ATOM     19  C   UNL     1       2.266   3.676  18.186  0.00  0.00    +0.000 A 
ATOM     20 CL   UNL     1       1.078   2.605  18.819  0.00  0.00    +0.000 Cl
ATOM     21  C   UNL     1       2.152   5.041  18.428  0.00  0.00    +0.000 A 
ATOM     22  C   UNL     1       3.081   5.939  17.884  0.00  0.00    +0.000 A 
ATOM     23 CL   UNL     1       2.722   7.600  18.177  0.00  0.00    +0.000 Cl
ENDBRANCH  15  16
ENDBRANCH  14  15
ENDBRANCH   3  14
TORSDOF 5
ENDMDL
MODEL 6
REMARK VINA RESULT:      -7.5      5.127      6.981
REMARK  Name = 
REMARK  6 active torsions:
REMARK  status: ('A' for Active; 'I' for Inactive)
REMARK    1  A    between atoms: C_1  and  O_2
REMARK    2  A    between atoms: O_2  and  C_3
REMARK    3  A    between atoms: C_7  and  C_8
REMARK    4  A    between atoms: C_10  and  C_11
REMARK    5  A    between atoms: C_11  and  O_12
REMARK    6  A    between atoms: O_12  and  C_13
REMARK                            x       y       z     vdW  Elec       q    Type
REMARK                         _______ _______ _______ _____ _____    ______ ____
ROOT
ATOM      1  C   UNL     1       8.124   8.638  18.004  0.00  0.00    +0.000 A 
ATOM      2  N   UNL     1       7.279   8.216  17.092  0.00  0.00    +0.000 NA
ATOM      3  C   UNL     1       7.156   6.883  17.405  0.00  0.00    +0.000 A 
ATOM      4  N   UNL     1       7.859   6.482  18.470  0.00  0.00    +0.000 NA
ATOM      5  O   UNL     1       8.513   7.650  18.869  0.00  0.00    +0.000 OA
ENDROOT
BRANCH   1  10
ATOM      6  C   UNL     1      10.187  11.458  19.408  0.00  0.00    +0.000 A 
ATOM      7  C   UNL     1       9.641  12.547  18.725  0.00  0.00    +0.000 A 
ATOM      8  C   UNL     1       8.623  12.358  17.790  0.00  0.00    +0.000 A 
ATOM      9  C   UNL     1       8.139  11.072  17.541  0.00  0.00    +0.000 A 
ATOM     10  C   UNL     1       8.665   9.970  18.230  0.00  0.00    +0.000 A 
ATOM     11  C   UNL     1       9.699  10.178  19.151  0.00  0.00    +0.000 A 
BRANCH   6  13
ATOM     12  C   UNL     1      12.322  12.415  19.778  0.00  0.00    +0.000 C 
ATOM     13  O   UNL     1      11.173  11.758  20.307  0.00  0.00    +0.000 OA
ENDBRANCH   6  13
ENDBRANCH   1  10
BRANCH   3  14
ATOM     14  C   UNL     1       6.279   5.980  16.613  0.00  0.00    +0.000 C 
BRANCH  14  15
ATOM     15  O   UNL     1       4.941   6.477  16.579  0.00  0.00    +0.000 OA
BRANCH  15  16
ATOM     16  C   UNL     1       4.062   6.100  17.551  0.00  0.00    +0.000 A 
ATOM     17  C   UNL     1       4.160   4.734  17.864  0.00  0.00    +0.000 A 
ATOM     18  C   UNL     1       3.279   4.133  18.771  0.00  0.00    +0.000 A 
ATOM     19  C   UNL     1       2.294   4.898  19.373  0.00  0.00    +0.000 A 
ATOM     20 CL   UNL     1       1.173   4.171  20.457  0.00  0.00    +0.000 Cl
ATOM     21  C   UNL     1       2.180   6.253  19.082  0.00  0.00    +0.000 A 
ATOM     22  C   UNL     1       3.051   6.859  18.167  0.00  0.00    +0.000 A 
ATOM     23 CL   UNL     1       2.692   8.512  17.828  0.00  0.00    +0.000 Cl
ENDBRANCH  15  16
ENDBRANCH  14  15
ENDBRANCH   3  14
TORSDOF 5
ENDMDL
MODEL 7
REMARK VINA RESULT:      -7.4      1.472      2.358
REMARK  Name = 
REMARK  6 active torsions:
REMARK  status: ('A' for Active; 'I' for Inactive)
REMARK    1  A    between atoms: C_1  and  O_2
REMARK    2  A    between atoms: O_2  and  C_3
REMARK    3  A    between atoms: C_7  and  C_8
REMARK    4  A    between atoms: C_10  and  C_11
REMARK    5  A    between atoms: C_11  and  O_12
REMARK    6  A    between atoms: O_12  and  C_13
REMARK                            x       y       z     vdW  Elec       q    Type
REMARK                         _______ _______ _______ _____ _____    ______ ____
ROOT
ATOM      1  C   UNL     1       6.936   4.718  16.033  0.00  0.00    +0.000 A 
ATOM      2  N   UNL     1       6.030   5.241  16.825  0.00  0.00    +0.000 NA
ATOM      3  C   UNL     1       6.583   5.046  18.068  0.00  0.00    +0.000 A 
ATOM      4  N   UNL     1       7.785   4.458  18.070  0.00  0.00    +0.000 NA
ATOM      5  O   UNL     1       8.022   4.231  16.712  0.00  0.00    +0.000 OA
ENDROOT
BRANCH   1  10
ATOM      6  C   UNL     1       6.194   3.552  12.530  0.00  0.00    +0.000 A 
ATOM      7  C   UNL     1       7.070   4.354  11.796  0.00  0.00    +0.000 A 
ATOM      8  C   UNL     1       7.880   5.290  12.439  0.00  0.00    +0.000 A 
ATOM      9  C   UNL     1       7.821   5.422  13.827  0.00  0.00    +0.000 A 
ATOM     10  C   UNL     1       6.959   4.613  14.582  0.00  0.00    +0.000 A 
ATOM     11  C   UNL     1       6.140   3.692  13.916  0.00  0.00    +0.000 A 
BRANCH   6  13
ATOM     12  C   UNL     1       4.200   3.142  11.317  0.00  0.00    +0.000 C 
ATOM     13  O   UNL     1       5.453   2.664  11.800  0.00  0.00    +0.000 OA
ENDBRANCH   6  13
ENDBRANCH   1  10
BRANCH   3  14
ATOM     14  C   UNL     1       5.885   5.488  19.305  0.00  0.00    +0.000 C 
BRANCH  14  15
ATOM     15  O   UNL     1       4.557   5.922  19.007  0.00  0.00    +0.000 OA
BRANCH  15  16
ATOM     16  C   UNL     1       3.520   5.048  19.149  0.00  0.00    +0.000 A 
ATOM     17  C   UNL     1       3.716   3.858  18.428  0.00  0.00    +0.000 A 
ATOM     18  C   UNL     1       2.723   2.873  18.370  0.00  0.00    +0.000 A 
ATOM     19  C   UNL     1       1.526   3.073  19.038  0.00  0.00    +0.000 A 
ATOM     20 CL   UNL     1       0.275   1.895  18.944  0.00  0.00    +0.000 Cl
ATOM     21  C   UNL     1       1.310   4.240  19.763  0.00  0.00    +0.000 A 
ATOM     22  C   UNL     1       2.296   5.236  19.815  0.00  0.00    +0.000 A 
ATOM     23 CL   UNL     1       1.818   6.668  20.650  0.00  0.00    +0.000 Cl
ENDBRANCH  15  16
ENDBRANCH  14  15
ENDBRANCH   3  14
TORSDOF 5
ENDMDL
MODEL 8
REMARK VINA RESULT:      -7.4      3.685      8.345
REMARK  Name = 
REMARK  6 active torsions:
REMARK  status: ('A' for Active; 'I' for Inactive)
REMARK    1  A    between atoms: C_1  and  O_2
REMARK    2  A    between atoms: O_2  and  C_3
REMARK    3  A    between atoms: C_7  and  C_8
REMARK    4  A    between atoms: C_10  and  C_11
REMARK    5  A    between atoms: C_11  and  O_12
REMARK    6  A    between atoms: O_12  and  C_13
REMARK                            x       y       z     vdW  Elec       q    Type
REMARK                         _______ _______ _______ _____ _____    ______ ____
ROOT
ATOM      1  C   UNL     1       2.219   6.618  20.145  0.00  0.00    +0.000 A 
ATOM      2  N   UNL     1       3.105   6.029  19.376  0.00  0.00    +0.000 NA
ATOM      3  C   UNL     1       3.114   4.746  19.873  0.00  0.00    +0.000 A 
ATOM      4  N   UNL     1       2.264   4.522  20.882  0.00  0.00    +0.000 NA
ATOM      5  O   UNL     1       1.669   5.771  21.071  0.00  0.00    +0.000 OA
ENDROOT
BRANCH   1  10
ATOM      6  C   UNL     1       0.826   9.920  21.301  0.00  0.00    +0.000 A 
ATOM      7  C   UNL     1       0.729  10.602  20.086  0.00  0.00    +0.000 A 
ATOM      8  C   UNL     1       1.143   9.997  18.899  0.00  0.00    +0.000 A 
ATOM      9  C   UNL     1       1.649   8.697  18.922  0.00  0.00    +0.000 A 
ATOM     10  C   UNL     1       1.738   7.991  20.131  0.00  0.00    +0.000 A 
ATOM     11  C   UNL     1       1.335   8.622  21.315  0.00  0.00    +0.000 A 
BRANCH   6  13
ATOM     12  C   UNL     1      -0.745  10.053  23.070  0.00  0.00    +0.000 C 
ATOM     13  O   UNL     1       0.386  10.604  22.400  0.00  0.00    +0.000 OA
ENDBRANCH   6  13
ENDBRANCH   1  10
BRANCH   3  14
ATOM     14  C   UNL     1       3.998   3.699  19.296  0.00  0.00    +0.000 C 
BRANCH  14  15
ATOM     15  O   UNL     1       5.341   4.173  19.193  0.00  0.00    +0.000 OA
BRANCH  15  16
ATOM     16  C   UNL     1       5.834   4.524  17.970  0.00  0.00    +0.000 A 
ATOM     17  C   UNL     1       5.207   3.834  16.919  0.00  0.00    +0.000 A 
ATOM     18  C   UNL     1       5.636   3.986  15.594  0.00  0.00    +0.000 A 
ATOM     19  C   UNL     1       6.695   4.833  15.315  0.00  0.00    +0.000 A 
ATOM     20 CL   UNL     1       7.267   5.001  13.700  0.00  0.00    +0.000 Cl
ATOM     21  C   UNL     1       7.329   5.530  16.338  0.00  0.00    +0.000 A 
ATOM     22  C   UNL     1       6.912   5.374  17.667  0.00  0.00    +0.000 A 
ATOM     23 CL   UNL     1       7.884   6.211  18.821  0.00  0.00    +0.000 Cl
ENDBRANCH  15  16
ENDBRANCH  14  15
ENDBRANCH   3  14
TORSDOF 5
ENDMDL
MODEL 9
REMARK VINA RESULT:      -7.3      5.424      7.068
REMARK  Name = 
REMARK  6 active torsions:
REMARK  status: ('A' for Active; 'I' for Inactive)
REMARK    1  A    between atoms: C_1  and  O_2
REMARK    2  A    between atoms: O_2  and  C_3
REMARK    3  A    between atoms: C_7  and  C_8
REMARK    4  A    between atoms: C_10  and  C_11
REMARK    5  A    between atoms: C_11  and  O_12
REMARK    6  A    between atoms: O_12  and  C_13
REMARK                            x       y       z     vdW  Elec       q    Type
REMARK                         _______ _______ _______ _____ _____    ______ ____
ROOT
ATOM      1  C   UNL     1       8.383   8.818  18.324  0.00  0.00    +0.000 A 
ATOM      2  N   UNL     1       7.489   8.578  17.394  0.00  0.00    +0.000 NA
ATOM      3  C   UNL     1       7.258   7.232  17.554  0.00  0.00    +0.000 A 
ATOM      4  N   UNL     1       7.943   6.652  18.546  0.00  0.00    +0.000 NA
ATOM      5  O   UNL     1       8.701   7.707  19.059  0.00  0.00    +0.000 OA
ENDROOT
BRANCH   1  10
ATOM      6  C   UNL     1      10.139  12.137  18.043  0.00  0.00    +0.000 A 
ATOM      7  C   UNL     1      10.380  12.421  19.389  0.00  0.00    +0.000 A 
ATOM      8  C   UNL     1       9.945  11.547  20.385  0.00  0.00    +0.000 A 
ATOM      9  C   UNL     1       9.274  10.374  20.035  0.00  0.00    +0.000 A 
ATOM     10  C   UNL     1       9.039  10.065  18.688  0.00  0.00    +0.000 A 
ATOM     11  C   UNL     1       9.466  10.965  17.703  0.00  0.00    +0.000 A 
BRANCH   6  13
ATOM     12  C   UNL     1      10.925  14.343  17.683  0.00  0.00    +0.000 C 
ATOM     13  O   UNL     1      10.614  13.059  17.150  0.00  0.00    +0.000 OA
ENDBRANCH   6  13
ENDBRANCH   1  10
BRANCH   3  14
ATOM     14  C   UNL     1       6.293   6.503  16.688  0.00  0.00    +0.000 C 
BRANCH  14  15
ATOM     15  O   UNL     1       4.967   6.996  16.882  0.00  0.00    +0.000 OA
BRANCH  15  16
ATOM     16  C   UNL     1       4.047   6.210  17.511  0.00  0.00    +0.000 A 
ATOM     17  C   UNL     1       3.277   6.923  18.445  0.00  0.00    +0.000 A 
ATOM     18  C   UNL     1       2.342   6.275  19.260  0.00  0.00    +0.000 A 
ATOM     19  C   UNL     1       2.170   4.905  19.143  0.00  0.00    +0.000 A 
ATOM     20 CL   UNL     1       1.058   4.081  20.165  0.00  0.00    +0.000 Cl
ATOM     21  C   UNL     1       2.916   4.178  18.222  0.00  0.00    +0.000 A 
ATOM     22  C   UNL     1       3.863   4.819  17.410  0.00  0.00    +0.000 A 
ATOM     23 CL   UNL     1       4.787   3.755  16.417  0.00  0.00    +0.000 Cl
ENDBRANCH  15  16
ENDBRANCH  14  15
ENDBRANCH   3  14
TORSDOF 5
ENDMDL
