MODEL 1
REMARK VINA RESULT:      -8.4      0.000      0.000
REMARK  Name = 
REMARK  10 active torsions:
REMARK  status: ('A' for Active; 'I' for Inactive)
REMARK    1  A    between atoms: C_1  and  C_2
REMARK    2  A    between atoms: C_2  and  O_3
REMARK    3  A    between atoms: O_3  and  N_4
REMARK    4  A    between atoms: N_8  and  C_9
REMARK    5  A    between atoms: C_16  and  C_17
REMARK    6  A    between atoms: C_17  and  O_19
REMARK    7  A    between atoms: N_21  and  C_22
REMARK    8  A    between atoms: C_22  and  C_23
REMARK    9  A    between atoms: C_29  and  C_30
REMARK   10  A    between atoms: C_29  and  N_31
REMARK                            x       y       z     vdW  Elec       q    Type
REMARK                         _______ _______ _______ _____ _____    ______ ____
ROOT
ATOM      1  C   UNL     1       1.332   8.768  19.917  0.00  0.00    +0.000 A 
ATOM      2  C   UNL     1       1.828   9.263  18.704  0.00  0.00    +0.000 A 
ATOM      3  F   UNL     1       1.519  10.501  18.289  0.00  0.00    +0.000 F 
ATOM      4  C   UNL     1       2.677   8.519  17.894  0.00  0.00    +0.000 A 
ATOM      5  C   UNL     1       3.065   7.234  18.286  0.00  0.00    +0.000 A 
ATOM      6  C   UNL     1       3.968   6.481  17.394  0.00  0.00    +0.000 A 
ATOM      7  O   UNL     1       4.384   6.962  16.342  0.00  0.00    +0.000 OA
ATOM      8  C   UNL     1       4.374   5.124  17.790  0.00  0.00    +0.000 A 
ATOM      9  C   UNL     1       3.879   4.657  18.946  0.00  0.00    +0.000 A 
ATOM     10  N   UNL     1       3.037   5.330  19.826  0.00  0.00    +0.000 N 
ATOM     11  C   UNL     1       2.616   6.655  19.488  0.00  0.00    +0.000 A 
ATOM     12  C   UNL     1       1.751   7.457  20.273  0.00  0.00    +0.000 A 
ATOM     13  F   UNL     1       1.249   6.944  21.408  0.00  0.00    +0.000 F 
ENDROOT
BRANCH   1  18
ATOM     14  N   UNL     1      -2.060  11.563  23.155  0.00  0.00    +0.000 NA
ATOM     15  C   UNL     1      -1.083  11.126  22.413  0.00  0.00    +0.000 C 
ATOM     16  C   UNL     1      -0.351   9.904  22.960  0.00  0.00    +0.000 C 
ATOM     17  C   UNL     1      -0.214   8.842  21.881  0.00  0.00    +0.000 C 
ATOM     18  N   UNL     1       0.420   9.463  20.715  0.00  0.00    +0.000 N 
ATOM     19  C   UNL     1      -0.396  10.531  20.096  0.00  0.00    +0.000 C 
ATOM     20  C   UNL     1      -0.519  11.731  21.084  0.00  0.00    +0.000 C 
ATOM     21  C   UNL     1      -1.311  12.839  20.388  0.00  0.00    +0.000 C 
BRANCH  20  22
ATOM     22  N   UNL     1       0.823  12.300  21.381  0.00  0.00    +0.000 NA
ATOM     23  H   UNL     1       0.836  13.264  21.043  0.00  0.00    +0.000 HD
ATOM     24  H   UNL     1       1.533  11.778  20.869  0.00  0.00    +0.000 HD
ENDBRANCH  20  22
BRANCH  14  25
ATOM     25  O   UNL     1      -2.652  12.701  22.628  0.00  0.00    +0.000 OA
BRANCH  25  27
ATOM     26  C   UNL     1      -4.147  12.502  24.442  0.00  0.00    +0.000 C 
ATOM     27  C   UNL     1      -4.039  12.726  22.946  0.00  0.00    +0.000 C 
ENDBRANCH  25  27
ENDBRANCH  14  25
ENDBRANCH   1  18
BRANCH   8  28
ATOM     28  C   UNL     1       5.278   4.270  16.991  0.00  0.00    +0.000 C 
ATOM     29  O   UNL     1       4.969   3.785  15.911  0.00  0.00    +0.000 OA
BRANCH  28  30
ATOM     30  O   UNL     1       6.482   4.044  17.559  0.00  0.00    +0.000 OA
ATOM     31  H   UNL     1       7.137   4.770  17.417  0.00  0.00    +0.000 HD
ENDBRANCH  28  30
ENDBRANCH   8  28
BRANCH  10  32
ATOM     32  C   UNL     1       2.468   4.725  21.062  0.00  0.00    +0.000 C 
BRANCH  32  33
ATOM     33  C   UNL     1       1.440   3.609  20.863  0.00  0.00    +0.000 C 
ATOM     34  F   UNL     1       0.345   4.098  20.220  0.00  0.00    +0.000 F 
ENDBRANCH  32  33
ENDBRANCH  10  32
TORSDOF 8
ENDMDL
MODEL 2
REMARK VINA RESULT:      -8.4      1.350      1.597
REMARK  Name = 
REMARK  10 active torsions:
REMARK  status: ('A' for Active; 'I' for Inactive)
REMARK    1  A    between atoms: C_1  and  C_2
REMARK    2  A    between atoms: C_2  and  O_3
REMARK    3  A    between atoms: O_3  and  N_4
REMARK    4  A    between atoms: N_8  and  C_9
REMARK    5  A    between atoms: C_16  and  C_17
REMARK    6  A    between atoms: C_17  and  O_19
REMARK    7  A    between atoms: N_21  and  C_22
REMARK    8  A    between atoms: C_22  and  C_23
REMARK    9  A    between atoms: C_29  and  C_30
REMARK   10  A    between atoms: C_29  and  N_31
REMARK                            x       y       z     vdW  Elec       q    Type
REMARK                         _______ _______ _______ _____ _____    ______ ____
ROOT
ATOM      1  C   UNL     1       1.384   9.238  19.238  0.00  0.00    +0.000 A 
ATOM      2  C   UNL     1       2.119   9.547  18.084  0.00  0.00    +0.000 A 
ATOM      3  F   UNL     1       2.008  10.750  17.500  0.00  0.00    +0.000 F 
ATOM      4  C   UNL     1       3.007   8.645  17.512  0.00  0.00    +0.000 A 
ATOM      5  C   UNL     1       3.195   7.387  18.092  0.00  0.00    +0.000 A 
ATOM      6  C   UNL     1       4.149   6.463  17.449  0.00  0.00    +0.000 A 
ATOM      7  O   UNL     1       4.777   6.783  16.442  0.00  0.00    +0.000 OA
ATOM      8  C   UNL     1       4.346   5.132  18.044  0.00  0.00    +0.000 A 
ATOM      9  C   UNL     1       3.625   4.845  19.139  0.00  0.00    +0.000 A 
ATOM     10  N   UNL     1       2.724   5.683  19.787  0.00  0.00    +0.000 N 
ATOM     11  C   UNL     1       2.500   6.991  19.251  0.00  0.00    +0.000 A 
ATOM     12  C   UNL     1       1.605   7.947  19.790  0.00  0.00    +0.000 A 
ATOM     13  F   UNL     1       0.876   7.613  20.868  0.00  0.00    +0.000 F 
ENDROOT
BRANCH   1  18
ATOM     14  N   UNL     1      -2.225  12.759  21.331  0.00  0.00    +0.000 NA
ATOM     15  C   UNL     1      -1.351  12.108  20.617  0.00  0.00    +0.000 C 
ATOM     16  C   UNL     1       0.034  11.983  21.245  0.00  0.00    +0.000 C 
ATOM     17  C   UNL     1       0.513  10.541  21.186  0.00  0.00    +0.000 C 
ATOM     18  N   UNL     1       0.430  10.095  19.792  0.00  0.00    +0.000 N 
ATOM     19  C   UNL     1      -0.951  10.058  19.263  0.00  0.00    +0.000 C 
ATOM     20  C   UNL     1      -1.515  11.509  19.180  0.00  0.00    +0.000 C 
ATOM     21  C   UNL     1      -2.916  11.440  18.570  0.00  0.00    +0.000 C 
BRANCH  20  22
ATOM     22  N   UNL     1      -0.695  12.334  18.252  0.00  0.00    +0.000 NA
ATOM     23  H   UNL     1      -0.021  12.859  18.813  0.00  0.00    +0.000 HD
ATOM     24  H   UNL     1      -1.295  13.003  17.774  0.00  0.00    +0.000 HD
ENDBRANCH  20  22
BRANCH  14  25
ATOM     25  O   UNL     1      -3.447  12.880  20.687  0.00  0.00    +0.000 OA
BRANCH  25  27
ATOM     26  C   UNL     1      -5.768  12.485  20.820  0.00  0.00    +0.000 C 
ATOM     27  C   UNL     1      -4.511  12.758  21.623  0.00  0.00    +0.000 C 
ENDBRANCH  25  27
ENDBRANCH  14  25
ENDBRANCH   1  18
BRANCH   8  28
ATOM     28  C   UNL     1       5.276   4.119  17.502  0.00  0.00    +0.000 C 
ATOM     29  O   UNL     1       5.089   3.526  16.449  0.00  0.00    +0.000 OA
BRANCH  28  30
ATOM     30  O   UNL     1       6.355   3.878  18.279  0.00  0.00    +0.000 OA
ATOM     31  H   UNL     1       7.134   3.522  17.786  0.00  0.00    +0.000 HD
ENDBRANCH  28  30
ENDBRANCH   8  28
BRANCH  10  32
ATOM     32  C   UNL     1       1.904   5.275  20.962  0.00  0.00    +0.000 C 
BRANCH  32  33
ATOM     33  C   UNL     1       2.051   3.824  21.423  0.00  0.00    +0.000 C 
ATOM     34  F   UNL     1       0.885   3.153  21.221  0.00  0.00    +0.000 F 
ENDBRANCH  32  33
ENDBRANCH  10  32
TORSDOF 8
ENDMDL
MODEL 3
REMARK VINA RESULT:      -7.9      2.874      4.150
REMARK  Name = 
REMARK  10 active torsions:
REMARK  status: ('A' for Active; 'I' for Inactive)
REMARK    1  A    between atoms: C_1  and  C_2
REMARK    2  A    between atoms: C_2  and  O_3
REMARK    3  A    between atoms: O_3  and  N_4
REMARK    4  A    between atoms: N_8  and  C_9
REMARK    5  A    between atoms: C_16  and  C_17
REMARK    6  A    between atoms: C_17  and  O_19
REMARK    7  A    between atoms: N_21  and  C_22
REMARK    8  A    between atoms: C_22  and  C_23
REMARK    9  A    between atoms: C_29  and  C_30
REMARK   10  A    between atoms: C_29  and  N_31
REMARK                            x       y       z     vdW  Elec       q    Type
REMARK                         _______ _______ _______ _____ _____    ______ ____
ROOT
ATOM      1  C   UNL     1       1.364   8.521  19.457  0.00  0.00    +0.000 A 
ATOM      2  C   UNL     1       0.957   7.790  20.581  0.00  0.00    +0.000 A 
ATOM      3  F   UNL     1       0.048   8.289  21.433  0.00  0.00    +0.000 F 
ATOM      4  C   UNL     1       1.446   6.518  20.852  0.00  0.00    +0.000 A 
ATOM      5  C   UNL     1       2.369   5.927  19.984  0.00  0.00    +0.000 A 
ATOM      6  C   UNL     1       2.859   4.574  20.312  0.00  0.00    +0.000 A 
ATOM      7  O   UNL     1       2.466   3.969  21.307  0.00  0.00    +0.000 OA
ATOM      8  C   UNL     1       3.840   3.947  19.412  0.00  0.00    +0.000 A 
ATOM      9  C   UNL     1       4.232   4.664  18.349  0.00  0.00    +0.000 A 
ATOM     10  N   UNL     1       3.792   5.934  17.991  0.00  0.00    +0.000 N 
ATOM     11  C   UNL     1       2.834   6.587  18.831  0.00  0.00    +0.000 A 
ATOM     12  C   UNL     1       2.305   7.881  18.606  0.00  0.00    +0.000 A 
ATOM     13  F   UNL     1       2.746   8.583  17.548  0.00  0.00    +0.000 F 
ENDROOT
BRANCH   1  18
ATOM     14  N   UNL     1      -0.415  13.613  18.614  0.00  0.00    +0.000 NA
ATOM     15  C   UNL     1      -0.030  12.464  19.091  0.00  0.00    +0.000 C 
ATOM     16  C   UNL     1      -0.926  11.281  18.733  0.00  0.00    +0.000 C 
ATOM     17  C   UNL     1      -0.090  10.125  18.206  0.00  0.00    +0.000 C 
ATOM     18  N   UNL     1       0.946   9.829  19.199  0.00  0.00    +0.000 N 
ATOM     19  C   UNL     1       1.910  10.935  19.397  0.00  0.00    +0.000 C 
ATOM     20  C   UNL     1       1.178  12.153  20.037  0.00  0.00    +0.000 C 
ATOM     21  C   UNL     1       2.214  13.250  20.287  0.00  0.00    +0.000 C 
BRANCH  20  22
ATOM     22  N   UNL     1       0.626  11.788  21.369  0.00  0.00    +0.000 NA
ATOM     23  H   UNL     1      -0.378  11.978  21.354  0.00  0.00    +0.000 HD
ATOM     24  H   UNL     1       1.047  12.380  22.084  0.00  0.00    +0.000 HD
ENDBRANCH  20  22
BRANCH  14  25
ATOM     25  O   UNL     1       0.412  14.653  19.014  0.00  0.00    +0.000 OA
BRANCH  25  27
ATOM     26  C   UNL     1      -0.288  16.789  18.302  0.00  0.00    +0.000 C 
ATOM     27  C   UNL     1      -0.367  15.771  19.423  0.00  0.00    +0.000 C 
ENDBRANCH  25  27
ENDBRANCH  14  25
ENDBRANCH   1  18
BRANCH   8  28
ATOM     28  C   UNL     1       4.403   2.597  19.624  0.00  0.00    +0.000 C 
ATOM     29  O   UNL     1       5.121   2.305  20.571  0.00  0.00    +0.000 OA
BRANCH  28  30
ATOM     30  O   UNL     1       4.078   1.699  18.668  0.00  0.00    +0.000 OA
ATOM     31  H   UNL     1       3.512   2.067  17.947  0.00  0.00    +0.000 HD
ENDBRANCH  28  30
ENDBRANCH   8  28
BRANCH  10  32
ATOM     32  C   UNL     1       4.321   6.703  16.830  0.00  0.00    +0.000 C 
BRANCH  32  33
ATOM     33  C   UNL     1       5.605   6.171  16.190  0.00  0.00    +0.000 C 
ATOM     34  F   UNL     1       5.329   5.648  14.965  0.00  0.00    +0.000 F 
ENDBRANCH  32  33
ENDBRANCH  10  32
TORSDOF 8
ENDMDL
MODEL 4
REMARK VINA RESULT:      -7.9      1.028      1.203
REMARK  Name = 
REMARK  10 active torsions:
REMARK  status: ('A' for Active; 'I' for Inactive)
REMARK    1  A    between atoms: C_1  and  C_2
REMARK    2  A    between atoms: C_2  and  O_3
REMARK    3  A    between atoms: O_3  and  N_4
REMARK    4  A    between atoms: N_8  and  C_9
REMARK    5  A    between atoms: C_16  and  C_17
REMARK    6  A    between atoms: C_17  and  O_19
REMARK    7  A    between atoms: N_21  and  C_22
REMARK    8  A    between atoms: C_22  and  C_23
REMARK    9  A    between atoms: C_29  and  C_30
REMARK   10  A    between atoms: C_29  and  N_31
REMARK                            x       y       z     vdW  Elec       q    Type
REMARK                         _______ _______ _______ _____ _____    ______ ____
ROOT
ATOM      1  C   UNL     1       1.813   8.468  19.556  0.00  0.00    +0.000 A 
ATOM      2  C   UNL     1       2.319   9.107  18.416  0.00  0.00    +0.000 A 
ATOM      3  F   UNL     1       2.027  10.391  18.161  0.00  0.00    +0.000 F 
ATOM      4  C   UNL     1       3.160   8.459  17.519  0.00  0.00    +0.000 A 
ATOM      5  C   UNL     1       3.531   7.131  17.746  0.00  0.00    +0.000 A 
ATOM      6  C   UNL     1       4.427   6.485  16.766  0.00  0.00    +0.000 A 
ATOM      7  O   UNL     1       4.851   7.090  15.784  0.00  0.00    +0.000 OA
ATOM      8  C   UNL     1       4.815   5.083  16.988  0.00  0.00    +0.000 A 
ATOM      9  C   UNL     1       4.311   4.480  18.075  0.00  0.00    +0.000 A 
ATOM     10  N   UNL     1       3.475   5.047  19.031  0.00  0.00    +0.000 N 
ATOM     11  C   UNL     1       3.071   6.410  18.865  0.00  0.00    +0.000 A 
ATOM     12  C   UNL     1       2.216   7.117  19.743  0.00  0.00    +0.000 A 
ATOM     13  F   UNL     1       1.704   6.470  20.804  0.00  0.00    +0.000 F 
ENDROOT
BRANCH   1  18
ATOM     14  N   UNL     1      -1.551  10.917  23.089  0.00  0.00    +0.000 NA
ATOM     15  C   UNL     1      -0.609  10.582  22.254  0.00  0.00    +0.000 C 
ATOM     16  C   UNL     1       0.328   9.482  22.742  0.00  0.00    +0.000 C 
ATOM     17  C   UNL     1       0.487   8.410  21.675  0.00  0.00    +0.000 C 
ATOM     18  N   UNL     1       0.909   9.068  20.435  0.00  0.00    +0.000 N 
ATOM     19  C   UNL     1      -0.100  10.003  19.888  0.00  0.00    +0.000 C 
ATOM     20  C   UNL     1      -0.272  11.209  20.860  0.00  0.00    +0.000 C 
ATOM     21  C   UNL     1      -1.270  12.184  20.233  0.00  0.00    +0.000 C 
BRANCH  20  22
ATOM     22  N   UNL     1       1.009  11.953  20.998  0.00  0.00    +0.000 NA
ATOM     23  H   UNL     1       1.621  11.410  21.611  0.00  0.00    +0.000 HD
ATOM     24  H   UNL     1       0.832  12.851  21.446  0.00  0.00    +0.000 HD
ENDBRANCH  20  22
BRANCH  14  25
ATOM     25  O   UNL     1      -2.338  11.953  22.609  0.00  0.00    +0.000 OA
BRANCH  25  27
ATOM     26  C   UNL     1      -1.393  13.894  23.556  0.00  0.00    +0.000 C 
ATOM     27  C   UNL     1      -2.553  12.921  23.628  0.00  0.00    +0.000 C 
ENDBRANCH  25  27
ENDBRANCH  14  25
ENDBRANCH   1  18
BRANCH   8  28
ATOM     28  C   UNL     1       5.709   4.326  16.087  0.00  0.00    +0.000 C 
ATOM     29  O   UNL     1       6.819   3.930  16.414  0.00  0.00    +0.000 OA
BRANCH  28  30
ATOM     30  O   UNL     1       5.210   4.118  14.849  0.00  0.00    +0.000 OA
ATOM     31  H   UNL     1       5.037   4.947  14.340  0.00  0.00    +0.000 HD
ENDBRANCH  28  30
ENDBRANCH   8  28
BRANCH  10  32
ATOM     32  C   UNL     1       2.896   4.298  20.181  0.00  0.00    +0.000 C 
BRANCH  32  33
ATOM     33  C   UNL     1       1.754   3.332  19.857  0.00  0.00    +0.000 C 
ATOM     34  F   UNL     1       1.049   3.791  18.788  0.00  0.00    +0.000 F 
ENDBRANCH  32  33
ENDBRANCH  10  32
TORSDOF 8
ENDMDL
MODEL 5
REMARK VINA RESULT:      -7.6      2.204      9.044
REMARK  Name = 
REMARK  10 active torsions:
REMARK  status: ('A' for Active; 'I' for Inactive)
REMARK    1  A    between atoms: C_1  and  C_2
REMARK    2  A    between atoms: C_2  and  O_3
REMARK    3  A    between atoms: O_3  and  N_4
REMARK    4  A    between atoms: N_8  and  C_9
REMARK    5  A    between atoms: C_16  and  C_17
REMARK    6  A    between atoms: C_17  and  O_19
REMARK    7  A    between atoms: N_21  and  C_22
REMARK    8  A    between atoms: C_22  and  C_23
REMARK    9  A    between atoms: C_29  and  C_30
REMARK   10  A    between atoms: C_29  and  N_31
REMARK                            x       y       z     vdW  Elec       q    Type
REMARK                         _______ _______ _______ _____ _____    ______ ____
ROOT
ATOM      1  C   UNL     1       2.543   6.782  19.374  0.00  0.00    +0.000 A 
ATOM      2  C   UNL     1       1.908   6.324  20.536  0.00  0.00    +0.000 A 
ATOM      3  F   UNL     1       2.128   5.082  20.996  0.00  0.00    +0.000 F 
ATOM      4  C   UNL     1       1.052   7.129  21.277  0.00  0.00    +0.000 A 
ATOM      5  C   UNL     1       0.808   8.445  20.872  0.00  0.00    +0.000 A 
ATOM      6  C   UNL     1      -0.107   9.263  21.691  0.00  0.00    +0.000 A 
ATOM      7  O   UNL     1      -0.634   8.819  22.708  0.00  0.00    +0.000 OA
ATOM      8  C   UNL     1      -0.381  10.645  21.267  0.00  0.00    +0.000 A 
ATOM      9  C   UNL     1       0.221  11.065  20.144  0.00  0.00    +0.000 A 
ATOM     10  N   UNL     1       1.098  10.339  19.346  0.00  0.00    +0.000 N 
ATOM     11  C   UNL     1       1.402   8.990  19.717  0.00  0.00    +0.000 A 
ATOM     12  C   UNL     1       2.262   8.124  18.999  0.00  0.00    +0.000 A 
ATOM     13  F   UNL     1       2.822   8.569  17.861  0.00  0.00    +0.000 F 
ENDROOT
BRANCH   1  18
ATOM     14  N   UNL     1       5.586   3.700  16.050  0.00  0.00    +0.000 NA
ATOM     15  C   UNL     1       4.885   4.630  16.635  0.00  0.00    +0.000 C 
ATOM     16  C   UNL     1       3.407   4.304  16.825  0.00  0.00    +0.000 C 
ATOM     17  C   UNL     1       2.982   4.589  18.257  0.00  0.00    +0.000 C 
ATOM     18  N   UNL     1       3.349   5.973  18.569  0.00  0.00    +0.000 N 
ATOM     19  C   UNL     1       4.808   6.218  18.550  0.00  0.00    +0.000 C 
ATOM     20  C   UNL     1       5.343   6.055  17.095  0.00  0.00    +0.000 C 
ATOM     21  C   UNL     1       6.838   6.378  17.101  0.00  0.00    +0.000 C 
BRANCH  20  22
ATOM     22  N   UNL     1       4.704   7.048  16.191  0.00  0.00    +0.000 NA
ATOM     23  H   UNL     1       5.448   7.591  15.748  0.00  0.00    +0.000 HD
ATOM     24  H   UNL     1       4.133   7.688  16.740  0.00  0.00    +0.000 HD
ENDBRANCH  20  22
BRANCH  14  25
ATOM     25  O   UNL     1       6.908   4.076  15.864  0.00  0.00    +0.000 OA
BRANCH  25  27
ATOM     26  C   UNL     1       6.105   3.774  13.667  0.00  0.00    +0.000 C 
ATOM     27  C   UNL     1       7.111   4.515  14.527  0.00  0.00    +0.000 C 
ENDBRANCH  25  27
ENDBRANCH  14  25
ENDBRANCH   1  18
BRANCH   8  28
ATOM     28  C   UNL     1      -1.272  11.569  22.002  0.00  0.00    +0.000 C 
ATOM     29  O   UNL     1      -2.131  12.251  21.461  0.00  0.00    +0.000 OA
BRANCH  28  30
ATOM     30  O   UNL     1      -1.049  11.619  23.333  0.00  0.00    +0.000 OA
ATOM     31  H   UNL     1      -0.265  11.096  23.630  0.00  0.00    +0.000 HD
ENDBRANCH  28  30
ENDBRANCH   8  28
BRANCH  10  32
ATOM     32  C   UNL     1       1.680  10.845  18.072  0.00  0.00    +0.000 C 
BRANCH  32  33
ATOM     33  C   UNL     1       2.427  12.177  18.147  0.00  0.00    +0.000 C 
ATOM     34  F   UNL     1       1.564  13.206  17.927  0.00  0.00    +0.000 F 
ENDBRANCH  32  33
ENDBRANCH  10  32
TORSDOF 8
ENDMDL
MODEL 6
REMARK VINA RESULT:      -7.5      1.809      9.120
REMARK  Name = 
REMARK  10 active torsions:
REMARK  status: ('A' for Active; 'I' for Inactive)
REMARK    1  A    between atoms: C_1  and  C_2
REMARK    2  A    between atoms: C_2  and  O_3
REMARK    3  A    between atoms: O_3  and  N_4
REMARK    4  A    between atoms: N_8  and  C_9
REMARK    5  A    between atoms: C_16  and  C_17
REMARK    6  A    between atoms: C_17  and  O_19
REMARK    7  A    between atoms: N_21  and  C_22
REMARK    8  A    between atoms: C_22  and  C_23
REMARK    9  A    between atoms: C_29  and  C_30
REMARK   10  A    between atoms: C_29  and  N_31
REMARK                            x       y       z     vdW  Elec       q    Type
REMARK                         _______ _______ _______ _____ _____    ______ ____
ROOT
ATOM      1  C   UNL     1       1.899   8.144  19.570  0.00  0.00    +0.000 A 
ATOM      2  C   UNL     1       1.496   7.584  20.790  0.00  0.00    +0.000 A 
ATOM      3  F   UNL     1       1.900   6.355  21.149  0.00  0.00    +0.000 F 
ATOM      4  C   UNL     1       0.692   8.273  21.690  0.00  0.00    +0.000 A 
ATOM      5  C   UNL     1       0.266   9.570  21.391  0.00  0.00    +0.000 A 
ATOM      6  C   UNL     1      -0.586  10.263  22.378  0.00  0.00    +0.000 A 
ATOM      7  O   UNL     1      -0.907   9.732  23.439  0.00  0.00    +0.000 OA
ATOM      8  C   UNL     1      -1.051  11.625  22.069  0.00  0.00    +0.000 A 
ATOM      9  C   UNL     1      -0.669  12.143  20.892  0.00  0.00    +0.000 A 
ATOM     10  N   UNL     1       0.140  11.537  19.937  0.00  0.00    +0.000 N 
ATOM     11  C   UNL     1       0.622  10.213  20.190  0.00  0.00    +0.000 A 
ATOM     12  C   UNL     1       1.439   9.464  19.310  0.00  0.00    +0.000 A 
ATOM     13  F   UNL     1       1.774  10.003  18.125  0.00  0.00    +0.000 F 
ENDROOT
BRANCH   1  18
ATOM     14  N   UNL     1       4.991   5.450  15.967  0.00  0.00    +0.000 NA
ATOM     15  C   UNL     1       4.410   5.951  17.020  0.00  0.00    +0.000 C 
ATOM     16  C   UNL     1       4.618   7.449  17.224  0.00  0.00    +0.000 C 
ATOM     17  C   UNL     1       3.288   8.136  17.492  0.00  0.00    +0.000 C 
ATOM     18  N   UNL     1       2.645   7.449  18.615  0.00  0.00    +0.000 N 
ATOM     19  C   UNL     1       2.293   6.042  18.326  0.00  0.00    +0.000 C 
ATOM     20  C   UNL     1       3.597   5.209  18.133  0.00  0.00    +0.000 C 
ATOM     21  C   UNL     1       3.198   3.751  17.901  0.00  0.00    +0.000 C 
BRANCH  20  22
ATOM     22  N   UNL     1       4.414   5.226  19.376  0.00  0.00    +0.000 NA
ATOM     23  H   UNL     1       3.994   5.904  20.016  0.00  0.00    +0.000 HD
ATOM     24  H   UNL     1       5.357   5.544  19.157  0.00  0.00    +0.000 HD
ENDBRANCH  20  22
BRANCH  14  25
ATOM     25  O   UNL     1       4.805   4.080  15.865  0.00  0.00    +0.000 OA
BRANCH  25  27
ATOM     26  C   UNL     1       6.233   4.106  13.988  0.00  0.00    +0.000 C 
ATOM     27  C   UNL     1       5.973   3.463  15.336  0.00  0.00    +0.000 C 
ENDBRANCH  25  27
ENDBRANCH  14  25
ENDBRANCH   1  18
BRANCH   8  28
ATOM     28  C   UNL     1      -1.901  12.427  22.974  0.00  0.00    +0.000 C 
ATOM     29  O   UNL     1      -1.553  13.497  23.456  0.00  0.00    +0.000 OA
BRANCH  28  30
ATOM     30  O   UNL     1      -3.102  11.873  23.250  0.00  0.00    +0.000 OA
ATOM     31  H   UNL     1      -3.160  10.911  23.035  0.00  0.00    +0.000 HD
ENDBRANCH  28  30
ENDBRANCH   8  28
BRANCH  10  32
ATOM     32  C   UNL     1       0.469  12.144  18.617  0.00  0.00    +0.000 C 
BRANCH  32  33
ATOM     33  C   UNL     1       1.509  13.266  18.625  0.00  0.00    +0.000 C 
ATOM     34  F   UNL     1       2.712  12.785  18.211  0.00  0.00    +0.000 F 
ENDBRANCH  32  33
ENDBRANCH  10  32
TORSDOF 8
ENDMDL
MODEL 7
REMARK VINA RESULT:      -7.4      1.813      8.998
REMARK  Name = 
REMARK  10 active torsions:
REMARK  status: ('A' for Active; 'I' for Inactive)
REMARK    1  A    between atoms: C_1  and  C_2
REMARK    2  A    between atoms: C_2  and  O_3
REMARK    3  A    between atoms: O_3  and  N_4
REMARK    4  A    between atoms: N_8  and  C_9
REMARK    5  A    between atoms: C_16  and  C_17
REMARK    6  A    between atoms: C_17  and  O_19
REMARK    7  A    between atoms: N_21  and  C_22
REMARK    8  A    between atoms: C_22  and  C_23
REMARK    9  A    between atoms: C_29  and  C_30
REMARK   10  A    between atoms: C_29  and  N_31
REMARK                            x       y       z     vdW  Elec       q    Type
REMARK                         _______ _______ _______ _____ _____    ______ ____
ROOT
ATOM      1  C   UNL     1       1.470   8.561  19.712  0.00  0.00    +0.000 A 
ATOM      2  C   UNL     1       1.389   8.305  21.087  0.00  0.00    +0.000 A 
ATOM      3  F   UNL     1       2.130   7.338  21.651  0.00  0.00    +0.000 F 
ATOM      4  C   UNL     1       0.572   9.047  21.930  0.00  0.00    +0.000 A 
ATOM      5  C   UNL     1      -0.199  10.092  21.411  0.00  0.00    +0.000 A 
ATOM      6  C   UNL     1      -1.052  10.854  22.344  0.00  0.00    +0.000 A 
ATOM      7  O   UNL     1      -1.082  10.596  23.546  0.00  0.00    +0.000 OA
ATOM      8  C   UNL     1      -1.876  11.948  21.808  0.00  0.00    +0.000 A 
ATOM      9  C   UNL     1      -1.800  12.171  20.487  0.00  0.00    +0.000 A 
ATOM     10  N   UNL     1      -1.006  11.491  19.570  0.00  0.00    +0.000 N 
ATOM     11  C   UNL     1      -0.181  10.421  20.042  0.00  0.00    +0.000 A 
ATOM     12  C   UNL     1       0.667   9.630  19.229  0.00  0.00    +0.000 A 
ATOM     13  F   UNL     1       0.692   9.862  17.906  0.00  0.00    +0.000 F 
ENDROOT
BRANCH   1  18
ATOM     14  N   UNL     1       4.601   5.566  16.391  0.00  0.00    +0.000 NA
ATOM     15  C   UNL     1       4.012   6.160  17.389  0.00  0.00    +0.000 C 
ATOM     16  C   UNL     1       4.201   7.673  17.445  0.00  0.00    +0.000 C 
ATOM     17  C   UNL     1       2.862   8.366  17.644  0.00  0.00    +0.000 C 
ATOM     18  N   UNL     1       2.226   7.785  18.829  0.00  0.00    +0.000 N 
ATOM     19  C   UNL     1       1.892   6.351  18.680  0.00  0.00    +0.000 C 
ATOM     20  C   UNL     1       3.207   5.521  18.570  0.00  0.00    +0.000 C 
ATOM     21  C   UNL     1       2.827   4.042  18.482  0.00  0.00    +0.000 C 
BRANCH  20  22
ATOM     22  N   UNL     1       4.022   5.671  19.805  0.00  0.00    +0.000 NA
ATOM     23  H   UNL     1       3.406   5.519  20.606  0.00  0.00    +0.000 HD
ATOM     24  H   UNL     1       4.380   6.623  19.860  0.00  0.00    +0.000 HD
ENDBRANCH  20  22
BRANCH  14  25
ATOM     25  O   UNL     1       4.432   4.190  16.423  0.00  0.00    +0.000 OA
BRANCH  25  27
ATOM     26  C   UNL     1       5.910   4.287  14.588  0.00  0.00    +0.000 C 
ATOM     27  C   UNL     1       5.568   3.541  15.863  0.00  0.00    +0.000 C 
ENDBRANCH  25  27
ENDBRANCH  14  25
ENDBRANCH   1  18
BRANCH   8  28
ATOM     28  C   UNL     1      -2.766  12.789  22.636  0.00  0.00    +0.000 C 
ATOM     29  O   UNL     1      -2.675  14.007  22.701  0.00  0.00    +0.000 OA
BRANCH  28  30
ATOM     30  O   UNL     1      -3.688  12.099  23.343  0.00  0.00    +0.000 OA
ATOM     31  H   UNL     1      -3.689  11.128  23.163  0.00  0.00    +0.000 HD
ENDBRANCH  28  30
ENDBRANCH   8  28
BRANCH  10  32
ATOM     32  C   UNL     1      -1.021  11.747  18.103  0.00  0.00    +0.000 C 
BRANCH  32  33
ATOM     33  C   UNL     1      -2.247  11.244  17.338  0.00  0.00    +0.000 C 
ATOM     34  F   UNL     1      -2.305   9.886  17.398  0.00  0.00    +0.000 F 
ENDBRANCH  32  33
ENDBRANCH  10  32
TORSDOF 8
ENDMDL
MODEL 8
REMARK VINA RESULT:      -7.4      2.695      3.937
REMARK  Name = 
REMARK  10 active torsions:
REMARK  status: ('A' for Active; 'I' for Inactive)
REMARK    1  A    between atoms: C_1  and  C_2
REMARK    2  A    between atoms: C_2  and  O_3
REMARK    3  A    between atoms: O_3  and  N_4
REMARK    4  A    between atoms: N_8  and  C_9
REMARK    5  A    between atoms: C_16  and  C_17
REMARK    6  A    between atoms: C_17  and  O_19
REMARK    7  A    between atoms: N_21  and  C_22
REMARK    8  A    between atoms: C_22  and  C_23
REMARK    9  A    between atoms: C_29  and  C_30
REMARK   10  A    between atoms: C_29  and  N_31
REMARK                            x       y       z     vdW  Elec       q    Type
REMARK                         _______ _______ _______ _____ _____    ______ ____
ROOT
ATOM      1  C   UNL     1       1.232   8.528  20.176  0.00  0.00    +0.000 A 
ATOM      2  C   UNL     1       0.776   7.577  21.098  0.00  0.00    +0.000 A 
ATOM      3  F   UNL     1      -0.123   7.906  22.039  0.00  0.00    +0.000 F 
ATOM      4  C   UNL     1       1.205   6.255  21.069  0.00  0.00    +0.000 A 
ATOM      5  C   UNL     1       2.114   5.839  20.093  0.00  0.00    +0.000 A 
ATOM      6  C   UNL     1       2.540   4.426  20.101  0.00  0.00    +0.000 A 
ATOM      7  O   UNL     1       2.106   3.626  20.927  0.00  0.00    +0.000 OA
ATOM      8  C   UNL     1       3.506   3.979  19.085  0.00  0.00    +0.000 A 
ATOM      9  C   UNL     1       3.945   4.904  18.218  0.00  0.00    +0.000 A 
ATOM     10  N   UNL     1       3.566   6.241  18.162  0.00  0.00    +0.000 N 
ATOM     11  C   UNL     1       2.625   6.725  19.125  0.00  0.00    +0.000 A 
ATOM     12  C   UNL     1       2.157   8.059  19.204  0.00  0.00    +0.000 A 
ATOM     13  F   UNL     1       2.644   8.966  18.339  0.00  0.00    +0.000 F 
ENDROOT
BRANCH   1  18
ATOM     14  N   UNL     1       0.044  13.855  20.297  0.00  0.00    +0.000 NA
ATOM     15  C   UNL     1       0.469  12.653  20.029  0.00  0.00    +0.000 C 
ATOM     16  C   UNL     1       1.459  12.076  21.036  0.00  0.00    +0.000 C 
ATOM     17  C   UNL     1       1.040  10.673  21.446  0.00  0.00    +0.000 C 
ATOM     18  N   UNL     1       0.876   9.878  20.226  0.00  0.00    +0.000 N 
ATOM     19  C   UNL     1      -0.214  10.359  19.348  0.00  0.00    +0.000 C 
ATOM     20  C   UNL     1       0.157  11.762  18.780  0.00  0.00    +0.000 C 
ATOM     21  C   UNL     1      -0.959  12.199  17.829  0.00  0.00    +0.000 C 
BRANCH  20  22
ATOM     22  N   UNL     1       1.396  11.682  17.962  0.00  0.00    +0.000 NA
ATOM     23  H   UNL     1       1.697  10.705  17.945  0.00  0.00    +0.000 HD
ATOM     24  H   UNL     1       2.131  12.230  18.406  0.00  0.00    +0.000 HD
ENDBRANCH  20  22
BRANCH  14  25
ATOM     25  O   UNL     1      -0.813  14.341  19.321  0.00  0.00    +0.000 OA
BRANCH  25  27
ATOM     26  C   UNL     1       0.999  15.825  19.051  0.00  0.00    +0.000 C 
ATOM     27  C   UNL     1      -0.511  15.701  19.034  0.00  0.00    +0.000 C 
ENDBRANCH  25  27
ENDBRANCH  14  25
ENDBRANCH   1  18
BRANCH   8  28
ATOM     28  C   UNL     1       4.006   2.592  18.981  0.00  0.00    +0.000 C 
ATOM     29  O   UNL     1       3.618   1.795  18.138  0.00  0.00    +0.000 OA
BRANCH  28  30
ATOM     30  O   UNL     1       4.924   2.257  19.914  0.00  0.00    +0.000 OA
ATOM     31  H   UNL     1       4.896   2.819  20.726  0.00  0.00    +0.000 HD
ENDBRANCH  28  30
ENDBRANCH   8  28
BRANCH  10  32
ATOM     32  C   UNL     1       4.146   7.232  17.213  0.00  0.00    +0.000 C 
BRANCH  32  33
ATOM     33  C   UNL     1       5.161   6.693  16.203  0.00  0.00    +0.000 C 
ATOM     34  F   UNL     1       4.788   7.040  14.942  0.00  0.00    +0.000 F 
ENDBRANCH  32  33
ENDBRANCH  10  32
TORSDOF 8
ENDMDL
MODEL 9
REMARK VINA RESULT:      -7.4      1.176      1.828
REMARK  Name = 
REMARK  10 active torsions:
REMARK  status: ('A' for Active; 'I' for Inactive)
REMARK    1  A    between atoms: C_1  and  C_2
REMARK    2  A    between atoms: C_2  and  O_3
REMARK    3  A    between atoms: O_3  and  N_4
REMARK    4  A    between atoms: N_8  and  C_9
REMARK    5  A    between atoms: C_16  and  C_17
REMARK    6  A    between atoms: C_17  and  O_19
REMARK    7  A    between atoms: N_21  and  C_22
REMARK    8  A    between atoms: C_22  and  C_23
REMARK    9  A    between atoms: C_29  and  C_30
REMARK   10  A    between atoms: C_29  and  N_31
REMARK                            x       y       z     vdW  Elec       q    Type
REMARK                         _______ _______ _______ _____ _____    ______ ____
ROOT
ATOM      1  C   UNL     1       1.924   8.745  19.118  0.00  0.00    +0.000 A 
ATOM      2  C   UNL     1       2.570   9.213  17.966  0.00  0.00    +0.000 A 
ATOM      3  F   UNL     1       2.375  10.467  17.529  0.00  0.00    +0.000 F 
ATOM      4  C   UNL     1       3.455   8.423  17.243  0.00  0.00    +0.000 A 
ATOM      5  C   UNL     1       3.729   7.119  17.665  0.00  0.00    +0.000 A 
ATOM      6  C   UNL     1       4.677   6.318  16.866  0.00  0.00    +0.000 A 
ATOM      7  O   UNL     1       5.226   6.776  15.866  0.00  0.00    +0.000 OA
ATOM      8  C   UNL     1       4.964   4.939  17.293  0.00  0.00    +0.000 A 
ATOM      9  C   UNL     1       4.327   4.500  18.389  0.00  0.00    +0.000 A 
ATOM     10  N   UNL     1       3.437   5.218  19.181  0.00  0.00    +0.000 N 
ATOM     11  C   UNL     1       3.127   6.565  18.810  0.00  0.00    +0.000 A 
ATOM     12  C   UNL     1       2.231   7.413  19.506  0.00  0.00    +0.000 A 
ATOM     13  F   UNL     1       1.586   6.927  20.581  0.00  0.00    +0.000 F 
ENDROOT
BRANCH   1  18
ATOM     14  N   UNL     1      -1.941  11.504  21.812  0.00  0.00    +0.000 NA
ATOM     15  C   UNL     1      -1.157  10.616  21.269  0.00  0.00    +0.000 C 
ATOM     16  C   UNL     1      -1.180  10.577  19.744  0.00  0.00    +0.000 C 
ATOM     17  C   UNL     1       0.237  10.589  19.193  0.00  0.00    +0.000 C 
ATOM     18  N   UNL     1       0.974   9.490  19.822  0.00  0.00    +0.000 N 
ATOM     19  C   UNL     1       1.135   9.645  21.285  0.00  0.00    +0.000 C 
ATOM     20  C   UNL     1      -0.260   9.544  21.974  0.00  0.00    +0.000 C 
ATOM     21  C   UNL     1      -0.049   9.643  23.486  0.00  0.00    +0.000 C 
BRANCH  20  22
ATOM     22  N   UNL     1      -0.869   8.211  21.723  0.00  0.00    +0.000 NA
ATOM     23  H   UNL     1      -1.800   8.362  21.328  0.00  0.00    +0.000 HD
ATOM     24  H   UNL     1      -0.980   7.717  22.608  0.00  0.00    +0.000 HD
ENDBRANCH  20  22
BRANCH  14  25
ATOM     25  O   UNL     1      -1.910  11.457  23.197  0.00  0.00    +0.000 OA
BRANCH  25  27
ATOM     26  C   UNL     1      -2.572  13.719  23.275  0.00  0.00    +0.000 C 
ATOM     27  C   UNL     1      -2.906  12.316  23.741  0.00  0.00    +0.000 C 
ENDBRANCH  25  27
ENDBRANCH  14  25
ENDBRANCH   1  18
BRANCH   8  28
ATOM     28  C   UNL     1       5.897   4.037  16.586  0.00  0.00    +0.000 C 
ATOM     29  O   UNL     1       5.566   3.320  15.651  0.00  0.00    +0.000 OA
BRANCH  28  30
ATOM     30  O   UNL     1       7.159   4.048  17.068  0.00  0.00    +0.000 OA
ATOM     31  H   UNL     1       7.431   4.911  17.464  0.00  0.00    +0.000 HD
ENDBRANCH  28  30
ENDBRANCH   8  28
BRANCH  10  32
ATOM     32  C   UNL     1       2.711   4.644  20.348  0.00  0.00    +0.000 C 
BRANCH  32  33
ATOM     33  C   UNL     1       1.624   3.615  20.033  0.00  0.00    +0.000 C 
ATOM     34  F   UNL     1       0.856   3.399  21.136  0.00  0.00    +0.000 F 
ENDBRANCH  32  33
ENDBRANCH  10  32
TORSDOF 8
ENDMDL
