MODEL 1
REMARK VINA RESULT:      -7.2      0.000      0.000
REMARK  Name = 
REMARK  6 active torsions:
REMARK  status: ('A' for Active; 'I' for Inactive)
REMARK    1  A    between atoms: C_1  and  S_2
REMARK    2  A    between atoms: S_2  and  C_3
REMARK    3  A    between atoms: C_8  and  C_9
REMARK    4  A    between atoms: N_11  and  C_12
REMARK    5  A    between atoms: C_15  and  C_16
REMARK    6  A    between atoms: C_17  and  C_18
REMARK                            x       y       z     vdW  Elec       q    Type
REMARK                         _______ _______ _______ _____ _____    ______ ____
ROOT
ATOM      1  C   UNL     1       2.025   5.611  20.241  0.00  0.00    +0.000 C 
ATOM      2  O   UNL     1       0.875   5.238  20.440  0.00  0.00    +0.000 OA
ATOM      3  N   UNL     1       2.431   6.940  20.190  0.00  0.00    +0.000 N 
ATOM      4  H   UNL     1       3.397   7.100  19.913  0.00  0.00    +0.000 HD
ENDROOT
BRANCH   3   5
ATOM      5  C   UNL     1       1.585   8.066  20.348  0.00  0.00    +0.000 A 
ATOM      6  C   UNL     1       1.318   8.960  19.314  0.00  0.00    +0.000 A 
ATOM      7  C   UNL     1       0.551  10.105  19.527  0.00  0.00    +0.000 A 
ATOM      8  C   UNL     1       0.024  10.393  20.789  0.00  0.00    +0.000 A 
ATOM      9  C   UNL     1      -0.741  11.674  20.969  0.00  0.00    +0.000 C 
ATOM     10  C   UNL     1       0.246   9.480  21.840  0.00  0.00    +0.000 A 
ATOM     11  C   UNL     1      -0.280   9.712  23.231  0.00  0.00    +0.000 C 
ATOM     12  C   UNL     1       1.013   8.315  21.601  0.00  0.00    +0.000 A 
ENDBRANCH   3   5
BRANCH   1  18
ATOM     13  C   UNL     1       5.127   4.158  18.987  0.00  0.00    +0.000 A 
ATOM     14  N   UNL     1       5.156   2.902  19.454  0.00  0.00    +0.000 NA
ATOM     15  C   UNL     1       4.110   2.507  20.204  0.00  0.00    +0.000 A 
ATOM     16  C   UNL     1       3.037   3.310  20.518  0.00  0.00    +0.000 A 
ATOM     17 CL   UNL     1       1.793   2.631  21.486  0.00  0.00    +0.000 Cl
ATOM     18  C   UNL     1       3.102   4.591  19.991  0.00  0.00    +0.000 A 
ATOM     19  N   UNL     1       4.134   5.036  19.212  0.00  0.00    +0.000 NA
BRANCH  13  21
ATOM     20  C   UNL     1       5.568   5.705  16.762  0.00  0.00    +0.000 C 
ATOM     21  S   UNL     1       6.476   4.699  17.970  0.00  0.00    +0.000 S 
ENDBRANCH  13  21
ENDBRANCH   1  18
TORSDOF 3
ENDMDL
MODEL 2
REMARK VINA RESULT:      -7.1      1.133      1.160
REMARK  Name = 
REMARK  6 active torsions:
REMARK  status: ('A' for Active; 'I' for Inactive)
REMARK    1  A    between atoms: C_1  and  S_2
REMARK    2  A    between atoms: S_2  and  C_3
REMARK    3  A    between atoms: C_8  and  C_9
REMARK    4  A    between atoms: N_11  and  C_12
REMARK    5  A    between atoms: C_15  and  C_16
REMARK    6  A    between atoms: C_17  and  C_18
REMARK                            x       y       z     vdW  Elec       q    Type
REMARK                         _______ _______ _______ _____ _____    ______ ____
ROOT
ATOM      1  C   UNL     1       2.538   6.602  19.113  0.00  0.00    +0.000 C 
ATOM      2  O   UNL     1       2.084   6.908  18.018  0.00  0.00    +0.000 OA
ATOM      3  N   UNL     1       2.252   7.261  20.305  0.00  0.00    +0.000 N 
ATOM      4  H   UNL     1       2.784   6.962  21.119  0.00  0.00    +0.000 HD
ENDROOT
BRANCH   3   5
ATOM      5  C   UNL     1       1.404   8.390  20.437  0.00  0.00    +0.000 A 
ATOM      6  C   UNL     1       1.219   9.318  19.416  0.00  0.00    +0.000 A 
ATOM      7  C   UNL     1       0.447  10.463  19.611  0.00  0.00    +0.000 A 
ATOM      8  C   UNL     1      -0.168  10.716  20.840  0.00  0.00    +0.000 A 
ATOM      9  C   UNL     1      -0.936  11.998  21.005  0.00  0.00    +0.000 C 
ATOM     10  C   UNL     1      -0.030   9.769  21.874  0.00  0.00    +0.000 A 
ATOM     11  C   UNL     1      -0.653   9.961  23.230  0.00  0.00    +0.000 C 
ATOM     12  C   UNL     1       0.745   8.605  21.653  0.00  0.00    +0.000 A 
ENDBRANCH   3   5
BRANCH   1  18
ATOM     13  C   UNL     1       5.657   4.734  18.817  0.00  0.00    +0.000 A 
ATOM     14  N   UNL     1       5.413   3.530  19.352  0.00  0.00    +0.000 NA
ATOM     15  C   UNL     1       4.170   3.314  19.822  0.00  0.00    +0.000 A 
ATOM     16  C   UNL     1       3.158   4.246  19.791  0.00  0.00    +0.000 A 
ATOM     17 CL   UNL     1       1.635   3.789  20.436  0.00  0.00    +0.000 Cl
ATOM     18  C   UNL     1       3.512   5.460  19.220  0.00  0.00    +0.000 A 
ATOM     19  N   UNL     1       4.754   5.725  18.716  0.00  0.00    +0.000 NA
BRANCH  13  21
ATOM     20  C   UNL     1       7.024   4.494  16.448  0.00  0.00    +0.000 C 
ATOM     21  S   UNL     1       7.277   5.040  18.161  0.00  0.00    +0.000 S 
ENDBRANCH  13  21
ENDBRANCH   1  18
TORSDOF 3
ENDMDL
MODEL 3
REMARK VINA RESULT:      -7.0      2.817      3.488
REMARK  Name = 
REMARK  6 active torsions:
REMARK  status: ('A' for Active; 'I' for Inactive)
REMARK    1  A    between atoms: C_1  and  S_2
REMARK    2  A    between atoms: S_2  and  C_3
REMARK    3  A    between atoms: C_8  and  C_9
REMARK    4  A    between atoms: N_11  and  C_12
REMARK    5  A    between atoms: C_15  and  C_16
REMARK    6  A    between atoms: C_17  and  C_18
REMARK                            x       y       z     vdW  Elec       q    Type
REMARK                         _______ _______ _______ _____ _____    ______ ____
ROOT
ATOM      1  C   UNL     1       3.882   5.774  17.624  0.00  0.00    +0.000 C 
ATOM      2  O   UNL     1       2.931   5.018  17.786  0.00  0.00    +0.000 OA
ATOM      3  N   UNL     1       3.859   7.144  17.868  0.00  0.00    +0.000 N 
ATOM      4  H   UNL     1       4.690   7.660  17.589  0.00  0.00    +0.000 HD
ENDROOT
BRANCH   3   5
ATOM      5  C   UNL     1       2.738   7.878  18.329  0.00  0.00    +0.000 A 
ATOM      6  C   UNL     1       2.068   8.808  17.537  0.00  0.00    +0.000 A 
ATOM      7  C   UNL     1       1.023   9.576  18.051  0.00  0.00    +0.000 A 
ATOM      8  C   UNL     1       0.614   9.438  19.380  0.00  0.00    +0.000 A 
ATOM      9  C   UNL     1      -0.476  10.339  19.890  0.00  0.00    +0.000 C 
ATOM     10  C   UNL     1       1.249   8.472  20.187  0.00  0.00    +0.000 A 
ATOM     11  C   UNL     1       0.876   8.257  21.628  0.00  0.00    +0.000 C 
ATOM     12  C   UNL     1       2.297   7.690  19.644  0.00  0.00    +0.000 A 
ENDBRANCH   3   5
BRANCH   1  18
ATOM     13  C   UNL     1       6.292   4.417  15.245  0.00  0.00    +0.000 A 
ATOM     14  N   UNL     1       7.433   4.262  15.931  0.00  0.00    +0.000 NA
ATOM     15  C   UNL     1       7.413   4.606  17.233  0.00  0.00    +0.000 A 
ATOM     16  C   UNL     1       6.308   5.107  17.883  0.00  0.00    +0.000 A 
ATOM     17 CL   UNL     1       6.470   5.488  19.548  0.00  0.00    +0.000 Cl
ATOM     18  C   UNL     1       5.178   5.232  17.087  0.00  0.00    +0.000 A 
ATOM     19  N   UNL     1       5.143   4.883  15.766  0.00  0.00    +0.000 NA
BRANCH  13  21
ATOM     20  C   UNL     1       7.594   5.020  12.905  0.00  0.00    +0.000 C 
ATOM     21  S   UNL     1       6.278   3.942  13.536  0.00  0.00    +0.000 S 
ENDBRANCH  13  21
ENDBRANCH   1  18
TORSDOF 3
ENDMDL
MODEL 4
REMARK VINA RESULT:      -7.0      0.764      1.692
REMARK  Name = 
REMARK  6 active torsions:
REMARK  status: ('A' for Active; 'I' for Inactive)
REMARK    1  A    between atoms: C_1  and  S_2
REMARK    2  A    between atoms: S_2  and  C_3
REMARK    3  A    between atoms: C_8  and  C_9
REMARK    4  A    between atoms: N_11  and  C_12
REMARK    5  A    between atoms: C_15  and  C_16
REMARK    6  A    between atoms: C_17  and  C_18
REMARK                            x       y       z     vdW  Elec       q    Type
REMARK                         _______ _______ _______ _____ _____    ______ ____
ROOT
ATOM      1  C   UNL     1       1.903   5.767  20.434  0.00  0.00    +0.000 C 
ATOM      2  O   UNL     1       0.733   5.436  20.583  0.00  0.00    +0.000 OA
ATOM      3  N   UNL     1       2.371   7.076  20.477  0.00  0.00    +0.000 N 
ATOM      4  H   UNL     1       3.350   7.208  20.232  0.00  0.00    +0.000 HD
ENDROOT
BRANCH   3   5
ATOM      5  C   UNL     1       1.573   8.228  20.689  0.00  0.00    +0.000 A 
ATOM      6  C   UNL     1       1.217   8.677  21.958  0.00  0.00    +0.000 A 
ATOM      7  C   UNL     1       0.358   9.763  22.128  0.00  0.00    +0.000 A 
ATOM      8  C   UNL     1      -0.175  10.437  21.026  0.00  0.00    +0.000 A 
ATOM      9  C   UNL     1      -1.144  11.559  21.275  0.00  0.00    +0.000 C 
ATOM     10  C   UNL     1       0.205  10.027  19.732  0.00  0.00    +0.000 A 
ATOM     11  C   UNL     1      -0.323  10.692  18.490  0.00  0.00    +0.000 C 
ATOM     12  C   UNL     1       1.090   8.933  19.580  0.00  0.00    +0.000 A 
ENDBRANCH   3   5
BRANCH   1  18
ATOM     13  C   UNL     1       4.932   4.236  19.095  0.00  0.00    +0.000 A 
ATOM     14  N   UNL     1       4.923   2.969  19.532  0.00  0.00    +0.000 NA
ATOM     15  C   UNL     1       3.876   2.593  20.290  0.00  0.00    +0.000 A 
ATOM     16  C   UNL     1       2.837   3.426  20.641  0.00  0.00    +0.000 A 
ATOM     17 CL   UNL     1       1.585   2.768  21.613  0.00  0.00    +0.000 Cl
ATOM     18  C   UNL     1       2.940   4.716  20.142  0.00  0.00    +0.000 A 
ATOM     19  N   UNL     1       3.974   5.142  19.357  0.00  0.00    +0.000 NA
BRANCH  13  21
ATOM     20  C   UNL     1       7.282   5.641  19.294  0.00  0.00    +0.000 C 
ATOM     21  S   UNL     1       6.282   4.752  18.068  0.00  0.00    +0.000 S 
ENDBRANCH  13  21
ENDBRANCH   1  18
TORSDOF 3
ENDMDL
MODEL 5
REMARK VINA RESULT:      -6.9      1.702      1.759
REMARK  Name = 
REMARK  6 active torsions:
REMARK  status: ('A' for Active; 'I' for Inactive)
REMARK    1  A    between atoms: C_1  and  S_2
REMARK    2  A    between atoms: S_2  and  C_3
REMARK    3  A    between atoms: C_8  and  C_9
REMARK    4  A    between atoms: N_11  and  C_12
REMARK    5  A    between atoms: C_15  and  C_16
REMARK    6  A    between atoms: C_17  and  C_18
REMARK                            x       y       z     vdW  Elec       q    Type
REMARK                         _______ _______ _______ _____ _____    ______ ____
ROOT
ATOM      1  C   UNL     1       2.379   6.435  19.723  0.00  0.00    +0.000 C 
ATOM      2  O   UNL     1       1.729   5.896  20.611  0.00  0.00    +0.000 OA
ATOM      3  N   UNL     1       2.239   7.762  19.330  0.00  0.00    +0.000 N 
ATOM      4  H   UNL     1       2.772   8.042  18.509  0.00  0.00    +0.000 HD
ENDROOT
BRANCH   3   5
ATOM      5  C   UNL     1       1.323   8.691  19.883  0.00  0.00    +0.000 A 
ATOM      6  C   UNL     1       0.724   9.699  19.130  0.00  0.00    +0.000 A 
ATOM      7  C   UNL     1      -0.105  10.650  19.724  0.00  0.00    +0.000 A 
ATOM      8  C   UNL     1      -0.362  10.623  21.098  0.00  0.00    +0.000 A 
ATOM      9  C   UNL     1      -1.214  11.713  21.687  0.00  0.00    +0.000 C 
ATOM     10  C   UNL     1       0.199   9.587  21.871  0.00  0.00    +0.000 A 
ATOM     11  C   UNL     1      -0.021   9.483  23.356  0.00  0.00    +0.000 C 
ATOM     12  C   UNL     1       1.025   8.621  21.249  0.00  0.00    +0.000 A 
ENDBRANCH   3   5
BRANCH   1  18
ATOM     13  C   UNL     1       5.617   5.225  18.559  0.00  0.00    +0.000 A 
ATOM     14  N   UNL     1       5.347   4.262  17.667  0.00  0.00    +0.000 NA
ATOM     15  C   UNL     1       4.048   4.002  17.427  0.00  0.00    +0.000 A 
ATOM     16  C   UNL     1       3.003   4.653  18.041  0.00  0.00    +0.000 A 
ATOM     17 CL   UNL     1       1.410   4.187  17.605  0.00  0.00    +0.000 Cl
ATOM     18  C   UNL     1       3.386   5.630  18.948  0.00  0.00    +0.000 A 
ATOM     19  N   UNL     1       4.690   5.941  19.217  0.00  0.00    +0.000 NA
BRANCH  13  21
ATOM     20  C   UNL     1       7.535   7.008  17.734  0.00  0.00    +0.000 C 
ATOM     21  S   UNL     1       7.319   5.612  18.874  0.00  0.00    +0.000 S 
ENDBRANCH  13  21
ENDBRANCH   1  18
TORSDOF 3
ENDMDL
MODEL 6
REMARK VINA RESULT:      -6.7      1.723      2.313
REMARK  Name = 
REMARK  6 active torsions:
REMARK  status: ('A' for Active; 'I' for Inactive)
REMARK    1  A    between atoms: C_1  and  S_2
REMARK    2  A    between atoms: S_2  and  C_3
REMARK    3  A    between atoms: C_8  and  C_9
REMARK    4  A    between atoms: N_11  and  C_12
REMARK    5  A    between atoms: C_15  and  C_16
REMARK    6  A    between atoms: C_17  and  C_18
REMARK                            x       y       z     vdW  Elec       q    Type
REMARK                         _______ _______ _______ _____ _____    ______ ____
ROOT
ATOM      1  C   UNL     1       2.351   6.314  19.784  0.00  0.00    +0.000 C 
ATOM      2  O   UNL     1       1.841   5.684  20.703  0.00  0.00    +0.000 OA
ATOM      3  N   UNL     1       2.203   7.682  19.581  0.00  0.00    +0.000 N 
ATOM      4  H   UNL     1       2.598   8.050  18.718  0.00  0.00    +0.000 HD
ENDROOT
BRANCH   3   5
ATOM      5  C   UNL     1       1.436   8.556  20.392  0.00  0.00    +0.000 A 
ATOM      6  C   UNL     1       1.448   8.499  21.783  0.00  0.00    +0.000 A 
ATOM      7  C   UNL     1       0.615   9.315  22.548  0.00  0.00    +0.000 A 
ATOM      8  C   UNL     1      -0.262  10.218  21.941  0.00  0.00    +0.000 A 
ATOM      9  C   UNL     1      -1.178  11.025  22.819  0.00  0.00    +0.000 C 
ATOM     10  C   UNL     1      -0.260  10.323  20.536  0.00  0.00    +0.000 A 
ATOM     11  C   UNL     1      -1.173  11.265  19.798  0.00  0.00    +0.000 C 
ATOM     12  C   UNL     1       0.604   9.498  19.776  0.00  0.00    +0.000 A 
ENDBRANCH   3   5
BRANCH   1  18
ATOM     13  C   UNL     1       5.203   5.457  17.678  0.00  0.00    +0.000 A 
ATOM     14  N   UNL     1       4.818   4.394  16.958  0.00  0.00    +0.000 NA
ATOM     15  C   UNL     1       3.567   3.942  17.162  0.00  0.00    +0.000 A 
ATOM     16  C   UNL     1       2.681   4.496  18.058  0.00  0.00    +0.000 A 
ATOM     17 CL   UNL     1       1.124   3.784  18.180  0.00  0.00    +0.000 Cl
ATOM     18  C   UNL     1       3.174   5.589  18.755  0.00  0.00    +0.000 A 
ATOM     19  N   UNL     1       4.431   6.096  18.574  0.00  0.00    +0.000 NA
BRANCH  13  21
ATOM     20  C   UNL     1       7.565   5.779  19.041  0.00  0.00    +0.000 C 
ATOM     21  S   UNL     1       6.836   6.097  17.409  0.00  0.00    +0.000 S 
ENDBRANCH  13  21
ENDBRANCH   1  18
TORSDOF 3
ENDMDL
MODEL 7
REMARK VINA RESULT:      -6.7      1.407      2.039
REMARK  Name = 
REMARK  6 active torsions:
REMARK  status: ('A' for Active; 'I' for Inactive)
REMARK    1  A    between atoms: C_1  and  S_2
REMARK    2  A    between atoms: S_2  and  C_3
REMARK    3  A    between atoms: C_8  and  C_9
REMARK    4  A    between atoms: N_11  and  C_12
REMARK    5  A    between atoms: C_15  and  C_16
REMARK    6  A    between atoms: C_17  and  C_18
REMARK                            x       y       z     vdW  Elec       q    Type
REMARK                         _______ _______ _______ _____ _____    ______ ____
ROOT
ATOM      1  C   UNL     1       2.493   6.906  19.421  0.00  0.00    +0.000 C 
ATOM      2  O   UNL     1       2.326   7.538  18.385  0.00  0.00    +0.000 OA
ATOM      3  N   UNL     1       2.000   7.278  20.667  0.00  0.00    +0.000 N 
ATOM      4  H   UNL     1       2.306   6.711  21.455  0.00  0.00    +0.000 HD
ENDROOT
BRANCH   3   5
ATOM      5  C   UNL     1       1.240   8.444  20.936  0.00  0.00    +0.000 A 
ATOM      6  C   UNL     1       0.966   8.885  22.229  0.00  0.00    +0.000 A 
ATOM      7  C   UNL     1       0.142   9.986  22.458  0.00  0.00    +0.000 A 
ATOM      8  C   UNL     1      -0.437  10.685  21.396  0.00  0.00    +0.000 A 
ATOM      9  C   UNL     1      -1.366  11.825  21.711  0.00  0.00    +0.000 C 
ATOM     10  C   UNL     1      -0.139  10.283  20.079  0.00  0.00    +0.000 A 
ATOM     11  C   UNL     1      -0.721  10.975  18.876  0.00  0.00    +0.000 C 
ATOM     12  C   UNL     1       0.711   9.173  19.864  0.00  0.00    +0.000 A 
ENDBRANCH   3   5
BRANCH   1  18
ATOM     13  C   UNL     1       5.312   4.683  18.775  0.00  0.00    +0.000 A 
ATOM     14  N   UNL     1       4.964   3.495  19.287  0.00  0.00    +0.000 NA
ATOM     15  C   UNL     1       3.749   3.412  19.862  0.00  0.00    +0.000 A 
ATOM     16  C   UNL     1       2.865   4.462  19.956  0.00  0.00    +0.000 A 
ATOM     17 CL   UNL     1       1.358   4.167  20.722  0.00  0.00    +0.000 Cl
ATOM     18  C   UNL     1       3.319   5.649  19.398  0.00  0.00    +0.000 A 
ATOM     19  N   UNL     1       4.537   5.781  18.792  0.00  0.00    +0.000 NA
BRANCH  13  21
ATOM     20  C   UNL     1       7.786   5.782  19.235  0.00  0.00    +0.000 C 
ATOM     21  S   UNL     1       6.894   4.816  17.983  0.00  0.00    +0.000 S 
ENDBRANCH  13  21
ENDBRANCH   1  18
TORSDOF 3
ENDMDL
MODEL 8
REMARK VINA RESULT:      -6.7      2.782      3.045
REMARK  Name = 
REMARK  6 active torsions:
REMARK  status: ('A' for Active; 'I' for Inactive)
REMARK    1  A    between atoms: C_1  and  S_2
REMARK    2  A    between atoms: S_2  and  C_3
REMARK    3  A    between atoms: C_8  and  C_9
REMARK    4  A    between atoms: N_11  and  C_12
REMARK    5  A    between atoms: C_15  and  C_16
REMARK    6  A    between atoms: C_17  and  C_18
REMARK                            x       y       z     vdW  Elec       q    Type
REMARK                         _______ _______ _______ _____ _____    ______ ____
ROOT
ATOM      1  C   UNL     1       2.526   7.302  18.606  0.00  0.00    +0.000 C 
ATOM      2  O   UNL     1       2.095   7.221  19.750  0.00  0.00    +0.000 OA
ATOM      3  N   UNL     1       2.223   8.327  17.715  0.00  0.00    +0.000 N 
ATOM      4  H   UNL     1       2.569   8.208  16.765  0.00  0.00    +0.000 HD
ENDROOT
BRANCH   3   5
ATOM      5  C   UNL     1       1.368   9.425  17.984  0.00  0.00    +0.000 A 
ATOM      6  C   UNL     1       1.832  10.636  18.493  0.00  0.00    +0.000 A 
ATOM      7  C   UNL     1       0.952  11.664  18.828  0.00  0.00    +0.000 A 
ATOM      8  C   UNL     1      -0.427  11.513  18.663  0.00  0.00    +0.000 A 
ATOM      9  C   UNL     1      -1.327  12.635  19.101  0.00  0.00    +0.000 C 
ATOM     10  C   UNL     1      -0.916  10.313  18.109  0.00  0.00    +0.000 A 
ATOM     11  C   UNL     1      -2.385  10.063  17.901  0.00  0.00    +0.000 C 
ATOM     12  C   UNL     1      -0.007   9.285  17.761  0.00  0.00    +0.000 A 
ENDBRANCH   3   5
BRANCH   1  18
ATOM     13  C   UNL     1       5.568   5.609  17.517  0.00  0.00    +0.000 A 
ATOM     14  N   UNL     1       5.187   4.377  17.150  0.00  0.00    +0.000 NA
ATOM     15  C   UNL     1       3.876   4.089  17.253  0.00  0.00    +0.000 A 
ATOM     16  C   UNL     1       2.925   4.970  17.713  0.00  0.00    +0.000 A 
ATOM     17 CL   UNL     1       1.298   4.425  17.773  0.00  0.00    +0.000 Cl
ATOM     18  C   UNL     1       3.418   6.217  18.070  0.00  0.00    +0.000 A 
ATOM     19  N   UNL     1       4.737   6.564  17.970  0.00  0.00    +0.000 NA
BRANCH  13  21
ATOM     20  C   UNL     1       7.808   5.828  19.088  0.00  0.00    +0.000 C 
ATOM     21  S   UNL     1       7.284   6.030  17.363  0.00  0.00    +0.000 S 
ENDBRANCH  13  21
ENDBRANCH   1  18
TORSDOF 3
ENDMDL
MODEL 9
REMARK VINA RESULT:      -6.6      1.234      1.843
REMARK  Name = 
REMARK  6 active torsions:
REMARK  status: ('A' for Active; 'I' for Inactive)
REMARK    1  A    between atoms: C_1  and  S_2
REMARK    2  A    between atoms: S_2  and  C_3
REMARK    3  A    between atoms: C_8  and  C_9
REMARK    4  A    between atoms: N_11  and  C_12
REMARK    5  A    between atoms: C_15  and  C_16
REMARK    6  A    between atoms: C_17  and  C_18
REMARK                            x       y       z     vdW  Elec       q    Type
REMARK                         _______ _______ _______ _____ _____    ______ ____
ROOT
ATOM      1  C   UNL     1       1.946   6.115  20.262  0.00  0.00    +0.000 C 
ATOM      2  O   UNL     1       0.960   5.600  20.774  0.00  0.00    +0.000 OA
ATOM      3  N   UNL     1       2.224   7.479  20.267  0.00  0.00    +0.000 N 
ATOM      4  H   UNL     1       3.025   7.773  19.713  0.00  0.00    +0.000 HD
ENDROOT
BRANCH   3   5
ATOM      5  C   UNL     1       1.410   8.481  20.852  0.00  0.00    +0.000 A 
ATOM      6  C   UNL     1       1.305   8.659  22.229  0.00  0.00    +0.000 A 
ATOM      7  C   UNL     1       0.428   9.598  22.772  0.00  0.00    +0.000 A 
ATOM      8  C   UNL     1      -0.376  10.392  21.950  0.00  0.00    +0.000 A 
ATOM      9  C   UNL     1      -1.346  11.340  22.598  0.00  0.00    +0.000 C 
ATOM     10  C   UNL     1      -0.255  10.259  20.552  0.00  0.00    +0.000 A 
ATOM     11  C   UNL     1      -1.083  11.069  19.592  0.00  0.00    +0.000 C 
ATOM     12  C   UNL     1       0.652   9.312  20.018  0.00  0.00    +0.000 A 
ENDBRANCH   3   5
BRANCH   1  18
ATOM     13  C   UNL     1       4.415   5.112  17.770  0.00  0.00    +0.000 A 
ATOM     14  N   UNL     1       4.775   3.863  18.097  0.00  0.00    +0.000 NA
ATOM     15  C   UNL     1       4.178   3.319  19.175  0.00  0.00    +0.000 A 
ATOM     16  C   UNL     1       3.242   3.966  19.948  0.00  0.00    +0.000 A 
ATOM     17 CL   UNL     1       2.586   3.111  21.284  0.00  0.00    +0.000 Cl
ATOM     18  C   UNL     1       2.938   5.253  19.529  0.00  0.00    +0.000 A 
ATOM     19  N   UNL     1       3.505   5.845  18.435  0.00  0.00    +0.000 NA
BRANCH  13  21
ATOM     20  C   UNL     1       5.766   4.350  15.505  0.00  0.00    +0.000 C 
ATOM     21  S   UNL     1       5.160   5.845  16.337  0.00  0.00    +0.000 S 
ENDBRANCH  13  21
ENDBRANCH   1  18
TORSDOF 3
ENDMDL
