MODEL 1
REMARK VINA RESULT:      -7.3      0.000      0.000
REMARK  Name = 
REMARK  10 active torsions:
REMARK  status: ('A' for Active; 'I' for Inactive)
REMARK    1  A    between atoms: C_1  and  O_2
REMARK    2  A    between atoms: O_2  and  C_3
REMARK    3  A    between atoms: C_6  and  N_7
REMARK    4  A    between atoms: C_8  and  C_10
REMARK    5  A    between atoms: C_10  and  N_11
REMARK    6  A    between atoms: N_11  and  C_12
REMARK    7  A    between atoms: C_13  and  C_15
REMARK    8  A    between atoms: C_19  and  S_20
REMARK    9  A    between atoms: S_20  and  N_23
REMARK   10  A    between atoms: N_26  and  C_27
REMARK                            x       y       z     vdW  Elec       q    Type
REMARK                         _______ _______ _______ _____ _____    ______ ____
ROOT
ATOM      1  N   UNL     1       3.399   4.696  19.932  0.00  0.00    +0.000 N 
ATOM      2  C   UNL     1       3.507   3.250  20.085  0.00  0.00    +0.000 C 
ATOM      3  C   UNL     1       2.116   5.258  19.939  0.00  0.00    +0.000 C 
ATOM      4  O   UNL     1       1.131   4.607  20.293  0.00  0.00    +0.000 OA
ENDROOT
BRANCH   3   5
ATOM      5  C   UNL     1       1.897   6.702  19.628  0.00  0.00    +0.000 A 
ATOM      6  C   UNL     1       2.135   7.115  18.307  0.00  0.00    +0.000 A 
ATOM      7  C   UNL     1       1.998   8.457  17.945  0.00  0.00    +0.000 A 
ATOM      8  C   UNL     1       1.603   9.400  18.896  0.00  0.00    +0.000 A 
ATOM      9  C   UNL     1       1.359   8.996  20.214  0.00  0.00    +0.000 A 
ATOM     10  C   UNL     1       1.558   7.660  20.592  0.00  0.00    +0.000 A 
BRANCH   9  11
ATOM     11  S   UNL     1       1.010  10.228  21.461  0.00  0.00    +0.000 S 
ATOM     12  O   UNL     1       1.314   9.625  22.745  0.00  0.00    +0.000 OA
ATOM     13  O   UNL     1       1.682  11.447  21.055  0.00  0.00    +0.000 OA
BRANCH  11  14
ATOM     14  N   UNL     1      -0.670  10.489  21.402  0.00  0.00    +0.000 NA
ATOM     15  C   UNL     1      -1.233  11.301  20.284  0.00  0.00    +0.000 C 
ATOM     16  C   UNL     1      -1.007  12.812  20.487  0.00  0.00    +0.000 C 
ATOM     17  N   UNL     1      -1.554  13.313  21.763  0.00  0.00    +0.000 NA
ATOM     18  C   UNL     1      -1.168  14.716  21.955  0.00  0.00    +0.000 C 
ATOM     19  C   UNL     1      -1.090  12.491  22.902  0.00  0.00    +0.000 C 
ATOM     20  C   UNL     1      -1.272  10.968  22.694  0.00  0.00    +0.000 C 
ENDBRANCH  11  14
ENDBRANCH   9  11
ENDBRANCH   3   5
BRANCH   1  21
ATOM     21  C   UNL     1       4.632   5.393  19.568  0.00  0.00    +0.000 C 
BRANCH  21  23
ATOM     22  N   UNL     1       4.884   5.220  17.127  0.00  0.00    +0.000 N 
ATOM     23  C   UNL     1       5.406   4.866  18.359  0.00  0.00    +0.000 C 
ATOM     24  O   UNL     1       6.476   4.289  18.557  0.00  0.00    +0.000 OA
ATOM     25  H   UNL     1       4.016   5.758  17.137  0.00  0.00    +0.000 HD
BRANCH  22  29
ATOM     26  C   UNL     1       6.753   4.370  13.416  0.00  0.00    +0.000 A 
ATOM     27  C   UNL     1       5.469   3.905  13.674  0.00  0.00    +0.000 A 
ATOM     28  C   UNL     1       4.834   4.201  14.878  0.00  0.00    +0.000 A 
ATOM     29  C   UNL     1       5.472   4.949  15.868  0.00  0.00    +0.000 A 
ATOM     30  C   UNL     1       6.760   5.431  15.603  0.00  0.00    +0.000 A 
ATOM     31  C   UNL     1       7.401   5.140  14.382  0.00  0.00    +0.000 A 
BRANCH  26  33
ATOM     32  C   UNL     1       6.685   2.812  11.629  0.00  0.00    +0.000 C 
ATOM     33  O   UNL     1       7.267   3.964  12.219  0.00  0.00    +0.000 OA
ENDBRANCH  26  33
ENDBRANCH  22  29
ENDBRANCH  21  23
ENDBRANCH   1  21
TORSDOF 7
ENDMDL
MODEL 2
REMARK VINA RESULT:      -7.1      0.968      1.541
REMARK  Name = 
REMARK  10 active torsions:
REMARK  status: ('A' for Active; 'I' for Inactive)
REMARK    1  A    between atoms: C_1  and  O_2
REMARK    2  A    between atoms: O_2  and  C_3
REMARK    3  A    between atoms: C_6  and  N_7
REMARK    4  A    between atoms: C_8  and  C_10
REMARK    5  A    between atoms: C_10  and  N_11
REMARK    6  A    between atoms: N_11  and  C_12
REMARK    7  A    between atoms: C_13  and  C_15
REMARK    8  A    between atoms: C_19  and  S_20
REMARK    9  A    between atoms: S_20  and  N_23
REMARK   10  A    between atoms: N_26  and  C_27
REMARK                            x       y       z     vdW  Elec       q    Type
REMARK                         _______ _______ _______ _____ _____    ______ ____
ROOT
ATOM      1  N   UNL     1       3.929   4.522  19.759  0.00  0.00    +0.000 N 
ATOM      2  C   UNL     1       4.130   3.092  19.962  0.00  0.00    +0.000 C 
ATOM      3  C   UNL     1       2.616   5.005  19.772  0.00  0.00    +0.000 C 
ATOM      4  O   UNL     1       1.679   4.309  20.169  0.00  0.00    +0.000 OA
ENDROOT
BRANCH   3   5
ATOM      5  C   UNL     1       2.302   6.420  19.414  0.00  0.00    +0.000 A 
ATOM      6  C   UNL     1       2.702   6.862  18.142  0.00  0.00    +0.000 A 
ATOM      7  C   UNL     1       2.487   8.184  17.748  0.00  0.00    +0.000 A 
ATOM      8  C   UNL     1       1.854   9.077  18.614  0.00  0.00    +0.000 A 
ATOM      9  C   UNL     1       1.447   8.644  19.882  0.00  0.00    +0.000 A 
ATOM     10  C   UNL     1       1.719   7.334  20.302  0.00  0.00    +0.000 A 
BRANCH   9  11
ATOM     11  S   UNL     1       0.783   9.828  21.045  0.00  0.00    +0.000 S 
ATOM     12  O   UNL     1      -0.583   9.425  21.321  0.00  0.00    +0.000 OA
ATOM     13  O   UNL     1       1.738   9.942  22.129  0.00  0.00    +0.000 OA
BRANCH  11  14
ATOM     14  N   UNL     1       0.722  11.313  20.216  0.00  0.00    +0.000 NA
ATOM     15  C   UNL     1       1.003  12.569  20.970  0.00  0.00    +0.000 C 
ATOM     16  C   UNL     1      -0.190  13.008  21.841  0.00  0.00    +0.000 C 
ATOM     17  N   UNL     1      -1.437  13.184  21.069  0.00  0.00    +0.000 NA
ATOM     18  C   UNL     1      -2.555  13.449  21.981  0.00  0.00    +0.000 C 
ATOM     19  C   UNL     1      -1.721  11.992  20.239  0.00  0.00    +0.000 C 
ATOM     20  C   UNL     1      -0.519  11.515  19.390  0.00  0.00    +0.000 C 
ENDBRANCH  11  14
ENDBRANCH   9  11
ENDBRANCH   3   5
BRANCH   1  21
ATOM     21  C   UNL     1       5.111   5.279  19.345  0.00  0.00    +0.000 C 
BRANCH  21  23
ATOM     22  N   UNL     1       5.222   4.937  16.911  0.00  0.00    +0.000 N 
ATOM     23  C   UNL     1       5.875   4.774  18.120  0.00  0.00    +0.000 C 
ATOM     24  O   UNL     1       7.033   4.386  18.274  0.00  0.00    +0.000 OA
ATOM     25  H   UNL     1       4.282   5.336  16.950  0.00  0.00    +0.000 HD
BRANCH  22  29
ATOM     26  C   UNL     1       6.712   4.107  13.028  0.00  0.00    +0.000 A 
ATOM     27  C   UNL     1       7.427   4.932  13.889  0.00  0.00    +0.000 A 
ATOM     28  C   UNL     1       6.962   5.190  15.177  0.00  0.00    +0.000 A 
ATOM     29  C   UNL     1       5.758   4.651  15.632  0.00  0.00    +0.000 A 
ATOM     30  C   UNL     1       5.045   3.808  14.771  0.00  0.00    +0.000 A 
ATOM     31  C   UNL     1       5.518   3.539  13.472  0.00  0.00    +0.000 A 
BRANCH  26  33
ATOM     32  C   UNL     1       7.241   2.689  11.202  0.00  0.00    +0.000 C 
ATOM     33  O   UNL     1       7.262   3.983  11.785  0.00  0.00    +0.000 OA
ENDBRANCH  26  33
ENDBRANCH  22  29
ENDBRANCH  21  23
ENDBRANCH   1  21
TORSDOF 7
ENDMDL
MODEL 3
REMARK VINA RESULT:      -7.0      3.916      6.887
REMARK  Name = 
REMARK  10 active torsions:
REMARK  status: ('A' for Active; 'I' for Inactive)
REMARK    1  A    between atoms: C_1  and  O_2
REMARK    2  A    between atoms: O_2  and  C_3
REMARK    3  A    between atoms: C_6  and  N_7
REMARK    4  A    between atoms: C_8  and  C_10
REMARK    5  A    between atoms: C_10  and  N_11
REMARK    6  A    between atoms: N_11  and  C_12
REMARK    7  A    between atoms: C_13  and  C_15
REMARK    8  A    between atoms: C_19  and  S_20
REMARK    9  A    between atoms: S_20  and  N_23
REMARK   10  A    between atoms: N_26  and  C_27
REMARK                            x       y       z     vdW  Elec       q    Type
REMARK                         _______ _______ _______ _____ _____    ______ ____
ROOT
ATOM      1  N   UNL     1       0.514  11.957  20.228  0.00  0.00    +0.000 N 
ATOM      2  C   UNL     1       1.689  12.740  20.592  0.00  0.00    +0.000 C 
ATOM      3  C   UNL     1      -0.184  12.328  19.073  0.00  0.00    +0.000 C 
ATOM      4  O   UNL     1       0.291  13.125  18.262  0.00  0.00    +0.000 OA
ENDROOT
BRANCH   3   5
ATOM      5  C   UNL     1      -1.485  11.690  18.711  0.00  0.00    +0.000 A 
ATOM      6  C   UNL     1      -1.435  10.573  17.860  0.00  0.00    +0.000 A 
ATOM      7  C   UNL     1      -2.610   9.947  17.438  0.00  0.00    +0.000 A 
ATOM      8  C   UNL     1      -3.849  10.419  17.875  0.00  0.00    +0.000 A 
ATOM      9  C   UNL     1      -3.908  11.529  18.727  0.00  0.00    +0.000 A 
ATOM     10  C   UNL     1      -2.732  12.195  19.101  0.00  0.00    +0.000 A 
BRANCH   9  11
ATOM     11  S   UNL     1      -5.496  12.226  19.156  0.00  0.00    +0.000 S 
ATOM     12  O   UNL     1      -6.062  12.767  17.935  0.00  0.00    +0.000 OA
ATOM     13  O   UNL     1      -6.217  11.215  19.904  0.00  0.00    +0.000 OA
BRANCH  11  14
ATOM     14  N   UNL     1      -5.167  13.535  20.192  0.00  0.00    +0.000 NA
ATOM     15  C   UNL     1      -4.601  13.256  21.544  0.00  0.00    +0.000 C 
ATOM     16  C   UNL     1      -5.667  12.745  22.532  0.00  0.00    +0.000 C 
ATOM     17  N   UNL     1      -6.813  13.664  22.675  0.00  0.00    +0.000 NA
ATOM     18  C   UNL     1      -7.851  13.043  23.506  0.00  0.00    +0.000 C 
ATOM     19  C   UNL     1      -7.365  14.037  21.354  0.00  0.00    +0.000 C 
ATOM     20  C   UNL     1      -6.300  14.513  20.338  0.00  0.00    +0.000 C 
ENDBRANCH  11  14
ENDBRANCH   9  11
ENDBRANCH   3   5
BRANCH   1  21
ATOM     21  C   UNL     1       0.056  10.992  21.228  0.00  0.00    +0.000 C 
BRANCH  21  23
ATOM     22  N   UNL     1       1.310   9.202  20.099  0.00  0.00    +0.000 N 
ATOM     23  C   UNL     1       0.223   9.508  20.899  0.00  0.00    +0.000 C 
ATOM     24  O   UNL     1      -0.521   8.700  21.456  0.00  0.00    +0.000 OA
ATOM     25  H   UNL     1       1.870   9.989  19.768  0.00  0.00    +0.000 HD
BRANCH  22  29
ATOM     26  C   UNL     1       2.705   5.353  18.990  0.00  0.00    +0.000 A 
ATOM     27  C   UNL     1       2.194   5.570  20.264  0.00  0.00    +0.000 A 
ATOM     28  C   UNL     1       1.707   6.823  20.631  0.00  0.00    +0.000 A 
ATOM     29  C   UNL     1       1.739   7.900  19.745  0.00  0.00    +0.000 A 
ATOM     30  C   UNL     1       2.240   7.678  18.456  0.00  0.00    +0.000 A 
ATOM     31  C   UNL     1       2.725   6.410  18.080  0.00  0.00    +0.000 A 
BRANCH  26  33
ATOM     32  C   UNL     1       3.686   3.800  17.490  0.00  0.00    +0.000 C 
ATOM     33  O   UNL     1       3.189   4.094  18.787  0.00  0.00    +0.000 OA
ENDBRANCH  26  33
ENDBRANCH  22  29
ENDBRANCH  21  23
ENDBRANCH   1  21
TORSDOF 7
ENDMDL
MODEL 4
REMARK VINA RESULT:      -6.9      3.879      6.401
REMARK  Name = 
REMARK  10 active torsions:
REMARK  status: ('A' for Active; 'I' for Inactive)
REMARK    1  A    between atoms: C_1  and  O_2
REMARK    2  A    between atoms: O_2  and  C_3
REMARK    3  A    between atoms: C_6  and  N_7
REMARK    4  A    between atoms: C_8  and  C_10
REMARK    5  A    between atoms: C_10  and  N_11
REMARK    6  A    between atoms: N_11  and  C_12
REMARK    7  A    between atoms: C_13  and  C_15
REMARK    8  A    between atoms: C_19  and  S_20
REMARK    9  A    between atoms: S_20  and  N_23
REMARK   10  A    between atoms: N_26  and  C_27
REMARK                            x       y       z     vdW  Elec       q    Type
REMARK                         _______ _______ _______ _____ _____    ______ ____
ROOT
ATOM      1  N   UNL     1       0.326  10.031  22.528  0.00  0.00    +0.000 N 
ATOM      2  C   UNL     1       0.326   9.445  23.863  0.00  0.00    +0.000 C 
ATOM      3  C   UNL     1      -0.716  10.906  22.201  0.00  0.00    +0.000 C 
ATOM      4  O   UNL     1      -1.474  11.355  23.063  0.00  0.00    +0.000 OA
ENDROOT
BRANCH   3   5
ATOM      5  C   UNL     1      -0.889  11.425  20.811  0.00  0.00    +0.000 A 
ATOM      6  C   UNL     1       0.010  12.416  20.381  0.00  0.00    +0.000 A 
ATOM      7  C   UNL     1      -0.112  12.985  19.113  0.00  0.00    +0.000 A 
ATOM      8  C   UNL     1      -1.125  12.560  18.250  0.00  0.00    +0.000 A 
ATOM      9  C   UNL     1      -2.022  11.570  18.668  0.00  0.00    +0.000 A 
ATOM     10  C   UNL     1      -1.938  11.042  19.965  0.00  0.00    +0.000 A 
BRANCH   9  11
ATOM     11  S   UNL     1      -3.409  11.142  17.626  0.00  0.00    +0.000 S 
ATOM     12  O   UNL     1      -2.976  11.323  16.254  0.00  0.00    +0.000 OA
ATOM     13  O   UNL     1      -3.893   9.850  18.069  0.00  0.00    +0.000 OA
BRANCH  11  14
ATOM     14  N   UNL     1      -4.608  12.307  17.943  0.00  0.00    +0.000 NA
ATOM     15  C   UNL     1      -4.798  12.780  19.345  0.00  0.00    +0.000 C 
ATOM     16  C   UNL     1      -5.564  11.759  20.209  0.00  0.00    +0.000 C 
ATOM     17  N   UNL     1      -6.879  11.396  19.646  0.00  0.00    +0.000 NA
ATOM     18  C   UNL     1      -7.478  10.313  20.434  0.00  0.00    +0.000 C 
ATOM     19  C   UNL     1      -6.759  10.994  18.227  0.00  0.00    +0.000 C 
ATOM     20  C   UNL     1      -5.956  11.989  17.357  0.00  0.00    +0.000 C 
ENDBRANCH  11  14
ENDBRANCH   9  11
ENDBRANCH   3   5
BRANCH   1  21
ATOM     21  C   UNL     1       1.300   9.475  21.588  0.00  0.00    +0.000 C 
BRANCH  21  23
ATOM     22  N   UNL     1       2.066   7.440  20.438  0.00  0.00    +0.000 N 
ATOM     23  C   UNL     1       0.980   8.114  20.968  0.00  0.00    +0.000 C 
ATOM     24  O   UNL     1      -0.162   7.670  21.093  0.00  0.00    +0.000 OA
ATOM     25  H   UNL     1       2.964   7.925  20.469  0.00  0.00    +0.000 HD
BRANCH  22  29
ATOM     26  C   UNL     1       2.133   3.530  18.795  0.00  0.00    +0.000 A 
ATOM     27  C   UNL     1       1.835   3.718  20.140  0.00  0.00    +0.000 A 
ATOM     28  C   UNL     1       1.783   4.998  20.685  0.00  0.00    +0.000 A 
ATOM     29  C   UNL     1       2.050   6.127  19.909  0.00  0.00    +0.000 A 
ATOM     30  C   UNL     1       2.336   5.940  18.550  0.00  0.00    +0.000 A 
ATOM     31  C   UNL     1       2.380   4.646  17.995  0.00  0.00    +0.000 A 
BRANCH  26  33
ATOM     32  C   UNL     1       3.471   1.601  18.460  0.00  0.00    +0.000 C 
ATOM     33  O   UNL     1       2.196   2.222  18.411  0.00  0.00    +0.000 OA
ENDBRANCH  26  33
ENDBRANCH  22  29
ENDBRANCH  21  23
ENDBRANCH   1  21
TORSDOF 7
ENDMDL
MODEL 5
REMARK VINA RESULT:      -6.9      3.928      6.742
REMARK  Name = 
REMARK  10 active torsions:
REMARK  status: ('A' for Active; 'I' for Inactive)
REMARK    1  A    between atoms: C_1  and  O_2
REMARK    2  A    between atoms: O_2  and  C_3
REMARK    3  A    between atoms: C_6  and  N_7
REMARK    4  A    between atoms: C_8  and  C_10
REMARK    5  A    between atoms: C_10  and  N_11
REMARK    6  A    between atoms: N_11  and  C_12
REMARK    7  A    between atoms: C_13  and  C_15
REMARK    8  A    between atoms: C_19  and  S_20
REMARK    9  A    between atoms: S_20  and  N_23
REMARK   10  A    between atoms: N_26  and  C_27
REMARK                            x       y       z     vdW  Elec       q    Type
REMARK                         _______ _______ _______ _____ _____    ______ ____
ROOT
ATOM      1  N   UNL     1       1.234  12.633  19.293  0.00  0.00    +0.000 N 
ATOM      2  C   UNL     1       2.333  13.129  18.472  0.00  0.00    +0.000 C 
ATOM      3  C   UNL     1       1.364  12.730  20.683  0.00  0.00    +0.000 C 
ATOM      4  O   UNL     1       2.251  13.411  21.201  0.00  0.00    +0.000 OA
ENDROOT
BRANCH   3   5
ATOM      5  C   UNL     1       0.368  12.105  21.603  0.00  0.00    +0.000 A 
ATOM      6  C   UNL     1       0.562  10.753  21.934  0.00  0.00    +0.000 A 
ATOM      7  C   UNL     1      -0.350  10.083  22.752  0.00  0.00    +0.000 A 
ATOM      8  C   UNL     1      -1.459  10.760  23.264  0.00  0.00    +0.000 A 
ATOM      9  C   UNL     1      -1.658  12.108  22.943  0.00  0.00    +0.000 A 
ATOM     10  C   UNL     1      -0.776  12.764  22.071  0.00  0.00    +0.000 A 
BRANCH   9  11
ATOM     11  S   UNL     1      -3.158  12.926  23.468  0.00  0.00    +0.000 S 
ATOM     12  O   UNL     1      -4.004  11.910  24.064  0.00  0.00    +0.000 OA
ATOM     13  O   UNL     1      -2.762  14.086  24.241  0.00  0.00    +0.000 OA
BRANCH  11  14
ATOM     14  N   UNL     1      -3.922  13.458  22.044  0.00  0.00    +0.000 NA
ATOM     15  C   UNL     1      -4.136  14.922  21.847  0.00  0.00    +0.000 C 
ATOM     16  C   UNL     1      -5.316  15.458  22.679  0.00  0.00    +0.000 C 
ATOM     17  N   UNL     1      -6.584  14.751  22.410  0.00  0.00    +0.000 NA
ATOM     18  C   UNL     1      -7.619  15.208  23.342  0.00  0.00    +0.000 C 
ATOM     19  C   UNL     1      -6.408  13.285  22.513  0.00  0.00    +0.000 C 
ATOM     20  C   UNL     1      -5.200  12.737  21.716  0.00  0.00    +0.000 C 
ENDBRANCH  11  14
ENDBRANCH   9  11
ENDBRANCH   3   5
BRANCH   1  21
ATOM     21  C   UNL     1       0.197  11.885  18.583  0.00  0.00    +0.000 C 
BRANCH  21  23
ATOM     22  N   UNL     1       1.581   9.858  18.752  0.00  0.00    +0.000 N 
ATOM     23  C   UNL     1       0.301  10.359  18.591  0.00  0.00    +0.000 C 
ATOM     24  O   UNL     1      -0.741   9.703  18.583  0.00  0.00    +0.000 OA
ATOM     25  H   UNL     1       2.336  10.543  18.806  0.00  0.00    +0.000 HD
BRANCH  22  29
ATOM     26  C   UNL     1       2.497   5.747  19.248  0.00  0.00    +0.000 A 
ATOM     27  C   UNL     1       2.698   6.364  18.019  0.00  0.00    +0.000 A 
ATOM     28  C   UNL     1       2.427   7.720  17.851  0.00  0.00    +0.000 A 
ATOM     29  C   UNL     1       1.925   8.493  18.898  0.00  0.00    +0.000 A 
ATOM     30  C   UNL     1       1.736   7.875  20.142  0.00  0.00    +0.000 A 
ATOM     31  C   UNL     1       2.018   6.506  20.316  0.00  0.00    +0.000 A 
BRANCH  26  33
ATOM     32  C   UNL     1       2.539   3.717  20.475  0.00  0.00    +0.000 C 
ATOM     33  O   UNL     1       2.758   4.407  19.254  0.00  0.00    +0.000 OA
ENDBRANCH  26  33
ENDBRANCH  22  29
ENDBRANCH  21  23
ENDBRANCH   1  21
TORSDOF 7
ENDMDL
MODEL 6
REMARK VINA RESULT:      -6.8      3.323     11.457
REMARK  Name = 
REMARK  10 active torsions:
REMARK  status: ('A' for Active; 'I' for Inactive)
REMARK    1  A    between atoms: C_1  and  O_2
REMARK    2  A    between atoms: O_2  and  C_3
REMARK    3  A    between atoms: C_6  and  N_7
REMARK    4  A    between atoms: C_8  and  C_10
REMARK    5  A    between atoms: C_10  and  N_11
REMARK    6  A    between atoms: N_11  and  C_12
REMARK    7  A    between atoms: C_13  and  C_15
REMARK    8  A    between atoms: C_19  and  S_20
REMARK    9  A    between atoms: S_20  and  N_23
REMARK   10  A    between atoms: N_26  and  C_27
REMARK                            x       y       z     vdW  Elec       q    Type
REMARK                         _______ _______ _______ _____ _____    ______ ____
ROOT
ATOM      1  N   UNL     1      -0.363  12.001  18.789  0.00  0.00    +0.000 N 
ATOM      2  C   UNL     1      -0.473  13.297  18.131  0.00  0.00    +0.000 C 
ATOM      3  C   UNL     1       0.921  11.523  19.075  0.00  0.00    +0.000 C 
ATOM      4  O   UNL     1       1.912  12.252  18.996  0.00  0.00    +0.000 OA
ENDROOT
BRANCH   3   5
ATOM      5  C   UNL     1       1.138  10.141  19.598  0.00  0.00    +0.000 A 
ATOM      6  C   UNL     1       0.780   9.898  20.934  0.00  0.00    +0.000 A 
ATOM      7  C   UNL     1       0.993   8.645  21.512  0.00  0.00    +0.000 A 
ATOM      8  C   UNL     1       1.552   7.613  20.756  0.00  0.00    +0.000 A 
ATOM      9  C   UNL     1       1.908   7.844  19.421  0.00  0.00    +0.000 A 
ATOM     10  C   UNL     1       1.751   9.120  18.860  0.00  0.00    +0.000 A 
BRANCH   9  11
ATOM     11  S   UNL     1       2.767   6.572  18.506  0.00  0.00    +0.000 S 
ATOM     12  O   UNL     1       1.753   5.705  17.938  0.00  0.00    +0.000 OA
ATOM     13  O   UNL     1       3.718   7.240  17.640  0.00  0.00    +0.000 OA
BRANCH  11  14
ATOM     14  N   UNL     1       3.627   5.667  19.662  0.00  0.00    +0.000 NA
ATOM     15  C   UNL     1       4.914   5.027  19.261  0.00  0.00    +0.000 C 
ATOM     16  C   UNL     1       4.699   3.752  18.424  0.00  0.00    +0.000 C 
ATOM     17  N   UNL     1       3.860   2.747  19.105  0.00  0.00    +0.000 NA
ATOM     18  C   UNL     1       3.573   1.634  18.193  0.00  0.00    +0.000 C 
ATOM     19  C   UNL     1       2.600   3.349  19.595  0.00  0.00    +0.000 C 
ATOM     20  C   UNL     1       2.798   4.654  20.402  0.00  0.00    +0.000 C 
ENDBRANCH  11  14
ENDBRANCH   9  11
ENDBRANCH   3   5
BRANCH   1  21
ATOM     21  C   UNL     1      -1.602  11.230  18.890  0.00  0.00    +0.000 C 
BRANCH  21  23
ATOM     22  N   UNL     1      -2.554  12.456  20.799  0.00  0.00    +0.000 N 
ATOM     23  C   UNL     1      -2.802  11.912  19.551  0.00  0.00    +0.000 C 
ATOM     24  O   UNL     1      -3.836  12.037  18.895  0.00  0.00    +0.000 OA
ATOM     25  H   UNL     1      -1.616  12.318  21.180  0.00  0.00    +0.000 HD
BRANCH  22  29
ATOM     26  C   UNL     1      -5.323  14.816  22.979  0.00  0.00    +0.000 A 
ATOM     27  C   UNL     1      -5.194  13.459  23.253  0.00  0.00    +0.000 A 
ATOM     28  C   UNL     1      -4.268  12.680  22.563  0.00  0.00    +0.000 A 
ATOM     29  C   UNL     1      -3.463  13.227  21.564  0.00  0.00    +0.000 A 
ATOM     30  C   UNL     1      -3.582  14.597  21.297  0.00  0.00    +0.000 A 
ATOM     31  C   UNL     1      -4.511  15.389  22.000  0.00  0.00    +0.000 A 
BRANCH  26  33
ATOM     32  C   UNL     1      -7.469  14.690  23.981  0.00  0.00    +0.000 C 
ATOM     33  O   UNL     1      -6.301  15.443  23.696  0.00  0.00    +0.000 OA
ENDBRANCH  26  33
ENDBRANCH  22  29
ENDBRANCH  21  23
ENDBRANCH   1  21
TORSDOF 7
ENDMDL
MODEL 7
REMARK VINA RESULT:      -6.8      3.821      6.593
REMARK  Name = 
REMARK  10 active torsions:
REMARK  status: ('A' for Active; 'I' for Inactive)
REMARK    1  A    between atoms: C_1  and  O_2
REMARK    2  A    between atoms: O_2  and  C_3
REMARK    3  A    between atoms: C_6  and  N_7
REMARK    4  A    between atoms: C_8  and  C_10
REMARK    5  A    between atoms: C_10  and  N_11
REMARK    6  A    between atoms: N_11  and  C_12
REMARK    7  A    between atoms: C_13  and  C_15
REMARK    8  A    between atoms: C_19  and  S_20
REMARK    9  A    between atoms: S_20  and  N_23
REMARK   10  A    between atoms: N_26  and  C_27
REMARK                            x       y       z     vdW  Elec       q    Type
REMARK                         _______ _______ _______ _____ _____    ______ ____
ROOT
ATOM      1  N   UNL     1       0.218  10.224  22.491  0.00  0.00    +0.000 N 
ATOM      2  C   UNL     1      -0.011   9.464  23.714  0.00  0.00    +0.000 C 
ATOM      3  C   UNL     1      -0.653  11.282  22.209  0.00  0.00    +0.000 C 
ATOM      4  O   UNL     1      -1.436  11.715  23.057  0.00  0.00    +0.000 OA
ENDROOT
BRANCH   3   5
ATOM      5  C   UNL     1      -0.596  12.011  20.907  0.00  0.00    +0.000 A 
ATOM      6  C   UNL     1      -1.162  11.372  19.791  0.00  0.00    +0.000 A 
ATOM      7  C   UNL     1      -1.110  11.966  18.529  0.00  0.00    +0.000 A 
ATOM      8  C   UNL     1      -0.506  13.215  18.368  0.00  0.00    +0.000 A 
ATOM      9  C   UNL     1       0.057  13.861  19.476  0.00  0.00    +0.000 A 
ATOM     10  C   UNL     1       0.060  13.237  20.732  0.00  0.00    +0.000 A 
BRANCH   9  11
ATOM     11  S   UNL     1       0.966  15.381  19.240  0.00  0.00    +0.000 S 
ATOM     12  O   UNL     1       0.138  16.245  18.421  0.00  0.00    +0.000 OA
ATOM     13  O   UNL     1       1.403  15.824  20.549  0.00  0.00    +0.000 OA
BRANCH  11  14
ATOM     14  N   UNL     1       2.339  14.966  18.323  0.00  0.00    +0.000 NA
ATOM     15  C   UNL     1       3.332  14.017  18.905  0.00  0.00    +0.000 C 
ATOM     16  C   UNL     1       4.238  14.689  19.954  0.00  0.00    +0.000 C 
ATOM     17  N   UNL     1       4.956  15.868  19.430  0.00  0.00    +0.000 NA
ATOM     18  C   UNL     1       5.672  16.541  20.519  0.00  0.00    +0.000 C 
ATOM     19  C   UNL     1       4.024  16.808  18.769  0.00  0.00    +0.000 C 
ATOM     20  C   UNL     1       3.078  16.140  17.743  0.00  0.00    +0.000 C 
ENDBRANCH  11  14
ENDBRANCH   9  11
ENDBRANCH   3   5
BRANCH   1  21
ATOM     21  C   UNL     1       1.208   9.666  21.570  0.00  0.00    +0.000 C 
BRANCH  21  23
ATOM     22  N   UNL     1       2.039   7.580  20.565  0.00  0.00    +0.000 N 
ATOM     23  C   UNL     1       0.923   8.280  20.988  0.00  0.00    +0.000 C 
ATOM     24  O   UNL     1      -0.227   7.847  21.051  0.00  0.00    +0.000 OA
ATOM     25  H   UNL     1       2.936   8.062  20.638  0.00  0.00    +0.000 HD
BRANCH  22  29
ATOM     26  C   UNL     1       2.190   3.605  19.091  0.00  0.00    +0.000 A 
ATOM     27  C   UNL     1       1.864   3.845  20.421  0.00  0.00    +0.000 A 
ATOM     28  C   UNL     1       1.785   5.147  20.910  0.00  0.00    +0.000 A 
ATOM     29  C   UNL     1       2.051   6.245  20.091  0.00  0.00    +0.000 A 
ATOM     30  C   UNL     1       2.365   6.005  18.747  0.00  0.00    +0.000 A 
ATOM     31  C   UNL     1       2.437   4.690  18.249  0.00  0.00    +0.000 A 
BRANCH  26  33
ATOM     32  C   UNL     1       3.410   1.886  18.004  0.00  0.00    +0.000 C 
ATOM     33  O   UNL     1       2.279   2.284  18.764  0.00  0.00    +0.000 OA
ENDBRANCH  26  33
ENDBRANCH  22  29
ENDBRANCH  21  23
ENDBRANCH   1  21
TORSDOF 7
ENDMDL
MODEL 8
REMARK VINA RESULT:      -6.8      3.331      9.241
REMARK  Name = 
REMARK  10 active torsions:
REMARK  status: ('A' for Active; 'I' for Inactive)
REMARK    1  A    between atoms: C_1  and  O_2
REMARK    2  A    between atoms: O_2  and  C_3
REMARK    3  A    between atoms: C_6  and  N_7
REMARK    4  A    between atoms: C_8  and  C_10
REMARK    5  A    between atoms: C_10  and  N_11
REMARK    6  A    between atoms: N_11  and  C_12
REMARK    7  A    between atoms: C_13  and  C_15
REMARK    8  A    between atoms: C_19  and  S_20
REMARK    9  A    between atoms: S_20  and  N_23
REMARK   10  A    between atoms: N_26  and  C_27
REMARK                            x       y       z     vdW  Elec       q    Type
REMARK                         _______ _______ _______ _____ _____    ______ ____
ROOT
ATOM      1  N   UNL     1       1.162   8.754  20.869  0.00  0.00    +0.000 N 
ATOM      2  C   UNL     1       0.406   8.991  22.093  0.00  0.00    +0.000 C 
ATOM      3  C   UNL     1       1.577   7.445  20.603  0.00  0.00    +0.000 C 
ATOM      4  O   UNL     1       1.134   6.487  21.239  0.00  0.00    +0.000 OA
ENDROOT
BRANCH   3   5
ATOM      5  C   UNL     1       2.490   7.134  19.462  0.00  0.00    +0.000 A 
ATOM      6  C   UNL     1       2.454   8.003  18.359  0.00  0.00    +0.000 A 
ATOM      7  C   UNL     1       3.243   7.758  17.234  0.00  0.00    +0.000 A 
ATOM      8  C   UNL     1       4.092   6.649  17.203  0.00  0.00    +0.000 A 
ATOM      9  C   UNL     1       4.137   5.780  18.300  0.00  0.00    +0.000 A 
ATOM     10  C   UNL     1       3.299   5.992  19.405  0.00  0.00    +0.000 A 
BRANCH   9  11
ATOM     11  S   UNL     1       5.102   4.279  18.195  0.00  0.00    +0.000 S 
ATOM     12  O   UNL     1       6.142   4.516  17.213  0.00  0.00    +0.000 OA
ATOM     13  O   UNL     1       5.456   3.904  19.549  0.00  0.00    +0.000 OA
BRANCH  11  14
ATOM     14  N   UNL     1       4.056   3.096  17.560  0.00  0.00    +0.000 NA
ATOM     15  C   UNL     1       2.746   3.526  16.991  0.00  0.00    +0.000 C 
ATOM     16  C   UNL     1       1.711   3.852  18.084  0.00  0.00    +0.000 C 
ATOM     17  N   UNL     1       1.481   2.730  19.017  0.00  0.00    +0.000 NA
ATOM     18  C   UNL     1       0.607   3.163  20.113  0.00  0.00    +0.000 C 
ATOM     19  C   UNL     1       2.759   2.212  19.552  0.00  0.00    +0.000 C 
ATOM     20  C   UNL     1       3.824   1.920  18.467  0.00  0.00    +0.000 C 
ENDBRANCH  11  14
ENDBRANCH   9  11
ENDBRANCH   3   5
BRANCH   1  21
ATOM     21  C   UNL     1       1.596   9.950  20.147  0.00  0.00    +0.000 C 
BRANCH  21  23
ATOM     22  N   UNL     1      -0.683  10.052  19.227  0.00  0.00    +0.000 N 
ATOM     23  C   UNL     1       0.578  10.621  19.223  0.00  0.00    +0.000 C 
ATOM     24  O   UNL     1       0.905  11.664  18.656  0.00  0.00    +0.000 OA
ATOM     25  H   UNL     1      -0.807   9.220  19.805  0.00  0.00    +0.000 HD
BRANCH  22  29
ATOM     26  C   UNL     1      -4.127  11.421  17.164  0.00  0.00    +0.000 A 
ATOM     27  C   UNL     1      -3.781  11.976  18.390  0.00  0.00    +0.000 A 
ATOM     28  C   UNL     1      -2.637  11.555  19.064  0.00  0.00    +0.000 A 
ATOM     29  C   UNL     1      -1.819  10.550  18.545  0.00  0.00    +0.000 A 
ATOM     30  C   UNL     1      -2.159  10.001  17.302  0.00  0.00    +0.000 A 
ATOM     31  C   UNL     1      -3.311  10.432  16.614  0.00  0.00    +0.000 A 
BRANCH  26  33
ATOM     32  C   UNL     1      -6.341  12.172  17.561  0.00  0.00    +0.000 C 
ATOM     33  O   UNL     1      -5.295  11.895  16.642  0.00  0.00    +0.000 OA
ENDBRANCH  26  33
ENDBRANCH  22  29
ENDBRANCH  21  23
ENDBRANCH   1  21
TORSDOF 7
ENDMDL
MODEL 9
REMARK VINA RESULT:      -6.7      2.622     11.057
REMARK  Name = 
REMARK  10 active torsions:
REMARK  status: ('A' for Active; 'I' for Inactive)
REMARK    1  A    between atoms: C_1  and  O_2
REMARK    2  A    between atoms: O_2  and  C_3
REMARK    3  A    between atoms: C_6  and  N_7
REMARK    4  A    between atoms: C_8  and  C_10
REMARK    5  A    between atoms: C_10  and  N_11
REMARK    6  A    between atoms: N_11  and  C_12
REMARK    7  A    between atoms: C_13  and  C_15
REMARK    8  A    between atoms: C_19  and  S_20
REMARK    9  A    between atoms: S_20  and  N_23
REMARK   10  A    between atoms: N_26  and  C_27
REMARK                            x       y       z     vdW  Elec       q    Type
REMARK                         _______ _______ _______ _____ _____    ______ ____
ROOT
ATOM      1  N   UNL     1       1.162   9.954  19.142  0.00  0.00    +0.000 N 
ATOM      2  C   UNL     1       0.663  11.140  18.454  0.00  0.00    +0.000 C 
ATOM      3  C   UNL     1       1.745   8.947  18.364  0.00  0.00    +0.000 C 
ATOM      4  O   UNL     1       2.044   9.137  17.184  0.00  0.00    +0.000 OA
ENDROOT
BRANCH   3   5
ATOM      5  C   UNL     1       2.135   7.633  18.957  0.00  0.00    +0.000 A 
ATOM      6  C   UNL     1       1.530   7.275  20.173  0.00  0.00    +0.000 A 
ATOM      7  C   UNL     1       1.874   6.084  20.816  0.00  0.00    +0.000 A 
ATOM      8  C   UNL     1       2.815   5.227  20.242  0.00  0.00    +0.000 A 
ATOM      9  C   UNL     1       3.420   5.574  19.028  0.00  0.00    +0.000 A 
ATOM     10  C   UNL     1       3.121   6.799  18.414  0.00  0.00    +0.000 A 
BRANCH   9  11
ATOM     11  S   UNL     1       4.736   4.555  18.378  0.00  0.00    +0.000 S 
ATOM     12  O   UNL     1       5.326   3.860  19.505  0.00  0.00    +0.000 OA
ATOM     13  O   UNL     1       4.184   3.801  17.270  0.00  0.00    +0.000 OA
BRANCH  11  14
ATOM     14  N   UNL     1       5.905   5.633  17.771  0.00  0.00    +0.000 NA
ATOM     15  C   UNL     1       5.532   6.538  16.645  0.00  0.00    +0.000 C 
ATOM     16  C   UNL     1       5.506   5.806  15.290  0.00  0.00    +0.000 C 
ATOM     17  N   UNL     1       6.784   5.143  14.965  0.00  0.00    +0.000 NA
ATOM     18  C   UNL     1       6.636   4.344  13.744  0.00  0.00    +0.000 C 
ATOM     19  C   UNL     1       7.242   4.291  16.085  0.00  0.00    +0.000 C 
ATOM     20  C   UNL     1       7.233   5.001  17.460  0.00  0.00    +0.000 C 
ENDBRANCH  11  14
ENDBRANCH   9  11
ENDBRANCH   3   5
BRANCH   1  21
ATOM     21  C   UNL     1       0.807   9.841  20.556  0.00  0.00    +0.000 C 
BRANCH  21  23
ATOM     22  N   UNL     1      -0.874  11.177  21.758  0.00  0.00    +0.000 N 
ATOM     23  C   UNL     1       0.427  11.129  21.290  0.00  0.00    +0.000 C 
ATOM     24  O   UNL     1       1.313  11.953  21.517  0.00  0.00    +0.000 OA
ATOM     25  H   UNL     1      -1.469  10.377  21.537  0.00  0.00    +0.000 HD
BRANCH  22  29
ATOM     26  C   UNL     1      -2.571  14.171  24.238  0.00  0.00    +0.000 A 
ATOM     27  C   UNL     1      -1.334  14.378  23.639  0.00  0.00    +0.000 A 
ATOM     28  C   UNL     1      -0.779  13.414  22.800  0.00  0.00    +0.000 A 
ATOM     29  C   UNL     1      -1.432  12.206  22.555  0.00  0.00    +0.000 A 
ATOM     30  C   UNL     1      -2.685  12.002  23.146  0.00  0.00    +0.000 A 
ATOM     31  C   UNL     1      -3.252  12.979  23.987  0.00  0.00    +0.000 A 
BRANCH  26  33
ATOM     32  C   UNL     1      -4.107  15.924  24.673  0.00  0.00    +0.000 C 
ATOM     33  O   UNL     1      -2.968  15.177  25.070  0.00  0.00    +0.000 OA
ENDBRANCH  26  33
ENDBRANCH  22  29
ENDBRANCH  21  23
ENDBRANCH   1  21
TORSDOF 7
ENDMDL
