MODEL 1
REMARK VINA RESULT:      -7.2      0.000      0.000
REMARK  Name = 
REMARK  7 active torsions:
REMARK  status: ('A' for Active; 'I' for Inactive)
REMARK    1  A    between atoms: C_2  and  C_3
REMARK    2  A    between atoms: C_3  and  N_4
REMARK    3  A    between atoms: C_5  and  C_7
REMARK    4  A    between atoms: C_12  and  C_13
REMARK    5  A    between atoms: C_13  and  S_14
REMARK    6  A    between atoms: S_14  and  C_15
REMARK    7  A    between atoms: C_18  and  O_19
REMARK                            x       y       z     vdW  Elec       q    Type
REMARK                         _______ _______ _______ _____ _____    ______ ____
ROOT
ATOM      1  C   UNL     1       5.829   6.299  16.367  0.00  0.00    +0.000 C 
ATOM      2  C   UNL     1       6.854   7.033  17.248  0.00  0.00    +0.000 C 
ATOM      3  C   UNL     1       7.578   6.082  18.196  0.00  0.00    +0.000 C 
ATOM      4  C   UNL     1       6.613   5.270  19.054  0.00  0.00    +0.000 C 
ATOM      5  C   UNL     1       5.536   4.574  18.225  0.00  0.00    +0.000 C 
ATOM      6  C   UNL     1       4.804   5.525  17.248  0.00  0.00    +0.000 C 
ENDROOT
BRANCH   1   8
ATOM      7  N   UNL     1       5.691   4.537  14.652  0.00  0.00    +0.000 N 
ATOM      8  C   UNL     1       6.529   5.387  15.341  0.00  0.00    +0.000 C 
ATOM      9  O   UNL     1       7.737   5.390  15.134  0.00  0.00    +0.000 OA
ATOM     10  H   UNL     1       4.721   4.443  14.929  0.00  0.00    +0.000 HD
BRANCH   7  11
ATOM     11  C   UNL     1       6.222   3.694  13.597  0.00  0.00    +0.000 C 
BRANCH  11  13
ATOM     12  N   UNL     1       4.405   3.287  11.531  0.00  0.00    +0.000 NA
ATOM     13  C   UNL     1       5.229   3.471  12.468  0.00  0.00    +0.000 C 
ENDBRANCH  11  13
ENDBRANCH   7  11
ENDBRANCH   1   8
BRANCH   6  14
ATOM     14  C   UNL     1       3.838   6.438  18.054  0.00  0.00    +0.000 C 
BRANCH  14  15
ATOM     15  S   UNL     1       2.078   5.981  17.845  0.00  0.00    +0.000 S 
BRANCH  15  16
ATOM     16  C   UNL     1       1.846   4.872  19.226  0.00  0.00    +0.000 A 
ATOM     17  C   UNL     1       1.174   3.659  19.026  0.00  0.00    +0.000 A 
ATOM     18  C   UNL     1       1.074   2.721  20.057  0.00  0.00    +0.000 A 
ATOM     19  C   UNL     1       1.655   2.997  21.289  0.00  0.00    +0.000 A 
ATOM     20  C   UNL     1       2.315   4.201  21.509  0.00  0.00    +0.000 A 
ATOM     21  C   UNL     1       2.413   5.139  20.476  0.00  0.00    +0.000 A 
BRANCH  19  22
ATOM     22  O   UNL     1       1.616   2.097  22.313  0.00  0.00    +0.000 OA
ATOM     23  H   UNL     1       1.898   1.230  21.978  0.00  0.00    +0.000 HD
ENDBRANCH  19  22
ENDBRANCH  15  16
ENDBRANCH  14  15
ENDBRANCH   6  14
TORSDOF 7
ENDMDL
MODEL 2
REMARK VINA RESULT:      -7.1      0.323      1.101
REMARK  Name = 
REMARK  7 active torsions:
REMARK  status: ('A' for Active; 'I' for Inactive)
REMARK    1  A    between atoms: C_2  and  C_3
REMARK    2  A    between atoms: C_3  and  N_4
REMARK    3  A    between atoms: C_5  and  C_7
REMARK    4  A    between atoms: C_12  and  C_13
REMARK    5  A    between atoms: C_13  and  S_14
REMARK    6  A    between atoms: S_14  and  C_15
REMARK    7  A    between atoms: C_18  and  O_19
REMARK                            x       y       z     vdW  Elec       q    Type
REMARK                         _______ _______ _______ _____ _____    ______ ____
ROOT
ATOM      1  C   UNL     1       5.981   6.179  16.208  0.00  0.00    +0.000 C 
ATOM      2  C   UNL     1       7.022   6.640  17.241  0.00  0.00    +0.000 C 
ATOM      3  C   UNL     1       7.526   5.483  18.099  0.00  0.00    +0.000 C 
ATOM      4  C   UNL     1       6.390   4.727  18.780  0.00  0.00    +0.000 C 
ATOM      5  C   UNL     1       5.298   4.305  17.800  0.00  0.00    +0.000 C 
ATOM      6  C   UNL     1       4.788   5.466  16.912  0.00  0.00    +0.000 C 
ENDROOT
BRANCH   1   8
ATOM      7  N   UNL     1       5.756   4.473  14.446  0.00  0.00    +0.000 N 
ATOM      8  C   UNL     1       6.627   5.304  15.117  0.00  0.00    +0.000 C 
ATOM      9  O   UNL     1       7.822   5.319  14.846  0.00  0.00    +0.000 OA
ATOM     10  H   UNL     1       4.802   4.365  14.772  0.00  0.00    +0.000 HD
BRANCH   7  11
ATOM     11  C   UNL     1       6.233   3.666  13.337  0.00  0.00    +0.000 C 
BRANCH  11  13
ATOM     12  N   UNL     1       4.278   3.229  11.408  0.00  0.00    +0.000 NA
ATOM     13  C   UNL     1       5.164   3.428  12.283  0.00  0.00    +0.000 C 
ENDBRANCH  11  13
ENDBRANCH   7  11
ENDBRANCH   1   8
BRANCH   6  14
ATOM     14  C   UNL     1       3.897   6.408  17.769  0.00  0.00    +0.000 C 
BRANCH  14  15
ATOM     15  S   UNL     1       2.122   5.969  17.706  0.00  0.00    +0.000 S 
BRANCH  15  16
ATOM     16  C   UNL     1       2.008   4.808  19.059  0.00  0.00    +0.000 A 
ATOM     17  C   UNL     1       2.505   5.171  20.317  0.00  0.00    +0.000 A 
ATOM     18  C   UNL     1       2.331   4.332  21.421  0.00  0.00    +0.000 A 
ATOM     19  C   UNL     1       1.651   3.131  21.264  0.00  0.00    +0.000 A 
ATOM     20  C   UNL     1       1.163   2.748  20.020  0.00  0.00    +0.000 A 
ATOM     21  C   UNL     1       1.339   3.589  18.916  0.00  0.00    +0.000 A 
BRANCH  19  22
ATOM     22  O   UNL     1       1.424   2.297  22.320  0.00  0.00    +0.000 OA
ATOM     23  H   UNL     1       1.549   2.795  23.144  0.00  0.00    +0.000 HD
ENDBRANCH  19  22
ENDBRANCH  15  16
ENDBRANCH  14  15
ENDBRANCH   6  14
TORSDOF 7
ENDMDL
MODEL 3
REMARK VINA RESULT:      -6.7      2.330      2.930
REMARK  Name = 
REMARK  7 active torsions:
REMARK  status: ('A' for Active; 'I' for Inactive)
REMARK    1  A    between atoms: C_2  and  C_3
REMARK    2  A    between atoms: C_3  and  N_4
REMARK    3  A    between atoms: C_5  and  C_7
REMARK    4  A    between atoms: C_12  and  C_13
REMARK    5  A    between atoms: C_13  and  S_14
REMARK    6  A    between atoms: S_14  and  C_15
REMARK    7  A    between atoms: C_18  and  O_19
REMARK                            x       y       z     vdW  Elec       q    Type
REMARK                         _______ _______ _______ _____ _____    ______ ____
ROOT
ATOM      1  C   UNL     1       5.681   5.416  16.310  0.00  0.00    +0.000 C 
ATOM      2  C   UNL     1       5.906   6.851  16.813  0.00  0.00    +0.000 C 
ATOM      3  C   UNL     1       7.297   7.035  17.412  0.00  0.00    +0.000 C 
ATOM      4  C   UNL     1       7.594   6.024  18.515  0.00  0.00    +0.000 C 
ATOM      5  C   UNL     1       7.321   4.586  18.079  0.00  0.00    +0.000 C 
ATOM      6  C   UNL     1       5.918   4.389  17.456  0.00  0.00    +0.000 C 
ENDROOT
BRANCH   1   8
ATOM      7  N   UNL     1       5.924   4.361  14.098  0.00  0.00    +0.000 N 
ATOM      8  C   UNL     1       6.543   5.120  15.067  0.00  0.00    +0.000 C 
ATOM      9  O   UNL     1       7.695   5.512  14.924  0.00  0.00    +0.000 OA
ATOM     10  H   UNL     1       5.028   3.926  14.286  0.00  0.00    +0.000 HD
BRANCH   7  11
ATOM     11  C   UNL     1       6.604   4.092  12.844  0.00  0.00    +0.000 C 
BRANCH  11  13
ATOM     12  N   UNL     1       5.515   1.930  11.474  0.00  0.00    +0.000 NA
ATOM     13  C   UNL     1       6.009   2.911  12.095  0.00  0.00    +0.000 C 
ENDBRANCH  11  13
ENDBRANCH   7  11
ENDBRANCH   1   8
BRANCH   6  14
ATOM     14  C   UNL     1       4.850   4.432  18.585  0.00  0.00    +0.000 C 
BRANCH  14  15
ATOM     15  S   UNL     1       3.142   4.600  17.949  0.00  0.00    +0.000 S 
BRANCH  15  16
ATOM     16  C   UNL     1       2.613   6.091  18.777  0.00  0.00    +0.000 A 
ATOM     17  C   UNL     1       2.594   7.299  18.069  0.00  0.00    +0.000 A 
ATOM     18  C   UNL     1       2.080   8.460  18.653  0.00  0.00    +0.000 A 
ATOM     19  C   UNL     1       1.578   8.407  19.947  0.00  0.00    +0.000 A 
ATOM     20  C   UNL     1       1.601   7.220  20.670  0.00  0.00    +0.000 A 
ATOM     21  C   UNL     1       2.117   6.060  20.084  0.00  0.00    +0.000 A 
BRANCH  19  22
ATOM     22  O   UNL     1       1.033   9.505  20.545  0.00  0.00    +0.000 OA
ATOM     23  H   UNL     1       1.211   9.462  21.499  0.00  0.00    +0.000 HD
ENDBRANCH  19  22
ENDBRANCH  15  16
ENDBRANCH  14  15
ENDBRANCH   6  14
TORSDOF 7
ENDMDL
MODEL 4
REMARK VINA RESULT:      -6.7      1.411      1.974
REMARK  Name = 
REMARK  7 active torsions:
REMARK  status: ('A' for Active; 'I' for Inactive)
REMARK    1  A    between atoms: C_2  and  C_3
REMARK    2  A    between atoms: C_3  and  N_4
REMARK    3  A    between atoms: C_5  and  C_7
REMARK    4  A    between atoms: C_12  and  C_13
REMARK    5  A    between atoms: C_13  and  S_14
REMARK    6  A    between atoms: S_14  and  C_15
REMARK    7  A    between atoms: C_18  and  O_19
REMARK                            x       y       z     vdW  Elec       q    Type
REMARK                         _______ _______ _______ _____ _____    ______ ____
ROOT
ATOM      1  C   UNL     1       5.893   5.797  16.827  0.00  0.00    +0.000 C 
ATOM      2  C   UNL     1       6.128   7.307  16.993  0.00  0.00    +0.000 C 
ATOM      3  C   UNL     1       7.579   7.624  17.343  0.00  0.00    +0.000 C 
ATOM      4  C   UNL     1       8.058   6.866  18.577  0.00  0.00    +0.000 C 
ATOM      5  C   UNL     1       7.784   5.366  18.485  0.00  0.00    +0.000 C 
ATOM      6  C   UNL     1       6.319   5.031  18.115  0.00  0.00    +0.000 C 
ENDROOT
BRANCH   1   8
ATOM      7  N   UNL     1       5.852   4.358  14.829  0.00  0.00    +0.000 N 
ATOM      8  C   UNL     1       6.592   5.259  15.564  0.00  0.00    +0.000 C 
ATOM      9  O   UNL     1       7.721   5.584  15.215  0.00  0.00    +0.000 OA
ATOM     10  H   UNL     1       4.983   3.990  15.200  0.00  0.00    +0.000 HD
BRANCH   7  11
ATOM     11  C   UNL     1       6.370   3.850  13.572  0.00  0.00    +0.000 C 
BRANCH  11  13
ATOM     12  N   UNL     1       4.364   3.317  11.721  0.00  0.00    +0.000 NA
ATOM     13  C   UNL     1       5.274   3.558  12.561  0.00  0.00    +0.000 C 
ENDBRANCH  11  13
ENDBRANCH   7  11
ENDBRANCH   1   8
BRANCH   6  14
ATOM     14  C   UNL     1       5.410   5.297  19.347  0.00  0.00    +0.000 C 
BRANCH  14  15
ATOM     15  S   UNL     1       3.770   5.972  18.895  0.00  0.00    +0.000 S 
BRANCH  15  16
ATOM     16  C   UNL     1       2.785   4.483  18.859  0.00  0.00    +0.000 A 
ATOM     17  C   UNL     1       1.706   4.353  19.744  0.00  0.00    +0.000 A 
ATOM     18  C   UNL     1       0.849   3.252  19.665  0.00  0.00    +0.000 A 
ATOM     19  C   UNL     1       1.069   2.284  18.693  0.00  0.00    +0.000 A 
ATOM     20  C   UNL     1       2.142   2.390  17.816  0.00  0.00    +0.000 A 
ATOM     21  C   UNL     1       3.000   3.492  17.897  0.00  0.00    +0.000 A 
BRANCH  19  22
ATOM     22  O   UNL     1       0.238   1.211  18.554  0.00  0.00    +0.000 OA
ATOM     23  H   UNL     1       0.226   0.716  19.390  0.00  0.00    +0.000 HD
ENDBRANCH  19  22
ENDBRANCH  15  16
ENDBRANCH  14  15
ENDBRANCH   6  14
TORSDOF 7
ENDMDL
MODEL 5
REMARK VINA RESULT:      -6.7      2.770      3.365
REMARK  Name = 
REMARK  7 active torsions:
REMARK  status: ('A' for Active; 'I' for Inactive)
REMARK    1  A    between atoms: C_2  and  C_3
REMARK    2  A    between atoms: C_3  and  N_4
REMARK    3  A    between atoms: C_5  and  C_7
REMARK    4  A    between atoms: C_12  and  C_13
REMARK    5  A    between atoms: C_13  and  S_14
REMARK    6  A    between atoms: S_14  and  C_15
REMARK    7  A    between atoms: C_18  and  O_19
REMARK                            x       y       z     vdW  Elec       q    Type
REMARK                         _______ _______ _______ _____ _____    ______ ____
ROOT
ATOM      1  C   UNL     1       5.987   5.620  16.942  0.00  0.00    +0.000 C 
ATOM      2  C   UNL     1       6.218   7.138  17.009  0.00  0.00    +0.000 C 
ATOM      3  C   UNL     1       7.628   7.481  17.482  0.00  0.00    +0.000 C 
ATOM      4  C   UNL     1       7.969   6.825  18.816  0.00  0.00    +0.000 C 
ATOM      5  C   UNL     1       7.693   5.323  18.816  0.00  0.00    +0.000 C 
ATOM      6  C   UNL     1       6.271   4.960  18.324  0.00  0.00    +0.000 C 
ENDROOT
BRANCH   1   8
ATOM      7  N   UNL     1       6.386   5.300  14.533  0.00  0.00    +0.000 N 
ATOM      8  C   UNL     1       6.808   4.981  15.805  0.00  0.00    +0.000 C 
ATOM      9  O   UNL     1       7.765   4.237  15.987  0.00  0.00    +0.000 OA
ATOM     10  H   UNL     1       5.513   5.797  14.396  0.00  0.00    +0.000 HD
BRANCH   7  11
ATOM     11  C   UNL     1       7.134   4.830  13.382  0.00  0.00    +0.000 C 
BRANCH  11  13
ATOM     12  N   UNL     1       5.817   2.810  11.996  0.00  0.00    +0.000 NA
ATOM     13  C   UNL     1       6.414   3.726  12.625  0.00  0.00    +0.000 C 
ENDBRANCH  11  13
ENDBRANCH   7  11
ENDBRANCH   1   8
BRANCH   6  14
ATOM     14  C   UNL     1       5.242   5.325  19.430  0.00  0.00    +0.000 C 
BRANCH  14  15
ATOM     15  S   UNL     1       3.515   4.959  18.951  0.00  0.00    +0.000 S 
BRANCH  15  16
ATOM     16  C   UNL     1       2.777   6.582  19.060  0.00  0.00    +0.000 A 
ATOM     17  C   UNL     1       2.726   7.389  17.916  0.00  0.00    +0.000 A 
ATOM     18  C   UNL     1       2.057   8.616  17.939  0.00  0.00    +0.000 A 
ATOM     19  C   UNL     1       1.433   9.031  19.110  0.00  0.00    +0.000 A 
ATOM     20  C   UNL     1       1.485   8.249  20.258  0.00  0.00    +0.000 A 
ATOM     21  C   UNL     1       2.157   7.022  20.233  0.00  0.00    +0.000 A 
BRANCH  19  22
ATOM     22  O   UNL     1       0.737  10.202  19.170  0.00  0.00    +0.000 OA
ATOM     23  H   UNL     1       1.317  10.925  18.878  0.00  0.00    +0.000 HD
ENDBRANCH  19  22
ENDBRANCH  15  16
ENDBRANCH  14  15
ENDBRANCH   6  14
TORSDOF 7
ENDMDL
MODEL 6
REMARK VINA RESULT:      -6.7      1.552      1.997
REMARK  Name = 
REMARK  7 active torsions:
REMARK  status: ('A' for Active; 'I' for Inactive)
REMARK    1  A    between atoms: C_2  and  C_3
REMARK    2  A    between atoms: C_3  and  N_4
REMARK    3  A    between atoms: C_5  and  C_7
REMARK    4  A    between atoms: C_12  and  C_13
REMARK    5  A    between atoms: C_13  and  S_14
REMARK    6  A    between atoms: S_14  and  C_15
REMARK    7  A    between atoms: C_18  and  O_19
REMARK                            x       y       z     vdW  Elec       q    Type
REMARK                         _______ _______ _______ _____ _____    ______ ____
ROOT
ATOM      1  C   UNL     1       5.685   4.881  15.691  0.00  0.00    +0.000 C 
ATOM      2  C   UNL     1       5.538   6.359  16.085  0.00  0.00    +0.000 C 
ATOM      3  C   UNL     1       6.844   6.941  16.618  0.00  0.00    +0.000 C 
ATOM      4  C   UNL     1       7.413   6.128  17.776  0.00  0.00    +0.000 C 
ATOM      5  C   UNL     1       7.516   4.639  17.451  0.00  0.00    +0.000 C 
ATOM      6  C   UNL     1       6.201   4.040  16.895  0.00  0.00    +0.000 C 
ENDROOT
BRANCH   1   8
ATOM      7  N   UNL     1       6.119   3.804  13.518  0.00  0.00    +0.000 N 
ATOM      8  C   UNL     1       6.572   4.723  14.440  0.00  0.00    +0.000 C 
ATOM      9  O   UNL     1       7.608   5.349  14.253  0.00  0.00    +0.000 OA
ATOM     10  H   UNL     1       5.342   3.194  13.746  0.00  0.00    +0.000 HD
BRANCH   7  11
ATOM     11  C   UNL     1       6.822   3.633  12.260  0.00  0.00    +0.000 C 
BRANCH  11  13
ATOM     12  N   UNL     1       6.263   1.197  11.040  0.00  0.00    +0.000 NA
ATOM     13  C   UNL     1       6.516   2.302  11.593  0.00  0.00    +0.000 C 
ENDBRANCH  11  13
ENDBRANCH   7  11
ENDBRANCH   1   8
BRANCH   6  14
ATOM     14  C   UNL     1       5.179   3.892  18.057  0.00  0.00    +0.000 C 
BRANCH  14  15
ATOM     15  S   UNL     1       3.469   3.600  17.474  0.00  0.00    +0.000 S 
BRANCH  15  16
ATOM     16  C   UNL     1       2.656   3.163  19.003  0.00  0.00    +0.000 A 
ATOM     17  C   UNL     1       3.429   2.761  20.100  0.00  0.00    +0.000 A 
ATOM     18  C   UNL     1       2.834   2.521  21.341  0.00  0.00    +0.000 A 
ATOM     19  C   UNL     1       1.462   2.691  21.484  0.00  0.00    +0.000 A 
ATOM     20  C   UNL     1       0.678   3.076  20.403  0.00  0.00    +0.000 A 
ATOM     21  C   UNL     1       1.276   3.315  19.161  0.00  0.00    +0.000 A 
BRANCH  19  22
ATOM     22  O   UNL     1       0.842   2.504  22.685  0.00  0.00    +0.000 OA
ATOM     23  H   UNL     1       0.679   3.372  23.090  0.00  0.00    +0.000 HD
ENDBRANCH  19  22
ENDBRANCH  15  16
ENDBRANCH  14  15
ENDBRANCH   6  14
TORSDOF 7
ENDMDL
MODEL 7
REMARK VINA RESULT:      -6.5      3.354      6.845
REMARK  Name = 
REMARK  7 active torsions:
REMARK  status: ('A' for Active; 'I' for Inactive)
REMARK    1  A    between atoms: C_2  and  C_3
REMARK    2  A    between atoms: C_3  and  N_4
REMARK    3  A    between atoms: C_5  and  C_7
REMARK    4  A    between atoms: C_12  and  C_13
REMARK    5  A    between atoms: C_13  and  S_14
REMARK    6  A    between atoms: S_14  and  C_15
REMARK    7  A    between atoms: C_18  and  O_19
REMARK                            x       y       z     vdW  Elec       q    Type
REMARK                         _______ _______ _______ _____ _____    ______ ____
ROOT
ATOM      1  C   UNL     1       2.707   4.824  18.426  0.00  0.00    +0.000 C 
ATOM      2  C   UNL     1       1.466   4.167  17.800  0.00  0.00    +0.000 C 
ATOM      3  C   UNL     1       0.852   3.114  18.718  0.00  0.00    +0.000 C 
ATOM      4  C   UNL     1       1.864   2.056  19.147  0.00  0.00    +0.000 C 
ATOM      5  C   UNL     1       3.143   2.667  19.717  0.00  0.00    +0.000 C 
ATOM      6  C   UNL     1       3.768   3.748  18.802  0.00  0.00    +0.000 C 
ENDROOT
BRANCH   1   8
ATOM      7  N   UNL     1       2.189   7.054  19.335  0.00  0.00    +0.000 N 
ATOM      8  C   UNL     1       2.321   5.714  19.625  0.00  0.00    +0.000 C 
ATOM      9  O   UNL     1       2.144   5.291  20.761  0.00  0.00    +0.000 OA
ATOM     10  H   UNL     1       2.475   7.410  18.430  0.00  0.00    +0.000 HD
BRANCH   7  11
ATOM     11  C   UNL     1       1.743   7.977  20.363  0.00  0.00    +0.000 C 
BRANCH  11  13
ATOM     12  N   UNL     1       0.562  10.266  19.313  0.00  0.00    +0.000 NA
ATOM     13  C   UNL     1       1.098   9.228  19.789  0.00  0.00    +0.000 C 
ENDBRANCH  11  13
ENDBRANCH   7  11
ENDBRANCH   1   8
BRANCH   6  14
ATOM     14  C   UNL     1       4.436   3.056  17.581  0.00  0.00    +0.000 C 
BRANCH  14  15
ATOM     15  S   UNL     1       4.843   4.222  16.231  0.00  0.00    +0.000 S 
BRANCH  15  16
ATOM     16  C   UNL     1       6.090   5.232  17.015  0.00  0.00    +0.000 A 
ATOM     17  C   UNL     1       6.121   6.608  16.756  0.00  0.00    +0.000 A 
ATOM     18  C   UNL     1       7.010   7.442  17.438  0.00  0.00    +0.000 A 
ATOM     19  C   UNL     1       7.865   6.897  18.388  0.00  0.00    +0.000 A 
ATOM     20  C   UNL     1       7.858   5.531  18.648  0.00  0.00    +0.000 A 
ATOM     21  C   UNL     1       6.968   4.697  17.963  0.00  0.00    +0.000 A 
BRANCH  19  22
ATOM     22  O   UNL     1       8.724   7.676  19.105  0.00  0.00    +0.000 OA
ATOM     23  H   UNL     1       8.871   8.505  18.622  0.00  0.00    +0.000 HD
ENDBRANCH  19  22
ENDBRANCH  15  16
ENDBRANCH  14  15
ENDBRANCH   6  14
TORSDOF 7
ENDMDL
MODEL 8
REMARK VINA RESULT:      -6.5      1.231      1.653
REMARK  Name = 
REMARK  7 active torsions:
REMARK  status: ('A' for Active; 'I' for Inactive)
REMARK    1  A    between atoms: C_2  and  C_3
REMARK    2  A    between atoms: C_3  and  N_4
REMARK    3  A    between atoms: C_5  and  C_7
REMARK    4  A    between atoms: C_12  and  C_13
REMARK    5  A    between atoms: C_13  and  S_14
REMARK    6  A    between atoms: S_14  and  C_15
REMARK    7  A    between atoms: C_18  and  O_19
REMARK                            x       y       z     vdW  Elec       q    Type
REMARK                         _______ _______ _______ _____ _____    ______ ____
ROOT
ATOM      1  C   UNL     1       6.334   6.394  16.783  0.00  0.00    +0.000 C 
ATOM      2  C   UNL     1       7.422   7.072  17.631  0.00  0.00    +0.000 C 
ATOM      3  C   UNL     1       7.988   6.133  18.692  0.00  0.00    +0.000 C 
ATOM      4  C   UNL     1       6.902   5.541  19.584  0.00  0.00    +0.000 C 
ATOM      5  C   UNL     1       5.765   4.911  18.781  0.00  0.00    +0.000 C 
ATOM      6  C   UNL     1       5.191   5.849  17.691  0.00  0.00    +0.000 C 
ENDROOT
BRANCH   1   8
ATOM      7  N   UNL     1       6.385   5.230  14.613  0.00  0.00    +0.000 N 
ATOM      8  C   UNL     1       6.934   5.303  15.875  0.00  0.00    +0.000 C 
ATOM      9  O   UNL     1       7.829   4.541  16.221  0.00  0.00    +0.000 OA
ATOM     10  H   UNL     1       5.555   5.766  14.387  0.00  0.00    +0.000 HD
BRANCH   7  11
ATOM     11  C   UNL     1       6.928   4.301  13.639  0.00  0.00    +0.000 C 
BRANCH  11  13
ATOM     12  N   UNL     1       4.973   3.205  11.993  0.00  0.00    +0.000 NA
ATOM     13  C   UNL     1       5.860   3.702  12.740  0.00  0.00    +0.000 C 
ENDBRANCH  11  13
ENDBRANCH   7  11
ENDBRANCH   1   8
BRANCH   6  14
ATOM     14  C   UNL     1       4.333   6.953  18.369  0.00  0.00    +0.000 C 
BRANCH  14  15
ATOM     15  S   UNL     1       2.547   6.798  18.004  0.00  0.00    +0.000 S 
BRANCH  15  16
ATOM     16  C   UNL     1       2.270   5.072  18.373  0.00  0.00    +0.000 A 
ATOM     17  C   UNL     1       1.782   4.710  19.635  0.00  0.00    +0.000 A 
ATOM     18  C   UNL     1       1.449   3.382  19.916  0.00  0.00    +0.000 A 
ATOM     19  C   UNL     1       1.600   2.417  18.928  0.00  0.00    +0.000 A 
ATOM     20  C   UNL     1       2.096   2.756  17.675  0.00  0.00    +0.000 A 
ATOM     21  C   UNL     1       2.430   4.085  17.395  0.00  0.00    +0.000 A 
BRANCH  19  22
ATOM     22  O   UNL     1       1.254   1.116  19.144  0.00  0.00    +0.000 OA
ATOM     23  H   UNL     1       0.484   0.902  18.593  0.00  0.00    +0.000 HD
ENDBRANCH  19  22
ENDBRANCH  15  16
ENDBRANCH  14  15
ENDBRANCH   6  14
TORSDOF 7
ENDMDL
MODEL 9
REMARK VINA RESULT:      -6.4      3.356      6.802
REMARK  Name = 
REMARK  7 active torsions:
REMARK  status: ('A' for Active; 'I' for Inactive)
REMARK    1  A    between atoms: C_2  and  C_3
REMARK    2  A    between atoms: C_3  and  N_4
REMARK    3  A    between atoms: C_5  and  C_7
REMARK    4  A    between atoms: C_12  and  C_13
REMARK    5  A    between atoms: C_13  and  S_14
REMARK    6  A    between atoms: S_14  and  C_15
REMARK    7  A    between atoms: C_18  and  O_19
REMARK                            x       y       z     vdW  Elec       q    Type
REMARK                         _______ _______ _______ _____ _____    ______ ____
ROOT
ATOM      1  C   UNL     1       2.667   4.810  18.338  0.00  0.00    +0.000 C 
ATOM      2  C   UNL     1       1.416   4.084  17.818  0.00  0.00    +0.000 C 
ATOM      3  C   UNL     1       0.894   3.057  18.819  0.00  0.00    +0.000 C 
ATOM      4  C   UNL     1       1.965   2.055  19.235  0.00  0.00    +0.000 C 
ATOM      5  C   UNL     1       3.252   2.733  19.699  0.00  0.00    +0.000 C 
ATOM      6  C   UNL     1       3.785   3.788  18.699  0.00  0.00    +0.000 C 
ENDROOT
BRANCH   1   8
ATOM      7  N   UNL     1       2.204   7.076  19.185  0.00  0.00    +0.000 N 
ATOM      8  C   UNL     1       2.320   5.743  19.515  0.00  0.00    +0.000 C 
ATOM      9  O   UNL     1       2.159   5.360  20.667  0.00  0.00    +0.000 OA
ATOM     10  H   UNL     1       2.477   7.399  18.263  0.00  0.00    +0.000 HD
BRANCH   7  11
ATOM     11  C   UNL     1       1.794   8.038  20.191  0.00  0.00    +0.000 C 
BRANCH  11  13
ATOM     12  N   UNL     1       0.709  10.350  19.088  0.00  0.00    +0.000 NA
ATOM     13  C   UNL     1       1.201   9.301  19.588  0.00  0.00    +0.000 C 
ENDBRANCH  11  13
ENDBRANCH   7  11
ENDBRANCH   1   8
BRANCH   6  14
ATOM     14  C   UNL     1       4.405   3.060  17.474  0.00  0.00    +0.000 C 
BRANCH  14  15
ATOM     15  S   UNL     1       4.956   4.209  16.161  0.00  0.00    +0.000 S 
BRANCH  15  16
ATOM     16  C   UNL     1       6.015   5.307  17.090  0.00  0.00    +0.000 A 
ATOM     17  C   UNL     1       6.950   4.767  17.982  0.00  0.00    +0.000 A 
ATOM     18  C   UNL     1       7.868   5.591  18.638  0.00  0.00    +0.000 A 
ATOM     19  C   UNL     1       7.852   6.959  18.394  0.00  0.00    +0.000 A 
ATOM     20  C   UNL     1       6.923   7.514  17.523  0.00  0.00    +0.000 A 
ATOM     21  C   UNL     1       6.004   6.688  16.868  0.00  0.00    +0.000 A 
BRANCH  19  22
ATOM     22  O   UNL     1       8.752   7.798  18.983  0.00  0.00    +0.000 OA
ATOM     23  H   UNL     1       8.340   8.198  19.766  0.00  0.00    +0.000 HD
ENDBRANCH  19  22
ENDBRANCH  15  16
ENDBRANCH  14  15
ENDBRANCH   6  14
TORSDOF 7
ENDMDL
