MODEL 1
REMARK VINA RESULT:      -8.2      0.000      0.000
REMARK  Name = 
REMARK  9 active torsions:
REMARK  status: ('A' for Active; 'I' for Inactive)
REMARK    1  A    between atoms: C_1  and  C_2
REMARK    2  A    between atoms: C_4  and  C_5
REMARK    3  A    between atoms: C_8  and  C_9
REMARK    4  A    between atoms: C_16  and  C_17
REMARK    5  A    between atoms: C_17  and  O_18
REMARK    6  A    between atoms: O_18  and  C_19
REMARK    7  A    between atoms: C_22  and  C_23
REMARK    8  A    between atoms: C_24  and  C_25
REMARK    9  A    between atoms: C_25  and  O_27
REMARK                            x       y       z     vdW  Elec       q    Type
REMARK                         _______ _______ _______ _____ _____    ______ ____
ROOT
ATOM      1  C   UNL     1       2.959   7.841  17.460  0.00  0.00    +0.000 C 
ATOM      2  C   UNL     1       2.292   7.756  18.785  0.00  0.00    +0.000 A 
ATOM      3  N   UNL     1       1.497   8.819  19.179  0.00  0.00    +0.000 NA
ATOM      4  C   UNL     1       1.037   8.635  20.400  0.00  0.00    +0.000 A 
ATOM      5  S   UNL     1       1.462   7.123  21.101  0.00  0.00    +0.000 S 
ATOM      6  C   UNL     1       2.371   6.720  19.700  0.00  0.00    +0.000 A 
ENDROOT
BRANCH   4   7
ATOM      7  C   UNL     1       0.196   9.611  21.111  0.00  0.00    +0.000 A 
ATOM      8  C   UNL     1      -0.312  10.713  20.402  0.00  0.00    +0.000 A 
ATOM      9  C   UNL     1      -1.071  11.697  21.043  0.00  0.00    +0.000 A 
ATOM     10  C   UNL     1      -1.331  11.612  22.416  0.00  0.00    +0.000 A 
ATOM     11  C   UNL     1      -0.828  10.513  23.129  0.00  0.00    +0.000 A 
ATOM     12  C   UNL     1      -0.075   9.525  22.484  0.00  0.00    +0.000 A 
BRANCH  10  13
ATOM     13  C   UNL     1      -2.123  12.678  23.131  0.00  0.00    +0.000 C 
ATOM     14  F   UNL     1      -1.361  13.491  23.916  0.00  0.00    +0.000 F 
ATOM     15  F   UNL     1      -2.781  13.504  22.271  0.00  0.00    +0.000 F 
ATOM     16  F   UNL     1      -3.076  12.157  23.952  0.00  0.00    +0.000 F 
ENDBRANCH  10  13
ENDBRANCH   4   7
BRANCH   6  17
ATOM     17  C   UNL     1       3.095   5.415  19.612  0.00  0.00    +0.000 C 
BRANCH  17  18
ATOM     18  O   UNL     1       4.483   5.728  19.532  0.00  0.00    +0.000 OA
BRANCH  18  19
ATOM     19  C   UNL     1       5.104   5.482  18.339  0.00  0.00    +0.000 A 
ATOM     20  C   UNL     1       4.468   4.541  17.528  0.00  0.00    +0.000 A 
ATOM     21  C   UNL     1       4.979   4.224  16.265  0.00  0.00    +0.000 A 
ATOM     22  C   UNL     1       6.122   4.867  15.775  0.00  0.00    +0.000 A 
ATOM     23  C   UNL     1       6.767   5.797  16.601  0.00  0.00    +0.000 A 
ATOM     24  C   UNL     1       6.258   6.109  17.872  0.00  0.00    +0.000 A 
BRANCH  22  25
ATOM     25  C   UNL     1       6.610   4.516  14.434  0.00  0.00    +0.000 C 
ATOM     26  C   UNL     1       5.931   3.762  13.554  0.00  0.00    +0.000 C 
BRANCH  26  27
ATOM     27  C   UNL     1       6.548   3.433  12.253  0.00  0.00    +0.000 C 
ATOM     28  O   UNL     1       7.370   4.124  11.679  0.00  0.00    +0.000 OA
BRANCH  27  29
ATOM     29  O   UNL     1       6.093   2.262  11.760  0.00  0.00    +0.000 OA
ATOM     30  H   UNL     1       6.713   1.514  11.804  0.00  0.00    +0.000 HD
ENDBRANCH  27  29
ENDBRANCH  26  27
ENDBRANCH  22  25
ENDBRANCH  18  19
ENDBRANCH  17  18
ENDBRANCH   6  17
TORSDOF 8
ENDMDL
MODEL 2
REMARK VINA RESULT:      -8.1      6.803      9.694
REMARK  Name = 
REMARK  9 active torsions:
REMARK  status: ('A' for Active; 'I' for Inactive)
REMARK    1  A    between atoms: C_1  and  C_2
REMARK    2  A    between atoms: C_4  and  C_5
REMARK    3  A    between atoms: C_8  and  C_9
REMARK    4  A    between atoms: C_16  and  C_17
REMARK    5  A    between atoms: C_17  and  O_18
REMARK    6  A    between atoms: O_18  and  C_19
REMARK    7  A    between atoms: C_22  and  C_23
REMARK    8  A    between atoms: C_24  and  C_25
REMARK    9  A    between atoms: C_25  and  O_27
REMARK                            x       y       z     vdW  Elec       q    Type
REMARK                         _______ _______ _______ _____ _____    ______ ____
ROOT
ATOM      1  C   UNL     1       0.439   9.270  21.833  0.00  0.00    +0.000 C 
ATOM      2  C   UNL     1       0.966   9.147  20.449  0.00  0.00    +0.000 A 
ATOM      3  N   UNL     1       1.704   8.017  20.136  0.00  0.00    +0.000 NA
ATOM      4  C   UNL     1       2.166   8.085  18.904  0.00  0.00    +0.000 A 
ATOM      5  S   UNL     1       1.655   9.473  18.026  0.00  0.00    +0.000 S 
ATOM      6  C   UNL     1       0.811  10.047  19.408  0.00  0.00    +0.000 A 
ENDROOT
BRANCH   4   7
ATOM      7  C   UNL     1       3.020   7.053  18.295  0.00  0.00    +0.000 A 
ATOM      8  C   UNL     1       4.008   7.445  17.375  0.00  0.00    +0.000 A 
ATOM      9  C   UNL     1       4.808   6.498  16.728  0.00  0.00    +0.000 A 
ATOM     10  C   UNL     1       4.633   5.131  16.974  0.00  0.00    +0.000 A 
ATOM     11  C   UNL     1       3.648   4.734  17.893  0.00  0.00    +0.000 A 
ATOM     12  C   UNL     1       2.853   5.683  18.545  0.00  0.00    +0.000 A 
BRANCH  10  13
ATOM     13  C   UNL     1       5.466   4.093  16.264  0.00  0.00    +0.000 C 
ATOM     14  F   UNL     1       4.990   2.823  16.398  0.00  0.00    +0.000 F 
ATOM     15  F   UNL     1       5.549   4.319  14.924  0.00  0.00    +0.000 F 
ATOM     16  F   UNL     1       6.750   4.058  16.717  0.00  0.00    +0.000 F 
ENDBRANCH  10  13
ENDBRANCH   4   7
BRANCH   6  17
ATOM     17  C   UNL     1       0.065  11.341  19.362  0.00  0.00    +0.000 C 
BRANCH  17  18
ATOM     18  O   UNL     1      -1.320  11.012  19.429  0.00  0.00    +0.000 OA
BRANCH  18  19
ATOM     19  C   UNL     1      -1.933  10.677  18.254  0.00  0.00    +0.000 A 
ATOM     20  C   UNL     1      -3.025  11.476  17.911  0.00  0.00    +0.000 A 
ATOM     21  C   UNL     1      -3.719  11.263  16.716  0.00  0.00    +0.000 A 
ATOM     22  C   UNL     1      -3.314  10.264  15.823  0.00  0.00    +0.000 A 
ATOM     23  C   UNL     1      -2.230   9.452  16.181  0.00  0.00    +0.000 A 
ATOM     24  C   UNL     1      -1.539   9.661  17.385  0.00  0.00    +0.000 A 
BRANCH  22  25
ATOM     25  C   UNL     1      -4.062  10.092  14.570  0.00  0.00    +0.000 C 
ATOM     26  C   UNL     1      -3.496   9.873  13.372  0.00  0.00    +0.000 C 
BRANCH  26  27
ATOM     27  C   UNL     1      -4.350   9.768  12.173  0.00  0.00    +0.000 C 
ATOM     28  O   UNL     1      -5.568   9.763  12.185  0.00  0.00    +0.000 OA
BRANCH  27  29
ATOM     29  O   UNL     1      -3.623   9.676  11.040  0.00  0.00    +0.000 OA
ATOM     30  H   UNL     1      -3.385  10.520  10.619  0.00  0.00    +0.000 HD
ENDBRANCH  27  29
ENDBRANCH  26  27
ENDBRANCH  22  25
ENDBRANCH  18  19
ENDBRANCH  17  18
ENDBRANCH   6  17
TORSDOF 8
ENDMDL
MODEL 3
REMARK VINA RESULT:      -7.7      6.574      9.453
REMARK  Name = 
REMARK  9 active torsions:
REMARK  status: ('A' for Active; 'I' for Inactive)
REMARK    1  A    between atoms: C_1  and  C_2
REMARK    2  A    between atoms: C_4  and  C_5
REMARK    3  A    between atoms: C_8  and  C_9
REMARK    4  A    between atoms: C_16  and  C_17
REMARK    5  A    between atoms: C_17  and  O_18
REMARK    6  A    between atoms: O_18  and  C_19
REMARK    7  A    between atoms: C_22  and  C_23
REMARK    8  A    between atoms: C_24  and  C_25
REMARK    9  A    between atoms: C_25  and  O_27
REMARK                            x       y       z     vdW  Elec       q    Type
REMARK                         _______ _______ _______ _____ _____    ______ ____
ROOT
ATOM      1  C   UNL     1      -0.052   9.942  22.247  0.00  0.00    +0.000 C 
ATOM      2  C   UNL     1       0.560   9.287  21.062  0.00  0.00    +0.000 A 
ATOM      3  N   UNL     1       1.045   7.998  21.212  0.00  0.00    +0.000 NA
ATOM      4  C   UNL     1       1.623   7.582  20.104  0.00  0.00    +0.000 A 
ATOM      5  S   UNL     1       1.528   8.689  18.791  0.00  0.00    +0.000 S 
ATOM      6  C   UNL     1       0.713   9.821  19.793  0.00  0.00    +0.000 A 
ENDROOT
BRANCH   4   7
ATOM      7  C   UNL     1       2.270   6.268  19.966  0.00  0.00    +0.000 A 
ATOM      8  C   UNL     1       1.616   5.132  20.473  0.00  0.00    +0.000 A 
ATOM      9  C   UNL     1       2.213   3.868  20.416  0.00  0.00    +0.000 A 
ATOM     10  C   UNL     1       3.488   3.709  19.860  0.00  0.00    +0.000 A 
ATOM     11  C   UNL     1       4.146   4.840  19.351  0.00  0.00    +0.000 A 
ATOM     12  C   UNL     1       3.544   6.102  19.402  0.00  0.00    +0.000 A 
BRANCH  10  13
ATOM     13  C   UNL     1       4.160   2.359  19.816  0.00  0.00    +0.000 C 
ATOM     14  F   UNL     1       5.277   2.330  19.035  0.00  0.00    +0.000 F 
ATOM     15  F   UNL     1       4.556   1.934  21.047  0.00  0.00    +0.000 F 
ATOM     16  F   UNL     1       3.341   1.386  19.330  0.00  0.00    +0.000 F 
ENDBRANCH  10  13
ENDBRANCH   4   7
BRANCH   6  17
ATOM     17  C   UNL     1       0.291  11.149  19.255  0.00  0.00    +0.000 C 
BRANCH  17  18
ATOM     18  O   UNL     1      -1.125  11.214  19.402  0.00  0.00    +0.000 OA
BRANCH  18  19
ATOM     19  C   UNL     1      -1.874  11.034  18.272  0.00  0.00    +0.000 A 
ATOM     20  C   UNL     1      -1.425  10.019  17.426  0.00  0.00    +0.000 A 
ATOM     21  C   UNL     1      -2.121   9.706  16.254  0.00  0.00    +0.000 A 
ATOM     22  C   UNL     1      -3.300  10.383  15.921  0.00  0.00    +0.000 A 
ATOM     23  C   UNL     1      -3.735  11.414  16.764  0.00  0.00    +0.000 A 
ATOM     24  C   UNL     1      -3.031  11.733  17.936  0.00  0.00    +0.000 A 
BRANCH  22  25
ATOM     25  C   UNL     1      -4.008  10.005  14.689  0.00  0.00    +0.000 C 
ATOM     26  C   UNL     1      -3.477  10.072  13.458  0.00  0.00    +0.000 C 
BRANCH  26  27
ATOM     27  C   UNL     1      -4.305   9.714  12.289  0.00  0.00    +0.000 C 
ATOM     28  O   UNL     1      -5.489   9.433  12.336  0.00  0.00    +0.000 OA
BRANCH  27  29
ATOM     29  O   UNL     1      -3.595   9.731  11.142  0.00  0.00    +0.000 OA
ATOM     30  H   UNL     1      -2.635   9.856  11.239  0.00  0.00    +0.000 HD
ENDBRANCH  27  29
ENDBRANCH  26  27
ENDBRANCH  22  25
ENDBRANCH  18  19
ENDBRANCH  17  18
ENDBRANCH   6  17
TORSDOF 8
ENDMDL
MODEL 4
REMARK VINA RESULT:      -7.5      3.350      5.161
REMARK  Name = 
REMARK  9 active torsions:
REMARK  status: ('A' for Active; 'I' for Inactive)
REMARK    1  A    between atoms: C_1  and  C_2
REMARK    2  A    between atoms: C_4  and  C_5
REMARK    3  A    between atoms: C_8  and  C_9
REMARK    4  A    between atoms: C_16  and  C_17
REMARK    5  A    between atoms: C_17  and  O_18
REMARK    6  A    between atoms: O_18  and  C_19
REMARK    7  A    between atoms: C_22  and  C_23
REMARK    8  A    between atoms: C_24  and  C_25
REMARK    9  A    between atoms: C_25  and  O_27
REMARK                            x       y       z     vdW  Elec       q    Type
REMARK                         _______ _______ _______ _____ _____    ______ ____
ROOT
ATOM      1  C   UNL     1       4.250   3.143  19.627  0.00  0.00    +0.000 C 
ATOM      2  C   UNL     1       3.915   4.460  19.025  0.00  0.00    +0.000 A 
ATOM      3  N   UNL     1       3.164   5.345  19.781  0.00  0.00    +0.000 NA
ATOM      4  C   UNL     1       2.883   6.432  19.090  0.00  0.00    +0.000 A 
ATOM      5  S   UNL     1       3.593   6.484  17.524  0.00  0.00    +0.000 S 
ATOM      6  C   UNL     1       4.267   4.923  17.768  0.00  0.00    +0.000 A 
ENDROOT
BRANCH   4   7
ATOM      7  C   UNL     1       2.064   7.538  19.608  0.00  0.00    +0.000 A 
ATOM      8  C   UNL     1       1.748   8.608  18.752  0.00  0.00    +0.000 A 
ATOM      9  C   UNL     1       1.018   9.709  19.212  0.00  0.00    +0.000 A 
ATOM     10  C   UNL     1       0.597   9.777  20.545  0.00  0.00    +0.000 A 
ATOM     11  C   UNL     1       0.909   8.712  21.404  0.00  0.00    +0.000 A 
ATOM     12  C   UNL     1       1.633   7.607  20.941  0.00  0.00    +0.000 A 
BRANCH  10  13
ATOM     13  C   UNL     1      -0.165  10.970  21.066  0.00  0.00    +0.000 C 
ATOM     14  F   UNL     1       0.621  11.890  21.693  0.00  0.00    +0.000 F 
ATOM     15  F   UNL     1      -0.813  11.647  20.078  0.00  0.00    +0.000 F 
ATOM     16  F   UNL     1      -1.123  10.621  21.970  0.00  0.00    +0.000 F 
ENDBRANCH  10  13
ENDBRANCH   4   7
BRANCH   6  17
ATOM     17  C   UNL     1       5.087   4.272  16.702  0.00  0.00    +0.000 C 
BRANCH  17  18
ATOM     18  O   UNL     1       6.398   4.113  17.239  0.00  0.00    +0.000 OA
BRANCH  18  19
ATOM     19  C   UNL     1       7.030   5.246  17.671  0.00  0.00    +0.000 A 
ATOM     20  C   UNL     1       7.011   6.311  16.770  0.00  0.00    +0.000 A 
ATOM     21  C   UNL     1       7.590   7.539  17.102  0.00  0.00    +0.000 A 
ATOM     22  C   UNL     1       8.175   7.736  18.359  0.00  0.00    +0.000 A 
ATOM     23  C   UNL     1       8.208   6.658  19.252  0.00  0.00    +0.000 A 
ATOM     24  C   UNL     1       7.633   5.422  18.915  0.00  0.00    +0.000 A 
BRANCH  22  25
ATOM     25  C   UNL     1       8.752   9.051  18.670  0.00  0.00    +0.000 C 
ATOM     26  C   UNL     1       8.655  10.130  17.877  0.00  0.00    +0.000 C 
BRANCH  26  27
ATOM     27  C   UNL     1       9.323  11.386  18.273  0.00  0.00    +0.000 C 
ATOM     28  O   UNL     1       8.985  12.498  17.907  0.00  0.00    +0.000 OA
BRANCH  27  29
ATOM     29  O   UNL     1      10.365  11.166  19.100  0.00  0.00    +0.000 OA
ATOM     30  H   UNL     1      10.148  11.085  20.044  0.00  0.00    +0.000 HD
ENDBRANCH  27  29
ENDBRANCH  26  27
ENDBRANCH  22  25
ENDBRANCH  18  19
ENDBRANCH  17  18
ENDBRANCH   6  17
TORSDOF 8
ENDMDL
MODEL 5
REMARK VINA RESULT:      -7.4      7.034      9.873
REMARK  Name = 
REMARK  9 active torsions:
REMARK  status: ('A' for Active; 'I' for Inactive)
REMARK    1  A    between atoms: C_1  and  C_2
REMARK    2  A    between atoms: C_4  and  C_5
REMARK    3  A    between atoms: C_8  and  C_9
REMARK    4  A    between atoms: C_16  and  C_17
REMARK    5  A    between atoms: C_17  and  O_18
REMARK    6  A    between atoms: O_18  and  C_19
REMARK    7  A    between atoms: C_22  and  C_23
REMARK    8  A    between atoms: C_24  and  C_25
REMARK    9  A    between atoms: C_25  and  O_27
REMARK                            x       y       z     vdW  Elec       q    Type
REMARK                         _______ _______ _______ _____ _____    ______ ____
ROOT
ATOM      1  C   UNL     1       0.367   8.368  21.491  0.00  0.00    +0.000 C 
ATOM      2  C   UNL     1       1.053   8.502  20.180  0.00  0.00    +0.000 A 
ATOM      3  N   UNL     1       1.952   7.514  19.815  0.00  0.00    +0.000 NA
ATOM      4  C   UNL     1       2.533   7.808  18.670  0.00  0.00    +0.000 A 
ATOM      5  S   UNL     1       1.955   9.246  17.925  0.00  0.00    +0.000 S 
ATOM      6  C   UNL     1       0.903   9.522  19.254  0.00  0.00    +0.000 A 
ENDROOT
BRANCH   4   7
ATOM      7  C   UNL     1       3.567   6.971  18.042  0.00  0.00    +0.000 A 
ATOM      8  C   UNL     1       4.105   7.369  16.805  0.00  0.00    +0.000 A 
ATOM      9  C   UNL     1       5.050   6.580  16.141  0.00  0.00    +0.000 A 
ATOM     10  C   UNL     1       5.474   5.364  16.691  0.00  0.00    +0.000 A 
ATOM     11  C   UNL     1       4.941   4.961  17.925  0.00  0.00    +0.000 A 
ATOM     12  C   UNL     1       4.001   5.755  18.592  0.00  0.00    +0.000 A 
BRANCH  10  13
ATOM     13  C   UNL     1       6.470   4.486  15.975  0.00  0.00    +0.000 C 
ATOM     14  F   UNL     1       6.813   4.943  14.738  0.00  0.00    +0.000 F 
ATOM     15  F   UNL     1       7.639   4.357  16.662  0.00  0.00    +0.000 F 
ATOM     16  F   UNL     1       6.007   3.219  15.787  0.00  0.00    +0.000 F 
ENDBRANCH  10  13
ENDBRANCH   4   7
BRANCH   6  17
ATOM     17  C   UNL     1       0.014  10.723  19.286  0.00  0.00    +0.000 C 
BRANCH  17  18
ATOM     18  O   UNL     1      -1.317  10.246  19.106  0.00  0.00    +0.000 OA
BRANCH  18  19
ATOM     19  C   UNL     1      -1.867  10.404  17.864  0.00  0.00    +0.000 A 
ATOM     20  C   UNL     1      -1.596   9.371  16.965  0.00  0.00    +0.000 A 
ATOM     21  C   UNL     1      -2.129   9.391  15.672  0.00  0.00    +0.000 A 
ATOM     22  C   UNL     1      -2.971  10.431  15.263  0.00  0.00    +0.000 A 
ATOM     23  C   UNL     1      -3.224  11.474  16.162  0.00  0.00    +0.000 A 
ATOM     24  C   UNL     1      -2.682  11.458  17.458  0.00  0.00    +0.000 A 
BRANCH  22  25
ATOM     25  C   UNL     1      -3.524  10.398  13.901  0.00  0.00    +0.000 C 
ATOM     26  C   UNL     1      -4.546   9.617  13.517  0.00  0.00    +0.000 C 
BRANCH  26  27
ATOM     27  C   UNL     1      -4.982   9.632  12.106  0.00  0.00    +0.000 C 
ATOM     28  O   UNL     1      -6.031   9.166  11.697  0.00  0.00    +0.000 OA
BRANCH  27  29
ATOM     29  O   UNL     1      -4.076  10.228  11.304  0.00  0.00    +0.000 OA
ATOM     30  H   UNL     1      -4.219  11.175  11.133  0.00  0.00    +0.000 HD
ENDBRANCH  27  29
ENDBRANCH  26  27
ENDBRANCH  22  25
ENDBRANCH  18  19
ENDBRANCH  17  18
ENDBRANCH   6  17
TORSDOF 8
ENDMDL
MODEL 6
REMARK VINA RESULT:      -7.4      3.366      5.228
REMARK  Name = 
REMARK  9 active torsions:
REMARK  status: ('A' for Active; 'I' for Inactive)
REMARK    1  A    between atoms: C_1  and  C_2
REMARK    2  A    between atoms: C_4  and  C_5
REMARK    3  A    between atoms: C_8  and  C_9
REMARK    4  A    between atoms: C_16  and  C_17
REMARK    5  A    between atoms: C_17  and  O_18
REMARK    6  A    between atoms: O_18  and  C_19
REMARK    7  A    between atoms: C_22  and  C_23
REMARK    8  A    between atoms: C_24  and  C_25
REMARK    9  A    between atoms: C_25  and  O_27
REMARK                            x       y       z     vdW  Elec       q    Type
REMARK                         _______ _______ _______ _____ _____    ______ ____
ROOT
ATOM      1  C   UNL     1       4.173   3.417  19.655  0.00  0.00    +0.000 C 
ATOM      2  C   UNL     1       3.761   4.728  19.089  0.00  0.00    +0.000 A 
ATOM      3  N   UNL     1       3.052   5.593  19.907  0.00  0.00    +0.000 NA
ATOM      4  C   UNL     1       2.693   6.675  19.247  0.00  0.00    +0.000 A 
ATOM      5  S   UNL     1       3.272   6.748  17.629  0.00  0.00    +0.000 S 
ATOM      6  C   UNL     1       3.999   5.203  17.810  0.00  0.00    +0.000 A 
ENDROOT
BRANCH   4   7
ATOM      7  C   UNL     1       1.893   7.760  19.835  0.00  0.00    +0.000 A 
ATOM      8  C   UNL     1       1.583   8.881  19.044  0.00  0.00    +0.000 A 
ATOM      9  C   UNL     1       0.873   9.963  19.573  0.00  0.00    +0.000 A 
ATOM     10  C   UNL     1       0.464   9.960  20.912  0.00  0.00    +0.000 A 
ATOM     11  C   UNL     1       0.770   8.844  21.706  0.00  0.00    +0.000 A 
ATOM     12  C   UNL     1       1.474   7.758  21.174  0.00  0.00    +0.000 A 
BRANCH  10  13
ATOM     13  C   UNL     1      -0.277  11.132  21.507  0.00  0.00    +0.000 C 
ATOM     14  F   UNL     1      -1.440  11.428  20.862  0.00  0.00    +0.000 F 
ATOM     15  F   UNL     1      -0.618  10.925  22.809  0.00  0.00    +0.000 F 
ATOM     16  F   UNL     1       0.460  12.277  21.491  0.00  0.00    +0.000 F 
ENDBRANCH  10  13
ENDBRANCH   4   7
BRANCH   6  17
ATOM     17  C   UNL     1       4.745   4.575  16.678  0.00  0.00    +0.000 C 
BRANCH  17  18
ATOM     18  O   UNL     1       6.109   4.498  17.085  0.00  0.00    +0.000 OA
BRANCH  18  19
ATOM     19  C   UNL     1       6.715   5.671  17.440  0.00  0.00    +0.000 A 
ATOM     20  C   UNL     1       7.495   5.603  18.596  0.00  0.00    +0.000 A 
ATOM     21  C   UNL     1       8.198   6.723  19.050  0.00  0.00    +0.000 A 
ATOM     22  C   UNL     1       8.161   7.927  18.337  0.00  0.00    +0.000 A 
ATOM     23  C   UNL     1       7.362   7.995  17.189  0.00  0.00    +0.000 A 
ATOM     24  C   UNL     1       6.648   6.872  16.738  0.00  0.00    +0.000 A 
BRANCH  22  25
ATOM     25  C   UNL     1       8.934   9.071  18.842  0.00  0.00    +0.000 C 
ATOM     26  C   UNL     1       8.987  10.272  18.245  0.00  0.00    +0.000 C 
BRANCH  26  27
ATOM     27  C   UNL     1       9.841  11.331  18.820  0.00  0.00    +0.000 C 
ATOM     28  O   UNL     1      11.060  11.324  18.809  0.00  0.00    +0.000 OA
BRANCH  27  29
ATOM     29  O   UNL     1       9.114  12.326  19.368  0.00  0.00    +0.000 OA
ATOM     30  H   UNL     1       8.932  12.243  20.320  0.00  0.00    +0.000 HD
ENDBRANCH  27  29
ENDBRANCH  26  27
ENDBRANCH  22  25
ENDBRANCH  18  19
ENDBRANCH  17  18
ENDBRANCH   6  17
TORSDOF 8
ENDMDL
MODEL 7
REMARK VINA RESULT:      -7.3      3.422      5.546
REMARK  Name = 
REMARK  9 active torsions:
REMARK  status: ('A' for Active; 'I' for Inactive)
REMARK    1  A    between atoms: C_1  and  C_2
REMARK    2  A    between atoms: C_4  and  C_5
REMARK    3  A    between atoms: C_8  and  C_9
REMARK    4  A    between atoms: C_16  and  C_17
REMARK    5  A    between atoms: C_17  and  O_18
REMARK    6  A    between atoms: O_18  and  C_19
REMARK    7  A    between atoms: C_22  and  C_23
REMARK    8  A    between atoms: C_24  and  C_25
REMARK    9  A    between atoms: C_25  and  O_27
REMARK                            x       y       z     vdW  Elec       q    Type
REMARK                         _______ _______ _______ _____ _____    ______ ____
ROOT
ATOM      1  C   UNL     1       4.448   3.024  19.794  0.00  0.00    +0.000 C 
ATOM      2  C   UNL     1       4.132   4.293  19.088  0.00  0.00    +0.000 A 
ATOM      3  N   UNL     1       3.367   5.234  19.757  0.00  0.00    +0.000 NA
ATOM      4  C   UNL     1       3.107   6.266  18.981  0.00  0.00    +0.000 A 
ATOM      5  S   UNL     1       3.852   6.199  17.432  0.00  0.00    +0.000 S 
ATOM      6  C   UNL     1       4.514   4.660  17.808  0.00  0.00    +0.000 A 
ENDROOT
BRANCH   4   7
ATOM      7  C   UNL     1       2.282   7.411  19.396  0.00  0.00    +0.000 A 
ATOM      8  C   UNL     1       1.636   7.366  20.644  0.00  0.00    +0.000 A 
ATOM      9  C   UNL     1       0.797   8.404  21.062  0.00  0.00    +0.000 A 
ATOM     10  C   UNL     1       0.570   9.511  20.235  0.00  0.00    +0.000 A 
ATOM     11  C   UNL     1       1.213   9.562  18.988  0.00  0.00    +0.000 A 
ATOM     12  C   UNL     1       2.058   8.526  18.575  0.00  0.00    +0.000 A 
BRANCH  10  13
ATOM     13  C   UNL     1      -0.355  10.626  20.655  0.00  0.00    +0.000 C 
ATOM     14  F   UNL     1      -1.451  10.758  19.856  0.00  0.00    +0.000 F 
ATOM     15  F   UNL     1      -0.834  10.457  21.919  0.00  0.00    +0.000 F 
ATOM     16  F   UNL     1       0.259  11.841  20.648  0.00  0.00    +0.000 F 
ENDBRANCH  10  13
ENDBRANCH   4   7
BRANCH   6  17
ATOM     17  C   UNL     1       5.355   3.929  16.812  0.00  0.00    +0.000 C 
BRANCH  17  18
ATOM     18  O   UNL     1       6.698   4.006  17.282  0.00  0.00    +0.000 OA
BRANCH  18  19
ATOM     19  C   UNL     1       7.167   5.247  17.615  0.00  0.00    +0.000 A 
ATOM     20  C   UNL     1       7.115   6.189  16.587  0.00  0.00    +0.000 A 
ATOM     21  C   UNL     1       7.530   7.507  16.804  0.00  0.00    +0.000 A 
ATOM     22  C   UNL     1       7.976   7.917  18.066  0.00  0.00    +0.000 A 
ATOM     23  C   UNL     1       8.043   6.962  19.089  0.00  0.00    +0.000 A 
ATOM     24  C   UNL     1       7.635   5.637  18.868  0.00  0.00    +0.000 A 
BRANCH  22  25
ATOM     25  C   UNL     1       8.381   9.317  18.252  0.00  0.00    +0.000 C 
ATOM     26  C   UNL     1       9.365   9.719  19.073  0.00  0.00    +0.000 C 
BRANCH  26  27
ATOM     27  C   UNL     1       9.647  11.162  19.216  0.00  0.00    +0.000 C 
ATOM     28  O   UNL     1       9.634  11.966  18.301  0.00  0.00    +0.000 OA
BRANCH  27  29
ATOM     29  O   UNL     1       9.927  11.498  20.491  0.00  0.00    +0.000 OA
ATOM     30  H   UNL     1      10.829  11.298  20.795  0.00  0.00    +0.000 HD
ENDBRANCH  27  29
ENDBRANCH  26  27
ENDBRANCH  22  25
ENDBRANCH  18  19
ENDBRANCH  17  18
ENDBRANCH   6  17
TORSDOF 8
ENDMDL
MODEL 8
REMARK VINA RESULT:      -7.3      3.257      5.236
REMARK  Name = 
REMARK  9 active torsions:
REMARK  status: ('A' for Active; 'I' for Inactive)
REMARK    1  A    between atoms: C_1  and  C_2
REMARK    2  A    between atoms: C_4  and  C_5
REMARK    3  A    between atoms: C_8  and  C_9
REMARK    4  A    between atoms: C_16  and  C_17
REMARK    5  A    between atoms: C_17  and  O_18
REMARK    6  A    between atoms: O_18  and  C_19
REMARK    7  A    between atoms: C_22  and  C_23
REMARK    8  A    between atoms: C_24  and  C_25
REMARK    9  A    between atoms: C_25  and  O_27
REMARK                            x       y       z     vdW  Elec       q    Type
REMARK                         _______ _______ _______ _____ _____    ______ ____
ROOT
ATOM      1  C   UNL     1       3.667   2.908  20.114  0.00  0.00    +0.000 C 
ATOM      2  C   UNL     1       3.508   4.231  19.457  0.00  0.00    +0.000 A 
ATOM      3  N   UNL     1       2.796   5.209  20.132  0.00  0.00    +0.000 NA
ATOM      4  C   UNL     1       2.675   6.295  19.396  0.00  0.00    +0.000 A 
ATOM      5  S   UNL     1       3.496   6.227  17.886  0.00  0.00    +0.000 S 
ATOM      6  C   UNL     1       3.993   4.617  18.218  0.00  0.00    +0.000 A 
ENDROOT
BRANCH   4   7
ATOM      7  C   UNL     1       1.936   7.492  19.824  0.00  0.00    +0.000 A 
ATOM      8  C   UNL     1       1.377   7.520  21.113  0.00  0.00    +0.000 A 
ATOM      9  C   UNL     1       0.618   8.612  21.549  0.00  0.00    +0.000 A 
ATOM     10  C   UNL     1       0.388   9.701  20.700  0.00  0.00    +0.000 A 
ATOM     11  C   UNL     1       0.945   9.680  19.412  0.00  0.00    +0.000 A 
ATOM     12  C   UNL     1       1.710   8.590  18.980  0.00  0.00    +0.000 A 
BRANCH  10  13
ATOM     13  C   UNL     1      -0.451  10.874  21.141  0.00  0.00    +0.000 C 
ATOM     14  F   UNL     1       0.248  12.040  21.241  0.00  0.00    +0.000 F 
ATOM     15  F   UNL     1      -1.480  11.130  20.287  0.00  0.00    +0.000 F 
ATOM     16  F   UNL     1      -1.021  10.677  22.362  0.00  0.00    +0.000 F 
ENDBRANCH  10  13
ENDBRANCH   4   7
BRANCH   6  17
ATOM     17  C   UNL     1       4.818   3.856  17.232  0.00  0.00    +0.000 C 
BRANCH  17  18
ATOM     18  O   UNL     1       6.176   4.011  17.635  0.00  0.00    +0.000 OA
BRANCH  18  19
ATOM     19  C   UNL     1       6.679   5.283  17.637  0.00  0.00    +0.000 A 
ATOM     20  C   UNL     1       7.399   5.629  18.781  0.00  0.00    +0.000 A 
ATOM     21  C   UNL     1       7.997   6.888  18.896  0.00  0.00    +0.000 A 
ATOM     22  C   UNL     1       7.913   7.816  17.851  0.00  0.00    +0.000 A 
ATOM     23  C   UNL     1       7.174   7.470  16.713  0.00  0.00    +0.000 A 
ATOM     24  C   UNL     1       6.566   6.209  16.602  0.00  0.00    +0.000 A 
BRANCH  22  25
ATOM     25  C   UNL     1       8.576   9.118  18.008  0.00  0.00    +0.000 C 
ATOM     26  C   UNL     1       9.054   9.591  19.171  0.00  0.00    +0.000 C 
BRANCH  26  27
ATOM     27  C   UNL     1       9.655  10.939  19.215  0.00  0.00    +0.000 C 
ATOM     28  O   UNL     1      10.257  11.401  20.169  0.00  0.00    +0.000 OA
BRANCH  27  29
ATOM     29  O   UNL     1       9.461  11.617  18.065  0.00  0.00    +0.000 OA
ATOM     30  H   UNL     1       8.770  12.301  18.088  0.00  0.00    +0.000 HD
ENDBRANCH  27  29
ENDBRANCH  26  27
ENDBRANCH  22  25
ENDBRANCH  18  19
ENDBRANCH  17  18
ENDBRANCH   6  17
TORSDOF 8
ENDMDL
MODEL 9
REMARK VINA RESULT:      -7.2      6.467     11.843
REMARK  Name = 
REMARK  9 active torsions:
REMARK  status: ('A' for Active; 'I' for Inactive)
REMARK    1  A    between atoms: C_1  and  C_2
REMARK    2  A    between atoms: C_4  and  C_5
REMARK    3  A    between atoms: C_8  and  C_9
REMARK    4  A    between atoms: C_16  and  C_17
REMARK    5  A    between atoms: C_17  and  O_18
REMARK    6  A    between atoms: O_18  and  C_19
REMARK    7  A    between atoms: C_22  and  C_23
REMARK    8  A    between atoms: C_24  and  C_25
REMARK    9  A    between atoms: C_25  and  O_27
REMARK                            x       y       z     vdW  Elec       q    Type
REMARK                         _______ _______ _______ _____ _____    ______ ____
ROOT
ATOM      1  C   UNL     1       0.561  10.556  18.624  0.00  0.00    +0.000 C 
ATOM      2  C   UNL     1       1.244   9.298  19.024  0.00  0.00    +0.000 A 
ATOM      3  N   UNL     1       2.093   8.703  18.106  0.00  0.00    +0.000 NA
ATOM      4  C   UNL     1       2.562   7.562  18.571  0.00  0.00    +0.000 A 
ATOM      5  S   UNL     1       2.076   7.195  20.179  0.00  0.00    +0.000 S 
ATOM      6  C   UNL     1       1.129   8.627  20.230  0.00  0.00    +0.000 A 
ENDROOT
BRANCH   4   7
ATOM      7  C   UNL     1       3.458   6.678  17.810  0.00  0.00    +0.000 A 
ATOM      8  C   UNL     1       4.423   7.253  16.964  0.00  0.00    +0.000 A 
ATOM      9  C   UNL     1       5.262   6.457  16.178  0.00  0.00    +0.000 A 
ATOM     10  C   UNL     1       5.150   5.061  16.208  0.00  0.00    +0.000 A 
ATOM     11  C   UNL     1       4.189   4.481  17.051  0.00  0.00    +0.000 A 
ATOM     12  C   UNL     1       3.355   5.280  17.842  0.00  0.00    +0.000 A 
BRANCH  10  13
ATOM     13  C   UNL     1       6.026   4.187  15.345  0.00  0.00    +0.000 C 
ATOM     14  F   UNL     1       7.356   4.456  15.468  0.00  0.00    +0.000 F 
ATOM     15  F   UNL     1       5.886   2.864  15.634  0.00  0.00    +0.000 F 
ATOM     16  F   UNL     1       5.742   4.313  14.019  0.00  0.00    +0.000 F 
ENDBRANCH  10  13
ENDBRANCH   4   7
BRANCH   6  17
ATOM     17  C   UNL     1       0.343   8.978  21.451  0.00  0.00    +0.000 C 
BRANCH  17  18
ATOM     18  O   UNL     1       0.822  10.246  21.891  0.00  0.00    +0.000 OA
BRANCH  18  19
ATOM     19  C   UNL     1      -0.118  11.193  22.188  0.00  0.00    +0.000 A 
ATOM     20  C   UNL     1      -1.151  10.756  23.018  0.00  0.00    +0.000 A 
ATOM     21  C   UNL     1      -2.159  11.634  23.429  0.00  0.00    +0.000 A 
ATOM     22  C   UNL     1      -2.136  12.979  23.041  0.00  0.00    +0.000 A 
ATOM     23  C   UNL     1      -1.108  13.408  22.192  0.00  0.00    +0.000 A 
ATOM     24  C   UNL     1      -0.101  12.523  21.773  0.00  0.00    +0.000 A 
BRANCH  22  25
ATOM     25  C   UNL     1      -3.205  13.869  23.514  0.00  0.00    +0.000 C 
ATOM     26  C   UNL     1      -4.468  13.846  23.060  0.00  0.00    +0.000 C 
BRANCH  26  27
ATOM     27  C   UNL     1      -5.444  14.826  23.576  0.00  0.00    +0.000 C 
ATOM     28  O   UNL     1      -5.156  15.827  24.209  0.00  0.00    +0.000 OA
BRANCH  27  29
ATOM     29  O   UNL     1      -6.713  14.489  23.266  0.00  0.00    +0.000 OA
ATOM     30  H   UNL     1      -7.407  15.048  23.654  0.00  0.00    +0.000 HD
ENDBRANCH  27  29
ENDBRANCH  26  27
ENDBRANCH  22  25
ENDBRANCH  18  19
ENDBRANCH  17  18
ENDBRANCH   6  17
TORSDOF 8
ENDMDL
