MODEL 1
REMARK VINA RESULT:      -8.0      0.000      0.000
REMARK  Name = 
REMARK  9 active torsions:
REMARK  status: ('A' for Active; 'I' for Inactive)
REMARK    1  A    between atoms: C_1  and  O_2
REMARK    2  A    between atoms: O_2  and  C_3
REMARK    3  A    between atoms: C_7  and  C_8
REMARK    4  A    between atoms: C_8  and  N_9
REMARK    5  A    between atoms: C_14  and  C_16
REMARK    6  A    between atoms: C_19  and  S_20
REMARK    7  A    between atoms: S_20  and  C_21
REMARK    8  A    between atoms: C_27  and  C_28
REMARK    9  A    between atoms: C_28  and  C_29
REMARK                            x       y       z     vdW  Elec       q    Type
REMARK                         _______ _______ _______ _____ _____    ______ ____
ROOT
ATOM      1  N   UNL     1      -0.745  10.961  21.783  0.00  0.00    +0.000 N 
ATOM      2  C   UNL     1       0.332  10.149  22.114  0.00  0.00    +0.000 C 
ATOM      3  O   UNL     1       0.581   9.801  23.273  0.00  0.00    +0.000 OA
ATOM      4  C   UNL     1       1.348   9.841  21.021  0.00  0.00    +0.000 C 
ATOM      5  N   UNL     1       0.935  10.053  19.641  0.00  0.00    +0.000 N 
ATOM      6  C   UNL     1       1.186   9.197  18.570  0.00  0.00    +0.000 C 
ATOM      7  O   UNL     1       0.635   9.342  17.478  0.00  0.00    +0.000 OA
ATOM      8  C   UNL     1       0.067  11.216  19.447  0.00  0.00    +0.000 C 
ATOM      9  C   UNL     1      -1.177  11.098  20.359  0.00  0.00    +0.000 C 
ENDROOT
BRANCH   6  10
ATOM     10  C   UNL     1       2.128   8.042  18.701  0.00  0.00    +0.000 A 
ATOM     11  C   UNL     1       3.118   7.887  17.717  0.00  0.00    +0.000 A 
ATOM     12  C   UNL     1       4.031   6.829  17.781  0.00  0.00    +0.000 A 
ATOM     13  C   UNL     1       3.944   5.918  18.834  0.00  0.00    +0.000 A 
ATOM     14  C   UNL     1       2.970   6.056  19.823  0.00  0.00    +0.000 A 
ATOM     15  C   UNL     1       2.102   7.148  19.780  0.00  0.00    +0.000 A 
BRANCH  13  16
ATOM     16  S   UNL     1       5.102   4.576  18.960  0.00  0.00    +0.000 S 
ATOM     17  C   UNL     1       5.674   4.410  17.287  0.00  0.00    +0.000 C 
ATOM     18  O   UNL     1       6.207   5.026  19.780  0.00  0.00    +0.000 OA
ATOM     19  O   UNL     1       4.352   3.381  19.303  0.00  0.00    +0.000 OA
ENDBRANCH  13  16
ENDBRANCH   6  10
BRANCH   1  20
ATOM     20  C   UNL     1      -1.487  11.549  22.897  0.00  0.00    +0.000 C 
BRANCH  20  25
ATOM     21  C   UNL     1      -2.049  15.264  23.536  0.00  0.00    +0.000 A 
ATOM     22  C   UNL     1      -0.907  15.823  22.959  0.00  0.00    +0.000 A 
ATOM     23  C   UNL     1       0.081  14.998  22.418  0.00  0.00    +0.000 A 
ATOM     24  C   UNL     1      -0.087  13.617  22.433  0.00  0.00    +0.000 A 
ATOM     25  C   UNL     1      -1.248  13.037  22.976  0.00  0.00    +0.000 A 
ATOM     26  C   UNL     1      -2.207  13.878  23.555  0.00  0.00    +0.000 A 
BRANCH  21  28
ATOM     27  C   UNL     1      -4.233  15.670  24.370  0.00  0.00    +0.000 C 
ATOM     28  O   UNL     1      -2.947  16.173  24.028  0.00  0.00    +0.000 OA
ENDBRANCH  21  28
ENDBRANCH  20  25
ENDBRANCH   1  20
BRANCH   9  29
ATOM     29  C   UNL     1      -2.191  12.232  20.065  0.00  0.00    +0.000 C 
BRANCH  29  30
ATOM     30  C   UNL     1      -3.148  11.943  18.928  0.00  0.00    +0.000 A 
ATOM     31  C   UNL     1      -4.534  12.084  19.093  0.00  0.00    +0.000 A 
ATOM     32  C   UNL     1      -5.409  11.744  18.059  0.00  0.00    +0.000 A 
ATOM     33  C   UNL     1      -4.910  11.278  16.844  0.00  0.00    +0.000 A 
ATOM     34  C   UNL     1      -3.534  11.173  16.655  0.00  0.00    +0.000 A 
ATOM     35  C   UNL     1      -2.657  11.507  17.689  0.00  0.00    +0.000 A 
ENDBRANCH  29  30
ENDBRANCH   9  29
TORSDOF 7
ENDMDL
MODEL 2
REMARK VINA RESULT:      -8.0      0.872      1.333
REMARK  Name = 
REMARK  9 active torsions:
REMARK  status: ('A' for Active; 'I' for Inactive)
REMARK    1  A    between atoms: C_1  and  O_2
REMARK    2  A    between atoms: O_2  and  C_3
REMARK    3  A    between atoms: C_7  and  C_8
REMARK    4  A    between atoms: C_8  and  N_9
REMARK    5  A    between atoms: C_14  and  C_16
REMARK    6  A    between atoms: C_19  and  S_20
REMARK    7  A    between atoms: S_20  and  C_21
REMARK    8  A    between atoms: C_27  and  C_28
REMARK    9  A    between atoms: C_28  and  C_29
REMARK                            x       y       z     vdW  Elec       q    Type
REMARK                         _______ _______ _______ _____ _____    ______ ____
ROOT
ATOM      1  N   UNL     1      -0.654  10.901  21.613  0.00  0.00    +0.000 N 
ATOM      2  C   UNL     1       0.440  10.112  21.943  0.00  0.00    +0.000 C 
ATOM      3  O   UNL     1       0.710   9.789  23.105  0.00  0.00    +0.000 OA
ATOM      4  C   UNL     1       1.444   9.799  20.841  0.00  0.00    +0.000 C 
ATOM      5  N   UNL     1       1.009   9.979  19.464  0.00  0.00    +0.000 N 
ATOM      6  C   UNL     1       1.259   9.107  18.405  0.00  0.00    +0.000 C 
ATOM      7  O   UNL     1       0.690   9.225  17.318  0.00  0.00    +0.000 OA
ATOM      8  C   UNL     1       0.122  11.126  19.261  0.00  0.00    +0.000 C 
ATOM      9  C   UNL     1      -1.108  11.006  20.192  0.00  0.00    +0.000 C 
ENDROOT
BRANCH   6  10
ATOM     10  C   UNL     1       2.219   7.969  18.543  0.00  0.00    +0.000 A 
ATOM     11  C   UNL     1       3.242   7.852  17.587  0.00  0.00    +0.000 A 
ATOM     12  C   UNL     1       4.174   6.812  17.660  0.00  0.00    +0.000 A 
ATOM     13  C   UNL     1       4.073   5.880  18.693  0.00  0.00    +0.000 A 
ATOM     14  C   UNL     1       3.067   5.980  19.654  0.00  0.00    +0.000 A 
ATOM     15  C   UNL     1       2.179   7.055  19.605  0.00  0.00    +0.000 A 
BRANCH  13  16
ATOM     16  S   UNL     1       5.254   4.558  18.830  0.00  0.00    +0.000 S 
ATOM     17  C   UNL     1       4.287   3.261  19.562  0.00  0.00    +0.000 C 
ATOM     18  O   UNL     1       5.619   4.156  17.488  0.00  0.00    +0.000 OA
ATOM     19  O   UNL     1       6.263   4.969  19.790  0.00  0.00    +0.000 OA
ENDBRANCH  13  16
ENDBRANCH   6  10
BRANCH   1  20
ATOM     20  C   UNL     1      -1.389  11.499  22.726  0.00  0.00    +0.000 C 
BRANCH  20  25
ATOM     21  C   UNL     1      -1.308  15.074  24.043  0.00  0.00    +0.000 A 
ATOM     22  C   UNL     1      -0.365  15.662  23.199  0.00  0.00    +0.000 A 
ATOM     23  C   UNL     1       0.298  14.891  22.243  0.00  0.00    +0.000 A 
ATOM     24  C   UNL     1      -0.003  13.538  22.116  0.00  0.00    +0.000 A 
ATOM     25  C   UNL     1      -0.979  12.937  22.931  0.00  0.00    +0.000 A 
ATOM     26  C   UNL     1      -1.600  13.715  23.916  0.00  0.00    +0.000 A 
BRANCH  21  28
ATOM     27  C   UNL     1      -1.171  16.183  26.136  0.00  0.00    +0.000 C 
ATOM     28  O   UNL     1      -1.893  15.931  24.936  0.00  0.00    +0.000 OA
ENDBRANCH  21  28
ENDBRANCH  20  25
ENDBRANCH   1  20
BRANCH   9  29
ATOM     29  C   UNL     1      -2.143  12.119  19.892  0.00  0.00    +0.000 C 
BRANCH  29  30
ATOM     30  C   UNL     1      -3.106  11.799  18.769  0.00  0.00    +0.000 A 
ATOM     31  C   UNL     1      -2.643  11.343  17.525  0.00  0.00    +0.000 A 
ATOM     32  C   UNL     1      -3.536  11.121  16.475  0.00  0.00    +0.000 A 
ATOM     33  C   UNL     1      -4.901  11.334  16.659  0.00  0.00    +0.000 A 
ATOM     34  C   UNL     1      -5.376  11.747  17.902  0.00  0.00    +0.000 A 
ATOM     35  C   UNL     1      -4.485  11.975  18.952  0.00  0.00    +0.000 A 
ENDBRANCH  29  30
ENDBRANCH   9  29
TORSDOF 7
ENDMDL
MODEL 3
REMARK VINA RESULT:      -7.9      1.179      1.971
REMARK  Name = 
REMARK  9 active torsions:
REMARK  status: ('A' for Active; 'I' for Inactive)
REMARK    1  A    between atoms: C_1  and  O_2
REMARK    2  A    between atoms: O_2  and  C_3
REMARK    3  A    between atoms: C_7  and  C_8
REMARK    4  A    between atoms: C_8  and  N_9
REMARK    5  A    between atoms: C_14  and  C_16
REMARK    6  A    between atoms: C_19  and  S_20
REMARK    7  A    between atoms: S_20  and  C_21
REMARK    8  A    between atoms: C_27  and  C_28
REMARK    9  A    between atoms: C_28  and  C_29
REMARK                            x       y       z     vdW  Elec       q    Type
REMARK                         _______ _______ _______ _____ _____    ______ ____
ROOT
ATOM      1  N   UNL     1      -1.254  11.387  21.951  0.00  0.00    +0.000 N 
ATOM      2  C   UNL     1      -0.224  10.522  22.297  0.00  0.00    +0.000 C 
ATOM      3  O   UNL     1      -0.050  10.110  23.448  0.00  0.00    +0.000 OA
ATOM      4  C   UNL     1       0.839  10.232  21.245  0.00  0.00    +0.000 C 
ATOM      5  N   UNL     1       0.509  10.525  19.857  0.00  0.00    +0.000 N 
ATOM      6  C   UNL     1       0.790   9.713  18.759  0.00  0.00    +0.000 C 
ATOM      7  O   UNL     1       0.304   9.931  17.648  0.00  0.00    +0.000 OA
ATOM      8  C   UNL     1      -0.309  11.726  19.677  0.00  0.00    +0.000 C 
ATOM      9  C   UNL     1      -1.604  11.607  20.514  0.00  0.00    +0.000 C 
ENDROOT
BRANCH   6  10
ATOM     10  C   UNL     1       1.685   8.521  18.881  0.00  0.00    +0.000 A 
ATOM     11  C   UNL     1       2.578   8.259  17.829  0.00  0.00    +0.000 A 
ATOM     12  C   UNL     1       3.443   7.161  17.881  0.00  0.00    +0.000 A 
ATOM     13  C   UNL     1       3.406   6.318  18.992  0.00  0.00    +0.000 A 
ATOM     14  C   UNL     1       2.529   6.563  20.049  0.00  0.00    +0.000 A 
ATOM     15  C   UNL     1       1.712   7.693  20.012  0.00  0.00    +0.000 A 
BRANCH  13  16
ATOM     16  S   UNL     1       4.507   4.927  19.103  0.00  0.00    +0.000 S 
ATOM     17  C   UNL     1       4.760   4.507  17.396  0.00  0.00    +0.000 C 
ATOM     18  O   UNL     1       5.760   5.404  19.648  0.00  0.00    +0.000 OA
ATOM     19  O   UNL     1       3.779   3.841  19.734  0.00  0.00    +0.000 OA
ENDBRANCH  13  16
ENDBRANCH   6  10
BRANCH   1  20
ATOM     20  C   UNL     1      -2.036  11.946  23.052  0.00  0.00    +0.000 C 
BRANCH  20  25
ATOM     21  C   UNL     1      -0.278  15.325  23.177  0.00  0.00    +0.000 A 
ATOM     22  C   UNL     1      -1.315  16.165  23.586  0.00  0.00    +0.000 A 
ATOM     23  C   UNL     1      -2.603  15.655  23.760  0.00  0.00    +0.000 A 
ATOM     24  C   UNL     1      -2.846  14.302  23.550  0.00  0.00    +0.000 A 
ATOM     25  C   UNL     1      -1.805  13.432  23.174  0.00  0.00    +0.000 A 
ATOM     26  C   UNL     1      -0.530  13.969  22.960  0.00  0.00    +0.000 A 
BRANCH  21  28
ATOM     27  C   UNL     1       0.917  17.316  22.691  0.00  0.00    +0.000 C 
ATOM     28  O   UNL     1       0.938  15.938  23.044  0.00  0.00    +0.000 OA
ENDBRANCH  21  28
ENDBRANCH  20  25
ENDBRANCH   1  20
BRANCH   9  29
ATOM     29  C   UNL     1      -2.563  12.790  20.225  0.00  0.00    +0.000 C 
BRANCH  29  30
ATOM     30  C   UNL     1      -3.979  12.381  19.875  0.00  0.00    +0.000 A 
ATOM     31  C   UNL     1      -4.269  11.739  18.662  0.00  0.00    +0.000 A 
ATOM     32  C   UNL     1      -5.588  11.435  18.319  0.00  0.00    +0.000 A 
ATOM     33  C   UNL     1      -6.628  11.750  19.191  0.00  0.00    +0.000 A 
ATOM     34  C   UNL     1      -6.348  12.350  20.416  0.00  0.00    +0.000 A 
ATOM     35  C   UNL     1      -5.030  12.661  20.759  0.00  0.00    +0.000 A 
ENDBRANCH  29  30
ENDBRANCH   9  29
TORSDOF 7
ENDMDL
MODEL 4
REMARK VINA RESULT:      -7.9      1.097      1.965
REMARK  Name = 
REMARK  9 active torsions:
REMARK  status: ('A' for Active; 'I' for Inactive)
REMARK    1  A    between atoms: C_1  and  O_2
REMARK    2  A    between atoms: O_2  and  C_3
REMARK    3  A    between atoms: C_7  and  C_8
REMARK    4  A    between atoms: C_8  and  N_9
REMARK    5  A    between atoms: C_14  and  C_16
REMARK    6  A    between atoms: C_19  and  S_20
REMARK    7  A    between atoms: S_20  and  C_21
REMARK    8  A    between atoms: C_27  and  C_28
REMARK    9  A    between atoms: C_28  and  C_29
REMARK                            x       y       z     vdW  Elec       q    Type
REMARK                         _______ _______ _______ _____ _____    ______ ____
ROOT
ATOM      1  N   UNL     1      -0.758  11.029  21.766  0.00  0.00    +0.000 N 
ATOM      2  C   UNL     1       0.302  10.191  22.088  0.00  0.00    +0.000 C 
ATOM      3  O   UNL     1       0.537   9.819  23.243  0.00  0.00    +0.000 OA
ATOM      4  C   UNL     1       1.317   9.883  20.995  0.00  0.00    +0.000 C 
ATOM      5  N   UNL     1       0.916  10.126  19.617  0.00  0.00    +0.000 N 
ATOM      6  C   UNL     1       1.158   9.284  18.533  0.00  0.00    +0.000 C 
ATOM      7  O   UNL     1       0.616   9.459  17.440  0.00  0.00    +0.000 OA
ATOM      8  C   UNL     1       0.072  11.309  19.439  0.00  0.00    +0.000 C 
ATOM      9  C   UNL     1      -1.179  11.198  20.341  0.00  0.00    +0.000 C 
ENDROOT
BRANCH   6  10
ATOM     10  C   UNL     1       2.077   8.109  18.649  0.00  0.00    +0.000 A 
ATOM     11  C   UNL     1       3.064   7.947  17.662  0.00  0.00    +0.000 A 
ATOM     12  C   UNL     1       3.956   6.871  17.713  0.00  0.00    +0.000 A 
ATOM     13  C   UNL     1       3.851   5.949  18.754  0.00  0.00    +0.000 A 
ATOM     14  C   UNL     1       2.879   6.093  19.745  0.00  0.00    +0.000 A 
ATOM     15  C   UNL     1       2.033   7.202  19.717  0.00  0.00    +0.000 A 
BRANCH  13  16
ATOM     16  S   UNL     1       4.982   4.582  18.863  0.00  0.00    +0.000 S 
ATOM     17  C   UNL     1       3.992   3.333  19.646  0.00  0.00    +0.000 C 
ATOM     18  O   UNL     1       5.280   4.152  17.513  0.00  0.00    +0.000 OA
ATOM     19  O   UNL     1       6.041   4.962  19.781  0.00  0.00    +0.000 OA
ENDBRANCH  13  16
ENDBRANCH   6  10
BRANCH   1  20
ATOM     20  C   UNL     1      -1.495  11.612  22.885  0.00  0.00    +0.000 C 
BRANCH  20  25
ATOM     21  C   UNL     1       0.106  15.054  22.552  0.00  0.00    +0.000 A 
ATOM     22  C   UNL     1      -0.832  15.863  23.197  0.00  0.00    +0.000 A 
ATOM     23  C   UNL     1      -2.017  15.309  23.684  0.00  0.00    +0.000 A 
ATOM     24  C   UNL     1      -2.250  13.945  23.549  0.00  0.00    +0.000 A 
ATOM     25  C   UNL     1      -1.300  13.108  22.937  0.00  0.00    +0.000 A 
ATOM     26  C   UNL     1      -0.137  13.687  22.413  0.00  0.00    +0.000 A 
BRANCH  21  28
ATOM     27  C   UNL     1       1.206  16.187  20.781  0.00  0.00    +0.000 C 
ATOM     28  O   UNL     1       1.228  15.709  22.121  0.00  0.00    +0.000 OA
ENDBRANCH  21  28
ENDBRANCH  20  25
ENDBRANCH   1  20
BRANCH   9  29
ATOM     29  C   UNL     1      -2.170  12.357  20.062  0.00  0.00    +0.000 C 
BRANCH  29  30
ATOM     30  C   UNL     1      -3.345  11.983  19.182  0.00  0.00    +0.000 A 
ATOM     31  C   UNL     1      -3.152  11.328  17.956  0.00  0.00    +0.000 A 
ATOM     32  C   UNL     1      -4.238  11.056  17.121  0.00  0.00    +0.000 A 
ATOM     33  C   UNL     1      -5.527  11.416  17.509  0.00  0.00    +0.000 A 
ATOM     34  C   UNL     1      -5.734  12.028  18.742  0.00  0.00    +0.000 A 
ATOM     35  C   UNL     1      -4.650  12.308  19.576  0.00  0.00    +0.000 A 
ENDBRANCH  29  30
ENDBRANCH   9  29
TORSDOF 7
ENDMDL
MODEL 5
REMARK VINA RESULT:      -7.8      2.242      4.440
REMARK  Name = 
REMARK  9 active torsions:
REMARK  status: ('A' for Active; 'I' for Inactive)
REMARK    1  A    between atoms: C_1  and  O_2
REMARK    2  A    between atoms: O_2  and  C_3
REMARK    3  A    between atoms: C_7  and  C_8
REMARK    4  A    between atoms: C_8  and  N_9
REMARK    5  A    between atoms: C_14  and  C_16
REMARK    6  A    between atoms: C_19  and  S_20
REMARK    7  A    between atoms: S_20  and  C_21
REMARK    8  A    between atoms: C_27  and  C_28
REMARK    9  A    between atoms: C_28  and  C_29
REMARK                            x       y       z     vdW  Elec       q    Type
REMARK                         _______ _______ _______ _____ _____    ______ ____
ROOT
ATOM      1  N   UNL     1      -0.852  12.473  20.199  0.00  0.00    +0.000 N 
ATOM      2  C   UNL     1      -0.877  11.394  19.325  0.00  0.00    +0.000 C 
ATOM      3  O   UNL     1      -1.291  11.479  18.163  0.00  0.00    +0.000 OA
ATOM      4  C   UNL     1      -0.560  10.016  19.892  0.00  0.00    +0.000 C 
ATOM      5  N   UNL     1       0.136   9.960  21.170  0.00  0.00    +0.000 N 
ATOM      6  C   UNL     1       1.193   9.109  21.490  0.00  0.00    +0.000 C 
ATOM      7  O   UNL     1       1.860   9.257  22.515  0.00  0.00    +0.000 OA
ATOM      8  C   UNL     1      -0.262  11.004  22.116  0.00  0.00    +0.000 C 
ATOM      9  C   UNL     1      -0.069  12.396  21.470  0.00  0.00    +0.000 C 
ENDROOT
BRANCH   6  10
ATOM     10  C   UNL     1       1.583   7.980  20.591  0.00  0.00    +0.000 A 
ATOM     11  C   UNL     1       1.380   6.669  21.054  0.00  0.00    +0.000 A 
ATOM     12  C   UNL     1       1.722   5.569  20.262  0.00  0.00    +0.000 A 
ATOM     13  C   UNL     1       2.278   5.785  19.001  0.00  0.00    +0.000 A 
ATOM     14  C   UNL     1       2.486   7.078  18.521  0.00  0.00    +0.000 A 
ATOM     15  C   UNL     1       2.087   8.168  19.296  0.00  0.00    +0.000 A 
BRANCH  13  16
ATOM     16  S   UNL     1       2.703   4.410  17.958  0.00  0.00    +0.000 S 
ATOM     17  C   UNL     1       3.320   3.224  19.127  0.00  0.00    +0.000 C 
ATOM     18  O   UNL     1       1.475   3.897  17.389  0.00  0.00    +0.000 OA
ATOM     19  O   UNL     1       3.806   4.828  17.110  0.00  0.00    +0.000 OA
ENDBRANCH  13  16
ENDBRANCH   6  10
BRANCH   1  20
ATOM     20  C   UNL     1      -1.511  13.697  19.747  0.00  0.00    +0.000 C 
BRANCH  20  25
ATOM     21  C   UNL     1      -5.117  12.767  20.554  0.00  0.00    +0.000 A 
ATOM     22  C   UNL     1      -5.604  13.965  21.081  0.00  0.00    +0.000 A 
ATOM     23  C   UNL     1      -4.751  15.059  21.238  0.00  0.00    +0.000 A 
ATOM     24  C   UNL     1      -3.421  14.961  20.845  0.00  0.00    +0.000 A 
ATOM     25  C   UNL     1      -2.922  13.775  20.276  0.00  0.00    +0.000 A 
ATOM     26  C   UNL     1      -3.780  12.673  20.168  0.00  0.00    +0.000 A 
BRANCH  21  28
ATOM     27  C   UNL     1      -7.230  11.918  21.222  0.00  0.00    +0.000 C 
ATOM     28  O   UNL     1      -6.048  11.769  20.444  0.00  0.00    +0.000 OA
ENDBRANCH  21  28
ENDBRANCH  20  25
ENDBRANCH   1  20
BRANCH   9  29
ATOM     29  C   UNL     1      -0.332  13.527  22.497  0.00  0.00    +0.000 C 
BRANCH  29  30
ATOM     30  C   UNL     1      -1.615  13.374  23.287  0.00  0.00    +0.000 A 
ATOM     31  C   UNL     1      -2.357  12.184  23.241  0.00  0.00    +0.000 A 
ATOM     32  C   UNL     1      -3.576  12.083  23.916  0.00  0.00    +0.000 A 
ATOM     33  C   UNL     1      -4.056  13.159  24.659  0.00  0.00    +0.000 A 
ATOM     34  C   UNL     1      -3.307  14.331  24.746  0.00  0.00    +0.000 A 
ATOM     35  C   UNL     1      -2.092  14.437  24.067  0.00  0.00    +0.000 A 
ENDBRANCH  29  30
ENDBRANCH   9  29
TORSDOF 7
ENDMDL
MODEL 6
REMARK VINA RESULT:      -7.8      1.299      1.689
REMARK  Name = 
REMARK  9 active torsions:
REMARK  status: ('A' for Active; 'I' for Inactive)
REMARK    1  A    between atoms: C_1  and  O_2
REMARK    2  A    between atoms: O_2  and  C_3
REMARK    3  A    between atoms: C_7  and  C_8
REMARK    4  A    between atoms: C_8  and  N_9
REMARK    5  A    between atoms: C_14  and  C_16
REMARK    6  A    between atoms: C_19  and  S_20
REMARK    7  A    between atoms: S_20  and  C_21
REMARK    8  A    between atoms: C_27  and  C_28
REMARK    9  A    between atoms: C_28  and  C_29
REMARK                            x       y       z     vdW  Elec       q    Type
REMARK                         _______ _______ _______ _____ _____    ______ ____
ROOT
ATOM      1  N   UNL     1      -1.353  11.524  22.099  0.00  0.00    +0.000 N 
ATOM      2  C   UNL     1      -0.293  10.668  22.365  0.00  0.00    +0.000 C 
ATOM      3  O   UNL     1      -0.053  10.225  23.494  0.00  0.00    +0.000 OA
ATOM      4  C   UNL     1       0.718  10.425  21.252  0.00  0.00    +0.000 C 
ATOM      5  N   UNL     1       0.312  10.752  19.893  0.00  0.00    +0.000 N 
ATOM      6  C   UNL     1       0.548   9.977  18.758  0.00  0.00    +0.000 C 
ATOM      7  O   UNL     1       0.002  10.218  17.681  0.00  0.00    +0.000 OA
ATOM      8  C   UNL     1      -0.532  11.944  19.790  0.00  0.00    +0.000 C 
ATOM      9  C   UNL     1      -1.780  11.780  20.689  0.00  0.00    +0.000 C 
ENDROOT
BRANCH   6  10
ATOM     10  C   UNL     1       1.466   8.796  18.799  0.00  0.00    +0.000 A 
ATOM     11  C   UNL     1       2.314   8.585  17.699  0.00  0.00    +0.000 A 
ATOM     12  C   UNL     1       3.197   7.501  17.675  0.00  0.00    +0.000 A 
ATOM     13  C   UNL     1       3.223   6.620  18.757  0.00  0.00    +0.000 A 
ATOM     14  C   UNL     1       2.392   6.814  19.860  0.00  0.00    +0.000 A 
ATOM     15  C   UNL     1       1.557   7.932  19.899  0.00  0.00    +0.000 A 
BRANCH  13  16
ATOM     16  S   UNL     1       4.349   5.245  18.770  0.00  0.00    +0.000 S 
ATOM     17  C   UNL     1       3.350   3.944  19.452  0.00  0.00    +0.000 C 
ATOM     18  O   UNL     1       4.655   4.916  17.394  0.00  0.00    +0.000 OA
ATOM     19  O   UNL     1       5.404   5.552  19.720  0.00  0.00    +0.000 OA
ENDBRANCH  13  16
ENDBRANCH   6  10
BRANCH   1  20
ATOM     20  C   UNL     1      -2.085  12.039  23.254  0.00  0.00    +0.000 C 
BRANCH  20  25
ATOM     21  C   UNL     1      -2.500  15.694  24.249  0.00  0.00    +0.000 A 
ATOM     22  C   UNL     1      -1.346  16.264  23.708  0.00  0.00    +0.000 A 
ATOM     23  C   UNL     1      -0.397  15.460  23.077  0.00  0.00    +0.000 A 
ATOM     24  C   UNL     1      -0.615  14.090  22.964  0.00  0.00    +0.000 A 
ATOM     25  C   UNL     1      -1.790  13.504  23.469  0.00  0.00    +0.000 A 
ATOM     26  C   UNL     1      -2.710  14.319  24.140  0.00  0.00    +0.000 A 
BRANCH  21  28
ATOM     27  C   UNL     1      -2.795  17.823  25.255  0.00  0.00    +0.000 C 
ATOM     28  O   UNL     1      -3.357  16.584  24.839  0.00  0.00    +0.000 OA
ENDBRANCH  21  28
ENDBRANCH  20  25
ENDBRANCH   1  20
BRANCH   9  29
ATOM     29  C   UNL     1      -2.770  12.954  20.484  0.00  0.00    +0.000 C 
BRANCH  29  30
ATOM     30  C   UNL     1      -4.198  12.533  20.205  0.00  0.00    +0.000 A 
ATOM     31  C   UNL     1      -5.188  12.629  21.193  0.00  0.00    +0.000 A 
ATOM     32  C   UNL     1      -6.483  12.168  20.946  0.00  0.00    +0.000 A 
ATOM     33  C   UNL     1      -6.808  11.627  19.703  0.00  0.00    +0.000 A 
ATOM     34  C   UNL     1      -5.844  11.565  18.701  0.00  0.00    +0.000 A 
ATOM     35  C   UNL     1      -4.546  12.019  18.947  0.00  0.00    +0.000 A 
ENDBRANCH  29  30
ENDBRANCH   9  29
TORSDOF 7
ENDMDL
MODEL 7
REMARK VINA RESULT:      -7.8      2.751      5.372
REMARK  Name = 
REMARK  9 active torsions:
REMARK  status: ('A' for Active; 'I' for Inactive)
REMARK    1  A    between atoms: C_1  and  O_2
REMARK    2  A    between atoms: O_2  and  C_3
REMARK    3  A    between atoms: C_7  and  C_8
REMARK    4  A    between atoms: C_8  and  N_9
REMARK    5  A    between atoms: C_14  and  C_16
REMARK    6  A    between atoms: C_19  and  S_20
REMARK    7  A    between atoms: S_20  and  C_21
REMARK    8  A    between atoms: C_27  and  C_28
REMARK    9  A    between atoms: C_28  and  C_29
REMARK                            x       y       z     vdW  Elec       q    Type
REMARK                         _______ _______ _______ _____ _____    ______ ____
ROOT
ATOM      1  N   UNL     1      -0.742  12.719  20.045  0.00  0.00    +0.000 N 
ATOM      2  C   UNL     1      -0.742  11.643  19.167  0.00  0.00    +0.000 C 
ATOM      3  O   UNL     1      -1.078  11.742  17.983  0.00  0.00    +0.000 OA
ATOM      4  C   UNL     1      -0.498  10.256  19.749  0.00  0.00    +0.000 C 
ATOM      5  N   UNL     1       0.114  10.178  21.068  0.00  0.00    +0.000 N 
ATOM      6  C   UNL     1       1.124   9.298  21.451  0.00  0.00    +0.000 C 
ATOM      7  O   UNL     1       1.729   9.426  22.517  0.00  0.00    +0.000 OA
ATOM      8  C   UNL     1      -0.315  11.231  21.990  0.00  0.00    +0.000 C 
ATOM      9  C   UNL     1      -0.043  12.618  21.363  0.00  0.00    +0.000 C 
ENDROOT
BRANCH   6  10
ATOM     10  C   UNL     1       1.540   8.160  20.573  0.00  0.00    +0.000 A 
ATOM     11  C   UNL     1       1.370   6.855  21.064  0.00  0.00    +0.000 A 
ATOM     12  C   UNL     1       1.737   5.747  20.294  0.00  0.00    +0.000 A 
ATOM     13  C   UNL     1       2.284   5.950  19.027  0.00  0.00    +0.000 A 
ATOM     14  C   UNL     1       2.459   7.238  18.519  0.00  0.00    +0.000 A 
ATOM     15  C   UNL     1       2.035   8.334  19.273  0.00  0.00    +0.000 A 
BRANCH  13  16
ATOM     16  S   UNL     1       2.740   4.565  18.010  0.00  0.00    +0.000 S 
ATOM     17  C   UNL     1       3.312   3.387  19.210  0.00  0.00    +0.000 C 
ATOM     18  O   UNL     1       1.530   4.052  17.403  0.00  0.00    +0.000 OA
ATOM     19  O   UNL     1       3.873   4.972  17.199  0.00  0.00    +0.000 OA
ENDBRANCH  13  16
ENDBRANCH   6  10
BRANCH   1  20
ATOM     20  C   UNL     1      -1.338  13.962  19.557  0.00  0.00    +0.000 C 
BRANCH  20  25
ATOM     21  C   UNL     1       1.966  15.294  18.203  0.00  0.00    +0.000 A 
ATOM     22  C   UNL     1       1.796  16.671  18.356  0.00  0.00    +0.000 A 
ATOM     23  C   UNL     1       0.588  17.180  18.836  0.00  0.00    +0.000 A 
ATOM     24  C   UNL     1      -0.439  16.308  19.187  0.00  0.00    +0.000 A 
ATOM     25  C   UNL     1      -0.272  14.916  19.076  0.00  0.00    +0.000 A 
ATOM     26  C   UNL     1       0.930  14.426  18.549  0.00  0.00    +0.000 A 
BRANCH  21  28
ATOM     27  C   UNL     1       4.179  14.601  18.703  0.00  0.00    +0.000 C 
ATOM     28  O   UNL     1       3.193  14.917  17.727  0.00  0.00    +0.000 OA
ENDBRANCH  21  28
ENDBRANCH  20  25
ENDBRANCH   1  20
BRANCH   9  29
ATOM     29  C   UNL     1      -0.341  13.753  22.375  0.00  0.00    +0.000 C 
BRANCH  29  30
ATOM     30  C   UNL     1       0.645  14.902  22.341  0.00  0.00    +0.000 A 
ATOM     31  C   UNL     1       0.261  16.199  22.714  0.00  0.00    +0.000 A 
ATOM     32  C   UNL     1       1.159  17.263  22.608  0.00  0.00    +0.000 A 
ATOM     33  C   UNL     1       2.456  17.040  22.147  0.00  0.00    +0.000 A 
ATOM     34  C   UNL     1       2.861  15.750  21.814  0.00  0.00    +0.000 A 
ATOM     35  C   UNL     1       1.963  14.686  21.913  0.00  0.00    +0.000 A 
ENDBRANCH  29  30
ENDBRANCH   9  29
TORSDOF 7
ENDMDL
MODEL 8
REMARK VINA RESULT:      -7.8      0.966      1.891
REMARK  Name = 
REMARK  9 active torsions:
REMARK  status: ('A' for Active; 'I' for Inactive)
REMARK    1  A    between atoms: C_1  and  O_2
REMARK    2  A    between atoms: O_2  and  C_3
REMARK    3  A    between atoms: C_7  and  C_8
REMARK    4  A    between atoms: C_8  and  N_9
REMARK    5  A    between atoms: C_14  and  C_16
REMARK    6  A    between atoms: C_19  and  S_20
REMARK    7  A    between atoms: S_20  and  C_21
REMARK    8  A    between atoms: C_27  and  C_28
REMARK    9  A    between atoms: C_28  and  C_29
REMARK                            x       y       z     vdW  Elec       q    Type
REMARK                         _______ _______ _______ _____ _____    ______ ____
ROOT
ATOM      1  N   UNL     1      -0.800  11.083  21.808  0.00  0.00    +0.000 N 
ATOM      2  C   UNL     1       0.251  10.235  22.130  0.00  0.00    +0.000 C 
ATOM      3  O   UNL     1       0.472   9.844  23.281  0.00  0.00    +0.000 OA
ATOM      4  C   UNL     1       1.277   9.936  21.044  0.00  0.00    +0.000 C 
ATOM      5  N   UNL     1       0.893  10.202  19.665  0.00  0.00    +0.000 N 
ATOM      6  C   UNL     1       1.142   9.373  18.571  0.00  0.00    +0.000 C 
ATOM      7  O   UNL     1       0.613   9.567  17.476  0.00  0.00    +0.000 OA
ATOM      8  C   UNL     1       0.057  11.391  19.494  0.00  0.00    +0.000 C 
ATOM      9  C   UNL     1      -1.205  11.275  20.381  0.00  0.00    +0.000 C 
ENDROOT
BRANCH   6  10
ATOM     10  C   UNL     1       2.053   8.192  18.681  0.00  0.00    +0.000 A 
ATOM     11  C   UNL     1       1.881   7.329  19.776  0.00  0.00    +0.000 A 
ATOM     12  C   UNL     1       2.699   6.206  19.936  0.00  0.00    +0.000 A 
ATOM     13  C   UNL     1       3.699   5.953  18.997  0.00  0.00    +0.000 A 
ATOM     14  C   UNL     1       3.884   6.795  17.901  0.00  0.00    +0.000 A 
ATOM     15  C   UNL     1       3.024   7.880  17.719  0.00  0.00    +0.000 A 
BRANCH  13  16
ATOM     16  S   UNL     1       4.742   4.522  19.157  0.00  0.00    +0.000 S 
ATOM     17  C   UNL     1       4.943   4.010  17.468  0.00  0.00    +0.000 C 
ATOM     18  O   UNL     1       6.024   4.969  19.657  0.00  0.00    +0.000 OA
ATOM     19  O   UNL     1       3.980   3.500  19.852  0.00  0.00    +0.000 OA
ENDBRANCH  13  16
ENDBRANCH   6  10
BRANCH   1  20
ATOM     20  C   UNL     1      -1.546  11.654  22.927  0.00  0.00    +0.000 C 
BRANCH  20  25
ATOM     21  C   UNL     1       0.110  15.073  22.625  0.00  0.00    +0.000 A 
ATOM     22  C   UNL     1      -0.764  15.873  23.364  0.00  0.00    +0.000 A 
ATOM     23  C   UNL     1      -1.927  15.325  23.908  0.00  0.00    +0.000 A 
ATOM     24  C   UNL     1      -2.201  13.972  23.734  0.00  0.00    +0.000 A 
ATOM     25  C   UNL     1      -1.313  13.142  23.026  0.00  0.00    +0.000 A 
ATOM     26  C   UNL     1      -0.175  13.719  22.448  0.00  0.00    +0.000 A 
BRANCH  21  28
ATOM     27  C   UNL     1       2.295  14.900  21.716  0.00  0.00    +0.000 C 
ATOM     28  O   UNL     1       1.215  15.722  22.146  0.00  0.00    +0.000 OA
ENDBRANCH  21  28
ENDBRANCH  20  25
ENDBRANCH   1  20
BRANCH   9  29
ATOM     29  C   UNL     1      -2.186  12.443  20.107  0.00  0.00    +0.000 C 
BRANCH  29  30
ATOM     30  C   UNL     1      -3.390  12.071  19.268  0.00  0.00    +0.000 A 
ATOM     31  C   UNL     1      -4.687  12.434  19.660  0.00  0.00    +0.000 A 
ATOM     32  C   UNL     1      -5.794  12.021  18.915  0.00  0.00    +0.000 A 
ATOM     33  C   UNL     1      -5.616  11.260  17.761  0.00  0.00    +0.000 A 
ATOM     34  C   UNL     1      -4.331  10.929  17.340  0.00  0.00    +0.000 A 
ATOM     35  C   UNL     1      -3.223  11.335  18.086  0.00  0.00    +0.000 A 
ENDBRANCH  29  30
ENDBRANCH   9  29
TORSDOF 7
ENDMDL
MODEL 9
REMARK VINA RESULT:      -7.7      0.728      1.421
REMARK  Name = 
REMARK  9 active torsions:
REMARK  status: ('A' for Active; 'I' for Inactive)
REMARK    1  A    between atoms: C_1  and  O_2
REMARK    2  A    between atoms: O_2  and  C_3
REMARK    3  A    between atoms: C_7  and  C_8
REMARK    4  A    between atoms: C_8  and  N_9
REMARK    5  A    between atoms: C_14  and  C_16
REMARK    6  A    between atoms: C_19  and  S_20
REMARK    7  A    between atoms: S_20  and  C_21
REMARK    8  A    between atoms: C_27  and  C_28
REMARK    9  A    between atoms: C_28  and  C_29
REMARK                            x       y       z     vdW  Elec       q    Type
REMARK                         _______ _______ _______ _____ _____    ______ ____
ROOT
ATOM      1  N   UNL     1      -0.896  11.212  21.676  0.00  0.00    +0.000 N 
ATOM      2  C   UNL     1       0.156  10.373  22.021  0.00  0.00    +0.000 C 
ATOM      3  O   UNL     1       0.371  10.008  23.182  0.00  0.00    +0.000 OA
ATOM      4  C   UNL     1       1.188  10.055  20.947  0.00  0.00    +0.000 C 
ATOM      5  N   UNL     1       0.810  10.290  19.561  0.00  0.00    +0.000 N 
ATOM      6  C   UNL     1       1.067   9.440  18.486  0.00  0.00    +0.000 C 
ATOM      7  O   UNL     1       0.543   9.609  17.384  0.00  0.00    +0.000 OA
ATOM      8  C   UNL     1      -0.028  11.474  19.361  0.00  0.00    +0.000 C 
ATOM      9  C   UNL     1      -1.294  11.373  20.244  0.00  0.00    +0.000 C 
ENDROOT
BRANCH   6  10
ATOM     10  C   UNL     1       1.980   8.264  18.625  0.00  0.00    +0.000 A 
ATOM     11  C   UNL     1       1.767   7.390  19.704  0.00  0.00    +0.000 A 
ATOM     12  C   UNL     1       2.585   6.271  19.890  0.00  0.00    +0.000 A 
ATOM     13  C   UNL     1       3.626   6.032  18.993  0.00  0.00    +0.000 A 
ATOM     14  C   UNL     1       3.853   6.886  17.913  0.00  0.00    +0.000 A 
ATOM     15  C   UNL     1       2.995   7.966  17.704  0.00  0.00    +0.000 A 
BRANCH  13  16
ATOM     16  S   UNL     1       4.671   4.607  19.186  0.00  0.00    +0.000 S 
ATOM     17  C   UNL     1       4.938   4.104  17.503  0.00  0.00    +0.000 C 
ATOM     18  O   UNL     1       5.931   5.059  19.735  0.00  0.00    +0.000 OA
ATOM     19  O   UNL     1       3.890   3.577  19.848  0.00  0.00    +0.000 OA
ENDBRANCH  13  16
ENDBRANCH   6  10
BRANCH   1  20
ATOM     20  C   UNL     1      -1.650  11.805  22.779  0.00  0.00    +0.000 C 
BRANCH  20  25
ATOM     21  C   UNL     1      -1.592  15.387  24.077  0.00  0.00    +0.000 A 
ATOM     22  C   UNL     1      -0.527  15.929  23.356  0.00  0.00    +0.000 A 
ATOM     23  C   UNL     1       0.219  15.122  22.495  0.00  0.00    +0.000 A 
ATOM     24  C   UNL     1      -0.117  13.782  22.338  0.00  0.00    +0.000 A 
ATOM     25  C   UNL     1      -1.211  13.227  23.027  0.00  0.00    +0.000 A 
ATOM     26  C   UNL     1      -1.919  14.040  23.921  0.00  0.00    +0.000 A 
BRANCH  21  28
ATOM     27  C   UNL     1      -1.683  17.578  24.985  0.00  0.00    +0.000 C 
ATOM     28  O   UNL     1      -2.249  16.276  24.885  0.00  0.00    +0.000 OA
ENDBRANCH  21  28
ENDBRANCH  20  25
ENDBRANCH   1  20
BRANCH   9  29
ATOM     29  C   UNL     1      -2.277  12.532  19.941  0.00  0.00    +0.000 C 
BRANCH  29  30
ATOM     30  C   UNL     1      -3.583  12.102  19.308  0.00  0.00    +0.000 A 
ATOM     31  C   UNL     1      -3.606  11.440  18.071  0.00  0.00    +0.000 A 
ATOM     32  C   UNL     1      -4.821  11.114  17.464  0.00  0.00    +0.000 A 
ATOM     33  C   UNL     1      -6.024  11.428  18.094  0.00  0.00    +0.000 A 
ATOM     34  C   UNL     1      -6.013  12.047  19.341  0.00  0.00    +0.000 A 
ATOM     35  C   UNL     1      -4.800  12.379  19.948  0.00  0.00    +0.000 A 
ENDBRANCH  29  30
ENDBRANCH   9  29
TORSDOF 7
ENDMDL
