MODEL 1
REMARK VINA RESULT:      -7.9      0.000      0.000
REMARK  Name = 
REMARK  10 active torsions:
REMARK  status: ('A' for Active; 'I' for Inactive)
REMARK    1  A    between atoms: C_2  and  C_3
REMARK    2  A    between atoms: C_3  and  O_4
REMARK    3  A    between atoms: O_4  and  C_5
REMARK    4  A    between atoms: C_8  and  C_9
REMARK    5  A    between atoms: C_9  and  N_10
REMARK    6  A    between atoms: N_10  and  C_11
REMARK    7  A    between atoms: N_14  and  C_15
REMARK    8  A    between atoms: C_15  and  C_16
REMARK    9  A    between atoms: C_20  and  C_21
REMARK   10  A    between atoms: C_23  and  C_24
REMARK                            x       y       z     vdW  Elec       q    Type
REMARK                         _______ _______ _______ _____ _____    ______ ____
ROOT
ATOM      1  C   UNL     1       1.841   8.183  19.474  0.00  0.00    +0.000 A 
ATOM      2  C   UNL     1       2.190   8.330  18.119  0.00  0.00    +0.000 A 
ATOM      3  N   UNL     1       1.657   9.434  17.584  0.00  0.00    +0.000 NA
ATOM      4  N   UNL     1       0.968   9.981  18.612  0.00  0.00    +0.000 N 
ATOM      5  C   UNL     1       1.029   9.247  19.758  0.00  0.00    +0.000 A 
ENDROOT
BRANCH   1   6
ATOM      6  N   UNL     1       2.227   7.203  20.316  0.00  0.00    +0.000 N 
ATOM      7  H   UNL     1       3.128   7.329  20.783  0.00  0.00    +0.000 HD
BRANCH   6   8
ATOM      8  C   UNL     1       1.988   5.810  19.971  0.00  0.00    +0.000 C 
BRANCH   8  12
ATOM      9  C   UNL     1       5.254   4.363  17.514  0.00  0.00    +0.000 A 
ATOM     10  C   UNL     1       3.920   4.151  17.124  0.00  0.00    +0.000 A 
ATOM     11  C   UNL     1       2.861   4.607  17.914  0.00  0.00    +0.000 A 
ATOM     12  C   UNL     1       3.114   5.266  19.130  0.00  0.00    +0.000 A 
ATOM     13  C   UNL     1       4.438   5.493  19.503  0.00  0.00    +0.000 A 
ATOM     14  C   UNL     1       5.501   5.073  18.694  0.00  0.00    +0.000 A 
ATOM     15 CL   UNL     1       7.067   5.604  19.218  0.00  0.00    +0.000 Cl
BRANCH   9  16
ATOM     16  O   UNL     1       6.168   3.821  16.644  0.00  0.00    +0.000 OA
BRANCH  16  17
ATOM     17  C   UNL     1       6.812   4.742  15.768  0.00  0.00    +0.000 C 
BRANCH  17  19
ATOM     18  C   UNL     1       6.174   3.819  13.523  0.00  0.00    +0.000 C 
ATOM     19  C   UNL     1       6.086   4.781  14.453  0.00  0.00    +0.000 C 
ENDBRANCH  17  19
ENDBRANCH  16  17
ENDBRANCH   9  16
ENDBRANCH   8  12
ENDBRANCH   6   8
ENDBRANCH   1   6
BRANCH   4  20
ATOM     20  C   UNL     1       0.249  11.223  18.411  0.00  0.00    +0.000 C 
BRANCH  20  21
ATOM     21  C   UNL     1      -1.180  11.152  18.922  0.00  0.00    +0.000 C 
ATOM     22  O   UNL     1      -1.425  11.533  20.072  0.00  0.00    +0.000 OA
ATOM     23  N   UNL     1      -2.182  10.690  18.087  0.00  0.00    +0.000 N 
ATOM     24  C   UNL     1      -3.574  10.715  18.535  0.00  0.00    +0.000 C 
ATOM     25  C   UNL     1      -4.439  11.449  17.495  0.00  0.00    +0.000 C 
ATOM     26  C   UNL     1      -5.904  11.436  17.904  0.00  0.00    +0.000 C 
ATOM     27  O   UNL     1      -4.321  10.808  16.209  0.00  0.00    +0.000 OA
ATOM     28  C   UNL     1      -2.955  10.831  15.738  0.00  0.00    +0.000 C 
ATOM     29  C   UNL     1      -2.921  10.130  14.387  0.00  0.00    +0.000 C 
ATOM     30  C   UNL     1      -2.020  10.125  16.742  0.00  0.00    +0.000 C 
ENDBRANCH  20  21
ENDBRANCH   4  20
TORSDOF 8
ENDMDL
MODEL 2
REMARK VINA RESULT:      -7.8      0.956      1.286
REMARK  Name = 
REMARK  10 active torsions:
REMARK  status: ('A' for Active; 'I' for Inactive)
REMARK    1  A    between atoms: C_2  and  C_3
REMARK    2  A    between atoms: C_3  and  O_4
REMARK    3  A    between atoms: O_4  and  C_5
REMARK    4  A    between atoms: C_8  and  C_9
REMARK    5  A    between atoms: C_9  and  N_10
REMARK    6  A    between atoms: N_10  and  C_11
REMARK    7  A    between atoms: N_14  and  C_15
REMARK    8  A    between atoms: C_15  and  C_16
REMARK    9  A    between atoms: C_20  and  C_21
REMARK   10  A    between atoms: C_23  and  C_24
REMARK                            x       y       z     vdW  Elec       q    Type
REMARK                         _______ _______ _______ _____ _____    ______ ____
ROOT
ATOM      1  C   UNL     1       1.716   8.013  20.218  0.00  0.00    +0.000 A 
ATOM      2  C   UNL     1       0.870   8.543  21.209  0.00  0.00    +0.000 A 
ATOM      3  N   UNL     1       0.163   9.585  20.757  0.00  0.00    +0.000 NA
ATOM      4  N   UNL     1       0.572   9.709  19.473  0.00  0.00    +0.000 N 
ATOM      5  C   UNL     1       1.525   8.803  19.116  0.00  0.00    +0.000 A 
ENDROOT
BRANCH   1   6
ATOM      6  N   UNL     1       2.539   6.951  20.327  0.00  0.00    +0.000 N 
ATOM      7  H   UNL     1       3.540   7.134  20.232  0.00  0.00    +0.000 HD
BRANCH   6   8
ATOM      8  C   UNL     1       2.165   5.677  19.732  0.00  0.00    +0.000 C 
BRANCH   8  12
ATOM      9  C   UNL     1       5.027   4.567  16.670  0.00  0.00    +0.000 A 
ATOM     10  C   UNL     1       3.840   3.832  16.837  0.00  0.00    +0.000 A 
ATOM     11  C   UNL     1       2.916   4.179  17.826  0.00  0.00    +0.000 A 
ATOM     12  C   UNL     1       3.171   5.256  18.692  0.00  0.00    +0.000 A 
ATOM     13  C   UNL     1       4.339   5.995  18.511  0.00  0.00    +0.000 A 
ATOM     14  C   UNL     1       5.248   5.677  17.494  0.00  0.00    +0.000 A 
ATOM     15 CL   UNL     1       6.545   6.812  17.296  0.00  0.00    +0.000 Cl
BRANCH   9  16
ATOM     16  O   UNL     1       5.839   4.073  15.678  0.00  0.00    +0.000 OA
BRANCH  16  17
ATOM     17  C   UNL     1       5.541   4.513  14.357  0.00  0.00    +0.000 C 
BRANCH  17  19
ATOM     18  C   UNL     1       5.770   3.249  12.201  0.00  0.00    +0.000 C 
ATOM     19  C   UNL     1       6.290   3.672  13.363  0.00  0.00    +0.000 C 
ENDBRANCH  17  19
ENDBRANCH  16  17
ENDBRANCH   9  16
ENDBRANCH   8  12
ENDBRANCH   6   8
ENDBRANCH   1   6
BRANCH   4  20
ATOM     20  C   UNL     1       0.006  10.751  18.640  0.00  0.00    +0.000 C 
BRANCH  20  21
ATOM     21  C   UNL     1      -1.449  11.031  18.971  0.00  0.00    +0.000 C 
ATOM     22  O   UNL     1      -1.725  11.581  20.044  0.00  0.00    +0.000 OA
ATOM     23  N   UNL     1      -2.434  10.692  18.062  0.00  0.00    +0.000 N 
ATOM     24  C   UNL     1      -3.827  11.050  18.327  0.00  0.00    +0.000 C 
ATOM     25  C   UNL     1      -4.401  11.824  17.126  0.00  0.00    +0.000 C 
ATOM     26  C   UNL     1      -5.869  12.156  17.347  0.00  0.00    +0.000 C 
ATOM     27  O   UNL     1      -4.290  11.032  15.926  0.00  0.00    +0.000 OA
ATOM     28  C   UNL     1      -2.910  10.724  15.630  0.00  0.00    +0.000 C 
ATOM     29  C   UNL     1      -2.888   9.883  14.361  0.00  0.00    +0.000 C 
ATOM     30  C   UNL     1      -2.259   9.958  16.802  0.00  0.00    +0.000 C 
ENDBRANCH  20  21
ENDBRANCH   4  20
TORSDOF 8
ENDMDL
MODEL 3
REMARK VINA RESULT:      -7.8      2.778      9.888
REMARK  Name = 
REMARK  10 active torsions:
REMARK  status: ('A' for Active; 'I' for Inactive)
REMARK    1  A    between atoms: C_2  and  C_3
REMARK    2  A    between atoms: C_3  and  O_4
REMARK    3  A    between atoms: O_4  and  C_5
REMARK    4  A    between atoms: C_8  and  C_9
REMARK    5  A    between atoms: C_9  and  N_10
REMARK    6  A    between atoms: N_10  and  C_11
REMARK    7  A    between atoms: N_14  and  C_15
REMARK    8  A    between atoms: C_15  and  C_16
REMARK    9  A    between atoms: C_20  and  C_21
REMARK   10  A    between atoms: C_23  and  C_24
REMARK                            x       y       z     vdW  Elec       q    Type
REMARK                         _______ _______ _______ _____ _____    ______ ____
ROOT
ATOM      1  C   UNL     1       1.640   8.352  19.545  0.00  0.00    +0.000 A 
ATOM      2  C   UNL     1       2.191   8.187  18.261  0.00  0.00    +0.000 A 
ATOM      3  N   UNL     1       2.915   7.065  18.170  0.00  0.00    +0.000 NA
ATOM      4  N   UNL     1       2.816   6.525  19.406  0.00  0.00    +0.000 N 
ATOM      5  C   UNL     1       2.082   7.280  20.272  0.00  0.00    +0.000 A 
ENDROOT
BRANCH   1   6
ATOM      6  N   UNL     1       0.841   9.352  19.970  0.00  0.00    +0.000 N 
ATOM      7  H   UNL     1      -0.049   9.080  20.392  0.00  0.00    +0.000 HD
BRANCH   6   8
ATOM      8  C   UNL     1       0.714  10.567  19.180  0.00  0.00    +0.000 C 
BRANCH   8  12
ATOM      9  C   UNL     1      -3.394  11.375  18.053  0.00  0.00    +0.000 A 
ATOM     10  C   UNL     1      -2.816  12.026  19.158  0.00  0.00    +0.000 A 
ATOM     11  C   UNL     1      -1.495  11.766  19.532  0.00  0.00    +0.000 A 
ATOM     12  C   UNL     1      -0.727  10.826  18.823  0.00  0.00    +0.000 A 
ATOM     13  C   UNL     1      -1.297  10.197  17.717  0.00  0.00    +0.000 A 
ATOM     14  C   UNL     1      -2.606  10.486  17.314  0.00  0.00    +0.000 A 
ATOM     15 CL   UNL     1      -3.083   9.757  15.814  0.00  0.00    +0.000 Cl
BRANCH   9  16
ATOM     16  O   UNL     1      -4.708  11.719  17.845  0.00  0.00    +0.000 OA
BRANCH  16  17
ATOM     17  C   UNL     1      -5.673  10.758  18.261  0.00  0.00    +0.000 C 
BRANCH  17  19
ATOM     18  C   UNL     1      -6.359  11.832  20.423  0.00  0.00    +0.000 C 
ATOM     19  C   UNL     1      -6.662  11.404  19.188  0.00  0.00    +0.000 C 
ENDBRANCH  17  19
ENDBRANCH  16  17
ENDBRANCH   9  16
ENDBRANCH   8  12
ENDBRANCH   6   8
ENDBRANCH   1   6
BRANCH   4  20
ATOM     20  C   UNL     1       3.479   5.269  19.694  0.00  0.00    +0.000 C 
BRANCH  20  21
ATOM     21  C   UNL     1       3.870   4.519  18.433  0.00  0.00    +0.000 C 
ATOM     22  O   UNL     1       3.083   3.692  17.958  0.00  0.00    +0.000 OA
ATOM     23  N   UNL     1       5.082   4.791  17.824  0.00  0.00    +0.000 N 
ATOM     24  C   UNL     1       5.421   4.149  16.554  0.00  0.00    +0.000 C 
ATOM     25  C   UNL     1       5.813   5.221  15.521  0.00  0.00    +0.000 C 
ATOM     26  C   UNL     1       6.232   4.579  14.208  0.00  0.00    +0.000 C 
ATOM     27  O   UNL     1       6.917   6.007  16.014  0.00  0.00    +0.000 OA
ATOM     28  C   UNL     1       6.566   6.687  17.240  0.00  0.00    +0.000 C 
ATOM     29  C   UNL     1       7.784   7.481  17.692  0.00  0.00    +0.000 C 
ATOM     30  C   UNL     1       6.144   5.673  18.324  0.00  0.00    +0.000 C 
ENDBRANCH  20  21
ENDBRANCH   4  20
TORSDOF 8
ENDMDL
MODEL 4
REMARK VINA RESULT:      -7.7      6.237      9.015
REMARK  Name = 
REMARK  10 active torsions:
REMARK  status: ('A' for Active; 'I' for Inactive)
REMARK    1  A    between atoms: C_2  and  C_3
REMARK    2  A    between atoms: C_3  and  O_4
REMARK    3  A    between atoms: O_4  and  C_5
REMARK    4  A    between atoms: C_8  and  C_9
REMARK    5  A    between atoms: C_9  and  N_10
REMARK    6  A    between atoms: N_10  and  C_11
REMARK    7  A    between atoms: N_14  and  C_15
REMARK    8  A    between atoms: C_15  and  C_16
REMARK    9  A    between atoms: C_20  and  C_21
REMARK   10  A    between atoms: C_23  and  C_24
REMARK                            x       y       z     vdW  Elec       q    Type
REMARK                         _______ _______ _______ _____ _____    ______ ____
ROOT
ATOM      1  C   UNL     1       7.731   6.976  18.321  0.00  0.00    +0.000 A 
ATOM      2  C   UNL     1       7.675   5.728  18.967  0.00  0.00    +0.000 A 
ATOM      3  N   UNL     1       6.767   4.919  18.410  0.00  0.00    +0.000 NA
ATOM      4  N   UNL     1       6.251   5.667  17.408  0.00  0.00    +0.000 N 
ATOM      5  C   UNL     1       6.783   6.920  17.336  0.00  0.00    +0.000 A 
ENDROOT
BRANCH   1   6
ATOM      6  N   UNL     1       8.550   8.009  18.606  0.00  0.00    +0.000 N 
ATOM      7  H   UNL     1       8.946   8.034  19.549  0.00  0.00    +0.000 HD
BRANCH   6   8
ATOM      8  C   UNL     1       8.236   9.343  18.118  0.00  0.00    +0.000 C 
BRANCH   8  12
ATOM      9  C   UNL     1      10.994  12.331  19.622  0.00  0.00    +0.000 A 
ATOM     10  C   UNL     1      11.091  11.875  18.296  0.00  0.00    +0.000 A 
ATOM     11  C   UNL     1      10.211  10.906  17.805  0.00  0.00    +0.000 A 
ATOM     12  C   UNL     1       9.226  10.351  18.641  0.00  0.00    +0.000 A 
ATOM     13  C   UNL     1       9.120  10.821  19.949  0.00  0.00    +0.000 A 
ATOM     14  C   UNL     1       9.973  11.821  20.432  0.00  0.00    +0.000 A 
ATOM     15 CL   UNL     1       9.577  12.414  22.013  0.00  0.00    +0.000 Cl
BRANCH   9  16
ATOM     16  O   UNL     1      11.955  13.256  19.952  0.00  0.00    +0.000 OA
BRANCH  16  17
ATOM     17  C   UNL     1      11.505  14.602  20.074  0.00  0.00    +0.000 C 
BRANCH  17  19
ATOM     18  C   UNL     1       9.417  15.471  18.987  0.00  0.00    +0.000 C 
ATOM     19  C   UNL     1      10.653  14.959  18.890  0.00  0.00    +0.000 C 
ENDBRANCH  17  19
ENDBRANCH  16  17
ENDBRANCH   9  16
ENDBRANCH   8  12
ENDBRANCH   6   8
ENDBRANCH   1   6
BRANCH   4  20
ATOM     20  C   UNL     1       5.220   5.109  16.556  0.00  0.00    +0.000 C 
BRANCH  20  21
ATOM     21  C   UNL     1       4.316   4.141  17.300  0.00  0.00    +0.000 C 
ATOM     22  O   UNL     1       4.560   2.930  17.246  0.00  0.00    +0.000 OA
ATOM     23  N   UNL     1       3.257   4.629  18.043  0.00  0.00    +0.000 N 
ATOM     24  C   UNL     1       2.444   3.714  18.844  0.00  0.00    +0.000 C 
ATOM     25  C   UNL     1       2.378   4.218  20.297  0.00  0.00    +0.000 C 
ATOM     26  C   UNL     1       1.487   3.320  21.141  0.00  0.00    +0.000 C 
ATOM     27  O   UNL     1       1.841   5.555  20.336  0.00  0.00    +0.000 OA
ATOM     28  C   UNL     1       2.673   6.473  19.591  0.00  0.00    +0.000 C 
ATOM     29  C   UNL     1       2.030   7.851  19.677  0.00  0.00    +0.000 C 
ATOM     30  C   UNL     1       2.800   6.023  18.121  0.00  0.00    +0.000 C 
ENDBRANCH  20  21
ENDBRANCH   4  20
TORSDOF 8
ENDMDL
MODEL 5
REMARK VINA RESULT:      -7.6      6.126      9.119
REMARK  Name = 
REMARK  10 active torsions:
REMARK  status: ('A' for Active; 'I' for Inactive)
REMARK    1  A    between atoms: C_2  and  C_3
REMARK    2  A    between atoms: C_3  and  O_4
REMARK    3  A    between atoms: O_4  and  C_5
REMARK    4  A    between atoms: C_8  and  C_9
REMARK    5  A    between atoms: C_9  and  N_10
REMARK    6  A    between atoms: N_10  and  C_11
REMARK    7  A    between atoms: N_14  and  C_15
REMARK    8  A    between atoms: C_15  and  C_16
REMARK    9  A    between atoms: C_20  and  C_21
REMARK   10  A    between atoms: C_23  and  C_24
REMARK                            x       y       z     vdW  Elec       q    Type
REMARK                         _______ _______ _______ _____ _____    ______ ____
ROOT
ATOM      1  C   UNL     1       7.614   6.946  18.228  0.00  0.00    +0.000 A 
ATOM      2  C   UNL     1       7.667   5.658  18.793  0.00  0.00    +0.000 A 
ATOM      3  N   UNL     1       6.721   4.855  18.291  0.00  0.00    +0.000 NA
ATOM      4  N   UNL     1       6.072   5.647  17.407  0.00  0.00    +0.000 N 
ATOM      5  C   UNL     1       6.558   6.919  17.358  0.00  0.00    +0.000 A 
ENDROOT
BRANCH   1   6
ATOM      6  N   UNL     1       8.433   7.986  18.486  0.00  0.00    +0.000 N 
ATOM      7  H   UNL     1       8.684   8.141  19.465  0.00  0.00    +0.000 HD
BRANCH   6   8
ATOM      8  C   UNL     1       8.265   9.240  17.768  0.00  0.00    +0.000 C 
BRANCH   8  12
ATOM      9  C   UNL     1      10.255  12.480  19.850  0.00  0.00    +0.000 A 
ATOM     10  C   UNL     1       9.898  11.305  20.535  0.00  0.00    +0.000 A 
ATOM     11  C   UNL     1       9.249  10.259  19.873  0.00  0.00    +0.000 A 
ATOM     12  C   UNL     1       8.919  10.375  18.511  0.00  0.00    +0.000 A 
ATOM     13  C   UNL     1       9.293  11.533  17.831  0.00  0.00    +0.000 A 
ATOM     14  C   UNL     1       9.979  12.566  18.481  0.00  0.00    +0.000 A 
ATOM     15 CL   UNL     1      10.528  13.841  17.441  0.00  0.00    +0.000 Cl
BRANCH   9  16
ATOM     16  O   UNL     1      10.852  13.419  20.656  0.00  0.00    +0.000 OA
BRANCH  16  17
ATOM     17  C   UNL     1       9.988  14.100  21.560  0.00  0.00    +0.000 C 
BRANCH  17  19
ATOM     18  C   UNL     1       8.604  16.150  21.137  0.00  0.00    +0.000 C 
ATOM     19  C   UNL     1       8.988  14.913  20.789  0.00  0.00    +0.000 C 
ENDBRANCH  17  19
ENDBRANCH  16  17
ENDBRANCH   9  16
ENDBRANCH   8  12
ENDBRANCH   6   8
ENDBRANCH   1   6
BRANCH   4  20
ATOM     20  C   UNL     1       4.963   5.109  16.644  0.00  0.00    +0.000 C 
BRANCH  20  21
ATOM     21  C   UNL     1       4.151   4.100  17.437  0.00  0.00    +0.000 C 
ATOM     22  O   UNL     1       4.434   2.899  17.347  0.00  0.00    +0.000 OA
ATOM     23  N   UNL     1       3.133   4.539  18.263  0.00  0.00    +0.000 N 
ATOM     24  C   UNL     1       2.415   3.585  19.107  0.00  0.00    +0.000 C 
ATOM     25  C   UNL     1       2.438   4.068  20.569  0.00  0.00    +0.000 C 
ATOM     26  C   UNL     1       1.644   3.127  21.462  0.00  0.00    +0.000 C 
ATOM     27  O   UNL     1       1.858   5.384  20.667  0.00  0.00    +0.000 OA
ATOM     28  C   UNL     1       2.600   6.341  19.878  0.00  0.00    +0.000 C 
ATOM     29  C   UNL     1       1.917   7.693  20.032  0.00  0.00    +0.000 C 
ATOM     30  C   UNL     1       2.634   5.914  18.395  0.00  0.00    +0.000 C 
ENDBRANCH  20  21
ENDBRANCH   4  20
TORSDOF 8
ENDMDL
MODEL 6
REMARK VINA RESULT:      -7.5      2.665      9.880
REMARK  Name = 
REMARK  10 active torsions:
REMARK  status: ('A' for Active; 'I' for Inactive)
REMARK    1  A    between atoms: C_2  and  C_3
REMARK    2  A    between atoms: C_3  and  O_4
REMARK    3  A    between atoms: O_4  and  C_5
REMARK    4  A    between atoms: C_8  and  C_9
REMARK    5  A    between atoms: C_9  and  N_10
REMARK    6  A    between atoms: N_10  and  C_11
REMARK    7  A    between atoms: N_14  and  C_15
REMARK    8  A    between atoms: C_15  and  C_16
REMARK    9  A    between atoms: C_20  and  C_21
REMARK   10  A    between atoms: C_23  and  C_24
REMARK                            x       y       z     vdW  Elec       q    Type
REMARK                         _______ _______ _______ _____ _____    ______ ____
ROOT
ATOM      1  C   UNL     1       1.827   8.005  19.098  0.00  0.00    +0.000 A 
ATOM      2  C   UNL     1       1.437   7.683  20.411  0.00  0.00    +0.000 A 
ATOM      3  N   UNL     1       1.952   6.515  20.812  0.00  0.00    +0.000 NA
ATOM      4  N   UNL     1       2.670   6.103  19.742  0.00  0.00    +0.000 N 
ATOM      5  C   UNL     1       2.599   6.955  18.681  0.00  0.00    +0.000 A 
ENDROOT
BRANCH   1   6
ATOM      6  N   UNL     1       1.513   9.115  18.400  0.00  0.00    +0.000 N 
ATOM      7  H   UNL     1       2.119   9.347  17.611  0.00  0.00    +0.000 HD
BRANCH   6   8
ATOM      8  C   UNL     1       1.053  10.306  19.097  0.00  0.00    +0.000 C 
BRANCH   8  12
ATOM      9  C   UNL     1      -2.983  11.322  17.882  0.00  0.00    +0.000 A 
ATOM     10  C   UNL     1      -2.381  11.974  18.974  0.00  0.00    +0.000 A 
ATOM     11  C   UNL     1      -1.083  11.646  19.377  0.00  0.00    +0.000 A 
ATOM     12  C   UNL     1      -0.364  10.639  18.710  0.00  0.00    +0.000 A 
ATOM     13  C   UNL     1      -0.957  10.010  17.616  0.00  0.00    +0.000 A 
ATOM     14  C   UNL     1      -2.240  10.363  17.184  0.00  0.00    +0.000 A 
ATOM     15 CL   UNL     1      -2.741   9.616  15.701  0.00  0.00    +0.000 Cl
BRANCH   9  16
ATOM     16  O   UNL     1      -4.270  11.737  17.643  0.00  0.00    +0.000 OA
BRANCH  16  17
ATOM     17  C   UNL     1      -5.143  11.731  18.768  0.00  0.00    +0.000 C 
BRANCH  17  19
ATOM     18  C   UNL     1      -6.980  10.174  19.474  0.00  0.00    +0.000 C 
ATOM     19  C   UNL     1      -6.297  10.805  18.508  0.00  0.00    +0.000 C 
ENDBRANCH  17  19
ENDBRANCH  16  17
ENDBRANCH   9  16
ENDBRANCH   8  12
ENDBRANCH   6   8
ENDBRANCH   1   6
BRANCH   4  20
ATOM     20  C   UNL     1       3.396   4.850  19.806  0.00  0.00    +0.000 C 
BRANCH  20  21
ATOM     21  C   UNL     1       3.793   4.342  18.431  0.00  0.00    +0.000 C 
ATOM     22  O   UNL     1       2.940   3.790  17.726  0.00  0.00    +0.000 OA
ATOM     23  N   UNL     1       5.088   4.526  17.983  0.00  0.00    +0.000 N 
ATOM     24  C   UNL     1       5.452   4.132  16.622  0.00  0.00    +0.000 C 
ATOM     25  C   UNL     1       6.109   5.322  15.897  0.00  0.00    +0.000 C 
ATOM     26  C   UNL     1       6.556   4.923  14.499  0.00  0.00    +0.000 C 
ATOM     27  O   UNL     1       7.264   5.774  16.631  0.00  0.00    +0.000 OA
ATOM     28  C   UNL     1       6.899   6.217  17.958  0.00  0.00    +0.000 C 
ATOM     29  C   UNL     1       8.173   6.666  18.661  0.00  0.00    +0.000 C 
ATOM     30  C   UNL     1       6.217   5.077  18.743  0.00  0.00    +0.000 C 
ENDBRANCH  20  21
ENDBRANCH   4  20
TORSDOF 8
ENDMDL
MODEL 7
REMARK VINA RESULT:      -7.5      1.854      2.397
REMARK  Name = 
REMARK  10 active torsions:
REMARK  status: ('A' for Active; 'I' for Inactive)
REMARK    1  A    between atoms: C_2  and  C_3
REMARK    2  A    between atoms: C_3  and  O_4
REMARK    3  A    between atoms: O_4  and  C_5
REMARK    4  A    between atoms: C_8  and  C_9
REMARK    5  A    between atoms: C_9  and  N_10
REMARK    6  A    between atoms: N_10  and  C_11
REMARK    7  A    between atoms: N_14  and  C_15
REMARK    8  A    between atoms: C_15  and  C_16
REMARK    9  A    between atoms: C_20  and  C_21
REMARK   10  A    between atoms: C_23  and  C_24
REMARK                            x       y       z     vdW  Elec       q    Type
REMARK                         _______ _______ _______ _____ _____    ______ ____
ROOT
ATOM      1  C   UNL     1       0.851   9.258  21.143  0.00  0.00    +0.000 A 
ATOM      2  C   UNL     1      -0.043   9.763  22.105  0.00  0.00    +0.000 A 
ATOM      3  N   UNL     1      -0.735  10.810  21.642  0.00  0.00    +0.000 NA
ATOM      4  N   UNL     1      -0.270  10.962  20.381  0.00  0.00    +0.000 N 
ATOM      5  C   UNL     1       0.704  10.068  20.050  0.00  0.00    +0.000 A 
ENDROOT
BRANCH   1   6
ATOM      6  N   UNL     1       1.675   8.198  21.268  0.00  0.00    +0.000 N 
ATOM      7  H   UNL     1       2.664   8.360  21.065  0.00  0.00    +0.000 HD
BRANCH   6   8
ATOM      8  C   UNL     1       1.241   6.883  20.824  0.00  0.00    +0.000 C 
BRANCH   8  12
ATOM      9  C   UNL     1       4.134   5.237  18.046  0.00  0.00    +0.000 A 
ATOM     10  C   UNL     1       3.606   6.525  17.846  0.00  0.00    +0.000 A 
ATOM     11  C   UNL     1       2.667   7.060  18.732  0.00  0.00    +0.000 A 
ATOM     12  C   UNL     1       2.214   6.306  19.829  0.00  0.00    +0.000 A 
ATOM     13  C   UNL     1       2.755   5.037  20.035  0.00  0.00    +0.000 A 
ATOM     14  C   UNL     1       3.726   4.514  19.173  0.00  0.00    +0.000 A 
ATOM     15 CL   UNL     1       4.421   3.010  19.686  0.00  0.00    +0.000 Cl
BRANCH   9  16
ATOM     16  O   UNL     1       5.016   4.852  17.065  0.00  0.00    +0.000 OA
BRANCH  16  17
ATOM     17  C   UNL     1       6.385   4.790  17.452  0.00  0.00    +0.000 C 
BRANCH  17  19
ATOM     18  C   UNL     1       7.710   6.853  17.987  0.00  0.00    +0.000 C 
ATOM     19  C   UNL     1       7.069   6.079  17.098  0.00  0.00    +0.000 C 
ENDBRANCH  17  19
ENDBRANCH  16  17
ENDBRANCH   9  16
ENDBRANCH   8  12
ENDBRANCH   6   8
ENDBRANCH   1   6
BRANCH   4  20
ATOM     20  C   UNL     1      -0.805  12.017  19.543  0.00  0.00    +0.000 C 
BRANCH  20  21
ATOM     21  C   UNL     1      -2.317  12.120  19.638  0.00  0.00    +0.000 C 
ATOM     22  O   UNL     1      -2.817  12.790  20.548  0.00  0.00    +0.000 OA
ATOM     23  N   UNL     1      -3.105  11.488  18.693  0.00  0.00    +0.000 N 
ATOM     24  C   UNL     1      -4.557  11.666  18.716  0.00  0.00    +0.000 C 
ATOM     25  C   UNL     1      -5.043  12.133  17.332  0.00  0.00    +0.000 C 
ATOM     26  C   UNL     1      -6.558  12.267  17.308  0.00  0.00    +0.000 C 
ATOM     27  O   UNL     1      -4.655  11.181  16.322  0.00  0.00    +0.000 OA
ATOM     28  C   UNL     1      -3.218  11.044  16.258  0.00  0.00    +0.000 C 
ATOM     29  C   UNL     1      -2.900  10.019  15.178  0.00  0.00    +0.000 C 
ATOM     30  C   UNL     1      -2.653  10.592  17.621  0.00  0.00    +0.000 C 
ENDBRANCH  20  21
ENDBRANCH   4  20
TORSDOF 8
ENDMDL
MODEL 8
REMARK VINA RESULT:      -7.5      2.794      9.854
REMARK  Name = 
REMARK  10 active torsions:
REMARK  status: ('A' for Active; 'I' for Inactive)
REMARK    1  A    between atoms: C_2  and  C_3
REMARK    2  A    between atoms: C_3  and  O_4
REMARK    3  A    between atoms: O_4  and  C_5
REMARK    4  A    between atoms: C_8  and  C_9
REMARK    5  A    between atoms: C_9  and  N_10
REMARK    6  A    between atoms: N_10  and  C_11
REMARK    7  A    between atoms: N_14  and  C_15
REMARK    8  A    between atoms: C_15  and  C_16
REMARK    9  A    between atoms: C_20  and  C_21
REMARK   10  A    between atoms: C_23  and  C_24
REMARK                            x       y       z     vdW  Elec       q    Type
REMARK                         _______ _______ _______ _____ _____    ______ ____
ROOT
ATOM      1  C   UNL     1       2.045   7.771  18.480  0.00  0.00    +0.000 A 
ATOM      2  C   UNL     1       1.956   7.620  19.876  0.00  0.00    +0.000 A 
ATOM      3  N   UNL     1       2.349   6.404  20.271  0.00  0.00    +0.000 NA
ATOM      4  N   UNL     1       2.686   5.790  19.114  0.00  0.00    +0.000 N 
ATOM      5  C   UNL     1       2.492   6.566  18.011  0.00  0.00    +0.000 A 
ENDROOT
BRANCH   1   6
ATOM      6  N   UNL     1       1.757   8.872  17.756  0.00  0.00    +0.000 N 
ATOM      7  H   UNL     1       2.225   8.962  16.851  0.00  0.00    +0.000 HD
BRANCH   6   8
ATOM      8  C   UNL     1       1.609  10.160  18.417  0.00  0.00    +0.000 C 
BRANCH   8  12
ATOM      9  C   UNL     1      -2.533  11.440  18.440  0.00  0.00    +0.000 A 
ATOM     10  C   UNL     1      -2.146  10.291  17.729  0.00  0.00    +0.000 A 
ATOM     11  C   UNL     1      -0.811   9.876  17.710  0.00  0.00    +0.000 A 
ATOM     12  C   UNL     1       0.174  10.617  18.384  0.00  0.00    +0.000 A 
ATOM     13  C   UNL     1      -0.217  11.745  19.105  0.00  0.00    +0.000 A 
ATOM     14  C   UNL     1      -1.558  12.140  19.160  0.00  0.00    +0.000 A 
ATOM     15 CL   UNL     1      -1.887  13.447  20.253  0.00  0.00    +0.000 Cl
BRANCH   9  16
ATOM     16  O   UNL     1      -3.872  11.726  18.326  0.00  0.00    +0.000 OA
BRANCH  16  17
ATOM     17  C   UNL     1      -4.689  10.676  17.818  0.00  0.00    +0.000 C 
BRANCH  17  19
ATOM     18  C   UNL     1      -6.846  11.938  18.045  0.00  0.00    +0.000 C 
ATOM     19  C   UNL     1      -6.099  10.853  18.302  0.00  0.00    +0.000 C 
ENDBRANCH  17  19
ENDBRANCH  16  17
ENDBRANCH   9  16
ENDBRANCH   8  12
ENDBRANCH   6   8
ENDBRANCH   1   6
BRANCH   4  20
ATOM     20  C   UNL     1       3.179   4.427  19.144  0.00  0.00    +0.000 C 
BRANCH  20  21
ATOM     21  C   UNL     1       3.756   3.992  17.808  0.00  0.00    +0.000 C 
ATOM     22  O   UNL     1       3.020   3.427  16.991  0.00  0.00    +0.000 OA
ATOM     23  N   UNL     1       5.082   4.257  17.519  0.00  0.00    +0.000 N 
ATOM     24  C   UNL     1       5.619   3.934  16.197  0.00  0.00    +0.000 C 
ATOM     25  C   UNL     1       6.291   5.181  15.593  0.00  0.00    +0.000 C 
ATOM     26  C   UNL     1       6.915   4.858  14.244  0.00  0.00    +0.000 C 
ATOM     27  O   UNL     1       7.330   5.660  16.470  0.00  0.00    +0.000 OA
ATOM     28  C   UNL     1       6.793   6.033  17.759  0.00  0.00    +0.000 C 
ATOM     29  C   UNL     1       7.953   6.516  18.619  0.00  0.00    +0.000 C 
ATOM     30  C   UNL     1       6.086   4.832  18.423  0.00  0.00    +0.000 C 
ENDBRANCH  20  21
ENDBRANCH   4  20
TORSDOF 8
ENDMDL
MODEL 9
REMARK VINA RESULT:      -7.4      3.642     10.101
REMARK  Name = 
REMARK  10 active torsions:
REMARK  status: ('A' for Active; 'I' for Inactive)
REMARK    1  A    between atoms: C_2  and  C_3
REMARK    2  A    between atoms: C_3  and  O_4
REMARK    3  A    between atoms: O_4  and  C_5
REMARK    4  A    between atoms: C_8  and  C_9
REMARK    5  A    between atoms: C_9  and  N_10
REMARK    6  A    between atoms: N_10  and  C_11
REMARK    7  A    between atoms: N_14  and  C_15
REMARK    8  A    between atoms: C_15  and  C_16
REMARK    9  A    between atoms: C_20  and  C_21
REMARK   10  A    between atoms: C_23  and  C_24
REMARK                            x       y       z     vdW  Elec       q    Type
REMARK                         _______ _______ _______ _____ _____    ______ ____
ROOT
ATOM      1  C   UNL     1       2.230   7.335  19.508  0.00  0.00    +0.000 A 
ATOM      2  C   UNL     1       2.383   7.114  18.127  0.00  0.00    +0.000 A 
ATOM      3  N   UNL     1       2.997   5.953  17.873  0.00  0.00    +0.000 NA
ATOM      4  N   UNL     1       3.230   5.443  19.104  0.00  0.00    +0.000 N 
ATOM      5  C   UNL     1       2.810   6.255  20.116  0.00  0.00    +0.000 A 
ENDROOT
BRANCH   1   6
ATOM      6  N   UNL     1       1.633   8.386  20.107  0.00  0.00    +0.000 N 
ATOM      7  H   UNL     1       2.149   9.269  20.104  0.00  0.00    +0.000 HD
BRANCH   6   8
ATOM      8  C   UNL     1       0.899   8.195  21.349  0.00  0.00    +0.000 C 
BRANCH   8  12
ATOM      9  C   UNL     1      -1.490  11.711  22.199  0.00  0.00    +0.000 A 
ATOM     10  C   UNL     1      -1.180  10.796  23.220  0.00  0.00    +0.000 A 
ATOM     11  C   UNL     1      -0.417   9.656  22.953  0.00  0.00    +0.000 A 
ATOM     12  C   UNL     1       0.033   9.391  21.648  0.00  0.00    +0.000 A 
ATOM     13  C   UNL     1      -0.259  10.311  20.642  0.00  0.00    +0.000 A 
ATOM     14  C   UNL     1      -0.988  11.475  20.914  0.00  0.00    +0.000 A 
ATOM     15 CL   UNL     1      -1.095  12.592  19.591  0.00  0.00    +0.000 Cl
BRANCH   9  16
ATOM     16  O   UNL     1      -2.276  12.755  22.623  0.00  0.00    +0.000 OA
BRANCH  16  17
ATOM     17  C   UNL     1      -3.673  12.618  22.382  0.00  0.00    +0.000 C 
BRANCH  17  19
ATOM     18  C   UNL     1      -5.268  13.450  20.632  0.00  0.00    +0.000 C 
ATOM     19  C   UNL     1      -4.083  13.524  21.256  0.00  0.00    +0.000 C 
ENDBRANCH  17  19
ENDBRANCH  16  17
ENDBRANCH   9  16
ENDBRANCH   8  12
ENDBRANCH   6   8
ENDBRANCH   1   6
BRANCH   4  20
ATOM     20  C   UNL     1       3.887   4.159  19.235  0.00  0.00    +0.000 C 
BRANCH  20  21
ATOM     21  C   UNL     1       4.490   3.681  17.926  0.00  0.00    +0.000 C 
ATOM     22  O   UNL     1       3.904   2.806  17.279  0.00  0.00    +0.000 OA
ATOM     23  N   UNL     1       5.664   4.250  17.467  0.00  0.00    +0.000 N 
ATOM     24  C   UNL     1       6.197   3.870  16.159  0.00  0.00    +0.000 C 
ATOM     25  C   UNL     1       6.444   5.134  15.314  0.00  0.00    +0.000 C 
ATOM     26  C   UNL     1       7.057   4.774  13.970  0.00  0.00    +0.000 C 
ATOM     27  O   UNL     1       7.346   6.023  16.001  0.00  0.00    +0.000 OA
ATOM     28  C   UNL     1       6.798   6.444  17.270  0.00  0.00    +0.000 C 
ATOM     29  C   UNL     1       7.814   7.368  17.928  0.00  0.00    +0.000 C 
ATOM     30  C   UNL     1       6.508   5.225  18.170  0.00  0.00    +0.000 C 
ENDBRANCH  20  21
ENDBRANCH   4  20
TORSDOF 8
ENDMDL
