MODEL 1
REMARK VINA RESULT:      -8.1      0.000      0.000
REMARK  Name = 
REMARK  7 active torsions:
REMARK  status: ('A' for Active; 'I' for Inactive)
REMARK    1  A    between atoms: N_10  and  C_11
REMARK    2  A    between atoms: C_11  and  C_12
REMARK    3  A    between atoms: C_12  and  C_13
REMARK    4  A    between atoms: C_13  and  C_14
REMARK    5  A    between atoms: C_14  and  C_15
REMARK    6  A    between atoms: C_15  and  N_16
REMARK    7  A    between atoms: N_19  and  C_20
REMARK                            x       y       z     vdW  Elec       q    Type
REMARK                         _______ _______ _______ _____ _____    ______ ____
ROOT
ATOM      1  C   UNL     1       7.758   8.660  17.524  0.00  0.00    +0.000 C 
ENDROOT
BRANCH   1   2
ATOM      2  C   UNL     1       8.626   9.857  17.903  0.00  0.00    +0.000 C 
BRANCH   2   3
ATOM      3  C   UNL     1       8.955   9.810  19.410  0.00  0.00    +0.000 C 
BRANCH   3   4
ATOM      4  C   UNL     1      10.153  10.686  19.795  0.00  0.00    +0.000 C 
BRANCH   4  14
ATOM      5  O   UNL     1       8.505  12.555  21.447  0.00  0.00    +0.000 OA
ATOM      6  C   UNL     1       9.121  12.894  20.449  0.00  0.00    +0.000 A 
ATOM      7  N   UNL     1       9.187  14.199  19.930  0.00  0.00    +0.000 N 
ATOM      8  C   UNL     1       9.978  14.191  18.788  0.00  0.00    +0.000 A 
ATOM      9  C   UNL     1      10.321  15.237  17.964  0.00  0.00    +0.000 A 
ATOM     10  C   UNL     1      11.144  14.938  16.875  0.00  0.00    +0.000 A 
ATOM     11  C   UNL     1      11.597  13.620  16.647  0.00  0.00    +0.000 A 
ATOM     12  C   UNL     1      11.242  12.571  17.501  0.00  0.00    +0.000 A 
ATOM     13  C   UNL     1      10.425  12.886  18.568  0.00  0.00    +0.000 A 
ATOM     14  N   UNL     1       9.903  12.088  19.593  0.00  0.00    +0.000 N 
ATOM     15  H   UNL     1       8.728  14.988  20.351  0.00  0.00    +0.000 HD
ENDBRANCH   4  14
ENDBRANCH   3   4
ENDBRANCH   2   3
ENDBRANCH   1   2
BRANCH   1  16
ATOM     16  C   UNL     1       8.010   7.337  18.261  0.00  0.00    +0.000 C 
BRANCH  16  17
ATOM     17  N   UNL     1       7.350   6.252  17.508  0.00  0.00    +0.000 NA
ATOM     18  C   UNL     1       7.102   5.031  18.313  0.00  0.00    +0.000 C 
ATOM     19  C   UNL     1       5.992   5.221  19.356  0.00  0.00    +0.000 C 
ATOM     20  N   UNL     1       4.730   5.495  18.665  0.00  0.00    +0.000 N 
ATOM     21  C   UNL     1       4.778   6.641  17.734  0.00  0.00    +0.000 C 
ATOM     22  C   UNL     1       6.077   6.653  16.867  0.00  0.00    +0.000 C 
BRANCH  20  23
ATOM     23  C   UNL     1       3.726   4.545  18.616  0.00  0.00    +0.000 A 
ATOM     24  C   UNL     1       3.432   3.817  17.446  0.00  0.00    +0.000 A 
ATOM     25  C   UNL     1       2.483   2.789  17.426  0.00  0.00    +0.000 A 
ATOM     26  C   UNL     1       1.790   2.465  18.583  0.00  0.00    +0.000 A 
ATOM     27  C   UNL     1       2.041   3.184  19.746  0.00  0.00    +0.000 A 
ATOM     28 CL   UNL     1       1.194   2.782  21.190  0.00  0.00    +0.000 Cl
ATOM     29  C   UNL     1       2.989   4.213  19.763  0.00  0.00    +0.000 A 
ENDBRANCH  20  23
ENDBRANCH  16  17
ENDBRANCH   1  16
TORSDOF 7
ENDMDL
MODEL 2
REMARK VINA RESULT:      -8.0      1.222      1.670
REMARK  Name = 
REMARK  7 active torsions:
REMARK  status: ('A' for Active; 'I' for Inactive)
REMARK    1  A    between atoms: N_10  and  C_11
REMARK    2  A    between atoms: C_11  and  C_12
REMARK    3  A    between atoms: C_12  and  C_13
REMARK    4  A    between atoms: C_13  and  C_14
REMARK    5  A    between atoms: C_14  and  C_15
REMARK    6  A    between atoms: C_15  and  N_16
REMARK    7  A    between atoms: N_19  and  C_20
REMARK                            x       y       z     vdW  Elec       q    Type
REMARK                         _______ _______ _______ _____ _____    ______ ____
ROOT
ATOM      1  C   UNL     1       7.694   8.846  17.701  0.00  0.00    +0.000 C 
ENDROOT
BRANCH   1   2
ATOM      2  C   UNL     1       8.665  10.009  17.887  0.00  0.00    +0.000 C 
BRANCH   2   3
ATOM      3  C   UNL     1       9.355   9.901  19.263  0.00  0.00    +0.000 C 
BRANCH   3   4
ATOM      4  C   UNL     1       9.345  11.217  20.050  0.00  0.00    +0.000 C 
BRANCH   4  14
ATOM      5  O   UNL     1      12.245  11.346  19.333  0.00  0.00    +0.000 OA
ATOM      6  C   UNL     1      11.440  12.225  19.067  0.00  0.00    +0.000 A 
ATOM      7  N   UNL     1      11.722  13.411  18.368  0.00  0.00    +0.000 N 
ATOM      8  C   UNL     1      10.558  14.161  18.263  0.00  0.00    +0.000 A 
ATOM      9  C   UNL     1      10.364  15.381  17.658  0.00  0.00    +0.000 A 
ATOM     10  C   UNL     1       9.070  15.907  17.701  0.00  0.00    +0.000 A 
ATOM     11  C   UNL     1       8.021  15.207  18.336  0.00  0.00    +0.000 A 
ATOM     12  C   UNL     1       8.238  13.964  18.940  0.00  0.00    +0.000 A 
ATOM     13  C   UNL     1       9.524  13.464  18.891  0.00  0.00    +0.000 A 
ATOM     14  N   UNL     1      10.064  12.269  19.382  0.00  0.00    +0.000 N 
ATOM     15  H   UNL     1      12.633  13.642  18.009  0.00  0.00    +0.000 HD
ENDBRANCH   4  14
ENDBRANCH   3   4
ENDBRANCH   2   3
ENDBRANCH   1   2
BRANCH   1  16
ATOM     16  C   UNL     1       8.100   7.483  18.275  0.00  0.00    +0.000 C 
BRANCH  16  17
ATOM     17  N   UNL     1       7.434   6.428  17.486  0.00  0.00    +0.000 NA
ATOM     18  C   UNL     1       7.203   5.172  18.239  0.00  0.00    +0.000 C 
ATOM     19  C   UNL     1       6.108   5.310  19.305  0.00  0.00    +0.000 C 
ATOM     20  N   UNL     1       4.835   5.607  18.644  0.00  0.00    +0.000 N 
ATOM     21  C   UNL     1       4.864   6.793  17.764  0.00  0.00    +0.000 C 
ATOM     22  C   UNL     1       6.150   6.850  16.881  0.00  0.00    +0.000 C 
BRANCH  20  23
ATOM     23  C   UNL     1       3.834   4.655  18.568  0.00  0.00    +0.000 A 
ATOM     24  C   UNL     1       3.502   4.005  17.363  0.00  0.00    +0.000 A 
ATOM     25  C   UNL     1       2.559   2.973  17.309  0.00  0.00    +0.000 A 
ATOM     26  C   UNL     1       1.909   2.567  18.465  0.00  0.00    +0.000 A 
ATOM     27  C   UNL     1       2.197   3.210  19.663  0.00  0.00    +0.000 A 
ATOM     28 CL   UNL     1       1.405   2.706  21.107  0.00  0.00    +0.000 Cl
ATOM     29  C   UNL     1       3.141   4.242  19.715  0.00  0.00    +0.000 A 
ENDBRANCH  20  23
ENDBRANCH  16  17
ENDBRANCH   1  16
TORSDOF 7
ENDMDL
MODEL 3
REMARK VINA RESULT:      -7.9      6.390      8.342
REMARK  Name = 
REMARK  7 active torsions:
REMARK  status: ('A' for Active; 'I' for Inactive)
REMARK    1  A    between atoms: N_10  and  C_11
REMARK    2  A    between atoms: C_11  and  C_12
REMARK    3  A    between atoms: C_12  and  C_13
REMARK    4  A    between atoms: C_13  and  C_14
REMARK    5  A    between atoms: C_14  and  C_15
REMARK    6  A    between atoms: C_15  and  N_16
REMARK    7  A    between atoms: N_19  and  C_20
REMARK                            x       y       z     vdW  Elec       q    Type
REMARK                         _______ _______ _______ _____ _____    ______ ____
ROOT
ATOM      1  C   UNL     1       1.815   2.604  21.015  0.00  0.00    +0.000 C 
ENDROOT
BRANCH   1   2
ATOM      2  C   UNL     1       1.993   4.010  21.583  0.00  0.00    +0.000 C 
BRANCH   2   3
ATOM      3  C   UNL     1       1.691   5.058  20.492  0.00  0.00    +0.000 C 
BRANCH   3   4
ATOM      4  C   UNL     1       2.705   6.208  20.460  0.00  0.00    +0.000 C 
BRANCH   4  14
ATOM      5  O   UNL     1       3.081   7.251  17.684  0.00  0.00    +0.000 OA
ATOM      6  C   UNL     1       2.391   7.800  18.528  0.00  0.00    +0.000 A 
ATOM      7  N   UNL     1       1.645   8.977  18.339  0.00  0.00    +0.000 N 
ATOM      8  C   UNL     1       0.994   9.294  19.524  0.00  0.00    +0.000 A 
ATOM      9  C   UNL     1       0.155  10.350  19.797  0.00  0.00    +0.000 A 
ATOM     10  C   UNL     1      -0.367  10.421  21.091  0.00  0.00    +0.000 A 
ATOM     11  C   UNL     1      -0.045   9.446  22.060  0.00  0.00    +0.000 A 
ATOM     12  C   UNL     1       0.805   8.376  21.760  0.00  0.00    +0.000 A 
ATOM     13  C   UNL     1       1.315   8.327  20.479  0.00  0.00    +0.000 A 
ATOM     14  N   UNL     1       2.170   7.403  19.865  0.00  0.00    +0.000 N 
ATOM     15  H   UNL     1       1.607   9.476  17.467  0.00  0.00    +0.000 HD
ENDBRANCH   4  14
ENDBRANCH   3   4
ENDBRANCH   2   3
ENDBRANCH   1   2
BRANCH   1  16
ATOM     16  C   UNL     1       1.396   2.479  19.545  0.00  0.00    +0.000 C 
BRANCH  16  17
ATOM     17  N   UNL     1       2.546   1.962  18.775  0.00  0.00    +0.000 NA
ATOM     18  C   UNL     1       2.506   2.308  17.335  0.00  0.00    +0.000 C 
ATOM     19  C   UNL     1       2.777   3.796  17.072  0.00  0.00    +0.000 C 
ATOM     20  N   UNL     1       4.136   4.118  17.514  0.00  0.00    +0.000 N 
ATOM     21  C   UNL     1       4.421   3.772  18.921  0.00  0.00    +0.000 C 
ATOM     22  C   UNL     1       3.863   2.368  19.316  0.00  0.00    +0.000 C 
BRANCH  20  23
ATOM     23  C   UNL     1       5.141   4.369  16.596  0.00  0.00    +0.000 A 
ATOM     24  C   UNL     1       6.348   4.998  16.954  0.00  0.00    +0.000 A 
ATOM     25  C   UNL     1       7.402   5.161  16.047  0.00  0.00    +0.000 A 
ATOM     26  C   UNL     1       7.270   4.704  14.744  0.00  0.00    +0.000 A 
ATOM     27  C   UNL     1       6.078   4.102  14.356  0.00  0.00    +0.000 A 
ATOM     28 CL   UNL     1       5.908   3.521  12.744  0.00  0.00    +0.000 Cl
ATOM     29  C   UNL     1       5.026   3.941  15.265  0.00  0.00    +0.000 A 
ENDBRANCH  20  23
ENDBRANCH  16  17
ENDBRANCH   1  16
TORSDOF 7
ENDMDL
MODEL 4
REMARK VINA RESULT:      -7.9      1.629      2.374
REMARK  Name = 
REMARK  7 active torsions:
REMARK  status: ('A' for Active; 'I' for Inactive)
REMARK    1  A    between atoms: N_10  and  C_11
REMARK    2  A    between atoms: C_11  and  C_12
REMARK    3  A    between atoms: C_12  and  C_13
REMARK    4  A    between atoms: C_13  and  C_14
REMARK    5  A    between atoms: C_14  and  C_15
REMARK    6  A    between atoms: C_15  and  N_16
REMARK    7  A    between atoms: N_19  and  C_20
REMARK                            x       y       z     vdW  Elec       q    Type
REMARK                         _______ _______ _______ _____ _____    ______ ____
ROOT
ATOM      1  C   UNL     1       8.145   8.693  17.893  0.00  0.00    +0.000 C 
ENDROOT
BRANCH   1   2
ATOM      2  C   UNL     1       8.716   9.811  18.761  0.00  0.00    +0.000 C 
BRANCH   2   3
ATOM      3  C   UNL     1       9.584  10.752  17.900  0.00  0.00    +0.000 C 
BRANCH   3   4
ATOM      4  C   UNL     1       9.003  12.166  17.777  0.00  0.00    +0.000 C 
BRANCH   4  14
ATOM      5  O   UNL     1      11.207  13.662  16.420  0.00  0.00    +0.000 OA
ATOM      6  C   UNL     1      10.880  13.841  17.582  0.00  0.00    +0.000 A 
ATOM      7  N   UNL     1      11.449  14.781  18.459  0.00  0.00    +0.000 N 
ATOM      8  C   UNL     1      10.818  14.688  19.693  0.00  0.00    +0.000 A 
ATOM      9  C   UNL     1      11.044  15.414  20.839  0.00  0.00    +0.000 A 
ATOM     10  C   UNL     1      10.249  15.106  21.946  0.00  0.00    +0.000 A 
ATOM     11  C   UNL     1       9.262  14.099  21.876  0.00  0.00    +0.000 A 
ATOM     12  C   UNL     1       9.044  13.377  20.698  0.00  0.00    +0.000 A 
ATOM     13  C   UNL     1       9.843  13.691  19.617  0.00  0.00    +0.000 A 
ATOM     14  N   UNL     1       9.876  13.173  18.317  0.00  0.00    +0.000 N 
ATOM     15  H   UNL     1      12.188  15.410  18.196  0.00  0.00    +0.000 HD
ENDBRANCH   4  14
ENDBRANCH   3   4
ENDBRANCH   2   3
ENDBRANCH   1   2
BRANCH   1  16
ATOM     16  C   UNL     1       8.195   7.264  18.450  0.00  0.00    +0.000 C 
BRANCH  16  17
ATOM     17  N   UNL     1       7.418   6.386  17.553  0.00  0.00    +0.000 NA
ATOM     18  C   UNL     1       7.138   5.046  18.121  0.00  0.00    +0.000 C 
ATOM     19  C   UNL     1       6.110   5.085  19.261  0.00  0.00    +0.000 C 
ATOM     20  N   UNL     1       4.829   5.558  18.730  0.00  0.00    +0.000 N 
ATOM     21  C   UNL     1       4.897   6.862  18.038  0.00  0.00    +0.000 C 
ATOM     22  C   UNL     1       6.138   6.975  17.097  0.00  0.00    +0.000 C 
BRANCH  20  23
ATOM     23  C   UNL     1       3.762   4.692  18.573  0.00  0.00    +0.000 A 
ATOM     24  C   UNL     1       3.466   4.076  17.341  0.00  0.00    +0.000 A 
ATOM     25  C   UNL     1       2.448   3.126  17.209  0.00  0.00    +0.000 A 
ATOM     26  C   UNL     1       1.685   2.772  18.310  0.00  0.00    +0.000 A 
ATOM     27  C   UNL     1       1.937   3.384  19.533  0.00  0.00    +0.000 A 
ATOM     28 CL   UNL     1       1.002   2.942  20.910  0.00  0.00    +0.000 Cl
ATOM     29  C   UNL     1       2.955   4.334  19.663  0.00  0.00    +0.000 A 
ENDBRANCH  20  23
ENDBRANCH  16  17
ENDBRANCH   1  16
TORSDOF 7
ENDMDL
MODEL 5
REMARK VINA RESULT:      -7.8      7.089     10.766
REMARK  Name = 
REMARK  7 active torsions:
REMARK  status: ('A' for Active; 'I' for Inactive)
REMARK    1  A    between atoms: N_10  and  C_11
REMARK    2  A    between atoms: C_11  and  C_12
REMARK    3  A    between atoms: C_12  and  C_13
REMARK    4  A    between atoms: C_13  and  C_14
REMARK    5  A    between atoms: C_14  and  C_15
REMARK    6  A    between atoms: C_15  and  N_16
REMARK    7  A    between atoms: N_19  and  C_20
REMARK                            x       y       z     vdW  Elec       q    Type
REMARK                         _______ _______ _______ _____ _____    ______ ____
ROOT
ATOM      1  C   UNL     1       2.066   9.326  17.780  0.00  0.00    +0.000 C 
ENDROOT
BRANCH   1   2
ATOM      2  C   UNL     1       2.177   7.969  18.469  0.00  0.00    +0.000 C 
BRANCH   2   3
ATOM      3  C   UNL     1       3.518   7.301  18.098  0.00  0.00    +0.000 C 
BRANCH   3   4
ATOM      4  C   UNL     1       3.348   5.915  17.464  0.00  0.00    +0.000 C 
BRANCH   4  14
ATOM      5  O   UNL     1       6.026   4.600  17.663  0.00  0.00    +0.000 OA
ATOM      6  C   UNL     1       5.072   4.309  18.367  0.00  0.00    +0.000 A 
ATOM      7  N   UNL     1       5.072   3.346  19.391  0.00  0.00    +0.000 N 
ATOM      8  C   UNL     1       3.808   3.295  19.964  0.00  0.00    +0.000 A 
ATOM      9  C   UNL     1       3.356   2.508  20.997  0.00  0.00    +0.000 A 
ATOM     10  C   UNL     1       2.020   2.671  21.374  0.00  0.00    +0.000 A 
ATOM     11  C   UNL     1       1.188   3.605  20.720  0.00  0.00    +0.000 A 
ATOM     12  C   UNL     1       1.670   4.401  19.676  0.00  0.00    +0.000 A 
ATOM     13  C   UNL     1       2.990   4.221  19.314  0.00  0.00    +0.000 A 
ATOM     14  N   UNL     1       3.769   4.850  18.334  0.00  0.00    +0.000 N 
ATOM     15  H   UNL     1       5.882   2.806  19.646  0.00  0.00    +0.000 HD
ENDBRANCH   4  14
ENDBRANCH   3   4
ENDBRANCH   2   3
ENDBRANCH   1   2
BRANCH   1  16
ATOM     16  C   UNL     1       1.405  10.468  18.562  0.00  0.00    +0.000 C 
BRANCH  16  17
ATOM     17  N   UNL     1       0.076  10.014  19.016  0.00  0.00    +0.000 NA
ATOM     18  C   UNL     1      -0.194  10.290  20.448  0.00  0.00    +0.000 C 
ATOM     19  C   UNL     1      -0.411  11.782  20.736  0.00  0.00    +0.000 C 
ATOM     20  N   UNL     1      -1.606  12.236  20.019  0.00  0.00    +0.000 N 
ATOM     21  C   UNL     1      -1.583  11.978  18.565  0.00  0.00    +0.000 C 
ATOM     22  C   UNL     1      -1.049  10.553  18.218  0.00  0.00    +0.000 C 
BRANCH  20  23
ATOM     23  C   UNL     1      -2.775  12.526  20.700  0.00  0.00    +0.000 A 
ATOM     24  C   UNL     1      -4.005  12.712  20.039  0.00  0.00    +0.000 A 
ATOM     25  C   UNL     1      -5.203  12.908  20.736  0.00  0.00    +0.000 A 
ATOM     26  C   UNL     1      -5.201  12.934  22.122  0.00  0.00    +0.000 A 
ATOM     27  C   UNL     1      -3.996  12.780  22.800  0.00  0.00    +0.000 A 
ATOM     28 CL   UNL     1      -3.985  12.799  24.521  0.00  0.00    +0.000 Cl
ATOM     29  C   UNL     1      -2.800  12.585  22.101  0.00  0.00    +0.000 A 
ENDBRANCH  20  23
ENDBRANCH  16  17
ENDBRANCH   1  16
TORSDOF 7
ENDMDL
MODEL 6
REMARK VINA RESULT:      -7.6      7.036     10.613
REMARK  Name = 
REMARK  7 active torsions:
REMARK  status: ('A' for Active; 'I' for Inactive)
REMARK    1  A    between atoms: N_10  and  C_11
REMARK    2  A    between atoms: C_11  and  C_12
REMARK    3  A    between atoms: C_12  and  C_13
REMARK    4  A    between atoms: C_13  and  C_14
REMARK    5  A    between atoms: C_14  and  C_15
REMARK    6  A    between atoms: C_15  and  N_16
REMARK    7  A    between atoms: N_19  and  C_20
REMARK                            x       y       z     vdW  Elec       q    Type
REMARK                         _______ _______ _______ _____ _____    ______ ____
ROOT
ATOM      1  C   UNL     1       1.746   9.477  17.843  0.00  0.00    +0.000 C 
ENDROOT
BRANCH   1   2
ATOM      2  C   UNL     1       1.972   7.969  17.777  0.00  0.00    +0.000 C 
BRANCH   2   3
ATOM      3  C   UNL     1       3.412   7.636  18.220  0.00  0.00    +0.000 C 
BRANCH   3   4
ATOM      4  C   UNL     1       4.113   6.635  17.294  0.00  0.00    +0.000 C 
BRANCH   4  14
ATOM      5  O   UNL     1       6.660   5.566  18.438  0.00  0.00    +0.000 OA
ATOM      6  C   UNL     1       5.600   4.962  18.460  0.00  0.00    +0.000 A 
ATOM      7  N   UNL     1       5.387   3.698  19.038  0.00  0.00    +0.000 N 
ATOM      8  C   UNL     1       4.058   3.339  18.862  0.00  0.00    +0.000 A 
ATOM      9  C   UNL     1       3.407   2.197  19.269  0.00  0.00    +0.000 A 
ATOM     10  C   UNL     1       2.049   2.101  18.955  0.00  0.00    +0.000 A 
ATOM     11  C   UNL     1       1.388   3.134  18.256  0.00  0.00    +0.000 A 
ATOM     12  C   UNL     1       2.067   4.290  17.857  0.00  0.00    +0.000 A 
ATOM     13  C   UNL     1       3.409   4.365  18.172  0.00  0.00    +0.000 A 
ATOM     14  N   UNL     1       4.356   5.367  17.929  0.00  0.00    +0.000 N 
ATOM     15  H   UNL     1       6.107   3.173  19.505  0.00  0.00    +0.000 HD
ENDBRANCH   4  14
ENDBRANCH   3   4
ENDBRANCH   2   3
ENDBRANCH   1   2
BRANCH   1  16
ATOM     16  C   UNL     1       1.416  10.088  19.212  0.00  0.00    +0.000 C 
BRANCH  16  17
ATOM     17  N   UNL     1       0.009   9.779  19.534  0.00  0.00    +0.000 NA
ATOM     18  C   UNL     1      -0.345  10.008  20.955  0.00  0.00    +0.000 C 
ATOM     19  C   UNL     1      -0.404  11.497  21.322  0.00  0.00    +0.000 C 
ATOM     20  N   UNL     1      -1.471  12.135  20.548  0.00  0.00    +0.000 N 
ATOM     21  C   UNL     1      -1.357  11.958  19.085  0.00  0.00    +0.000 C 
ATOM     22  C   UNL     1      -0.972  10.498  18.689  0.00  0.00    +0.000 C 
BRANCH  20  23
ATOM     23  C   UNL     1      -2.650  12.533  21.154  0.00  0.00    +0.000 A 
ATOM     24  C   UNL     1      -3.742  13.036  20.422  0.00  0.00    +0.000 A 
ATOM     25  C   UNL     1      -4.966  13.344  21.026  0.00  0.00    +0.000 A 
ATOM     26  C   UNL     1      -5.128  13.165  22.391  0.00  0.00    +0.000 A 
ATOM     27  C   UNL     1      -4.058  12.694  23.143  0.00  0.00    +0.000 A 
ATOM     28 CL   UNL     1      -4.252  12.458  24.838  0.00  0.00    +0.000 Cl
ATOM     29  C   UNL     1      -2.835  12.388  22.537  0.00  0.00    +0.000 A 
ENDBRANCH  20  23
ENDBRANCH  16  17
ENDBRANCH   1  16
TORSDOF 7
ENDMDL
MODEL 7
REMARK VINA RESULT:      -7.5      6.795      9.720
REMARK  Name = 
REMARK  7 active torsions:
REMARK  status: ('A' for Active; 'I' for Inactive)
REMARK    1  A    between atoms: N_10  and  C_11
REMARK    2  A    between atoms: C_11  and  C_12
REMARK    3  A    between atoms: C_12  and  C_13
REMARK    4  A    between atoms: C_13  and  C_14
REMARK    5  A    between atoms: C_14  and  C_15
REMARK    6  A    between atoms: C_15  and  N_16
REMARK    7  A    between atoms: N_19  and  C_20
REMARK                            x       y       z     vdW  Elec       q    Type
REMARK                         _______ _______ _______ _____ _____    ______ ____
ROOT
ATOM      1  C   UNL     1       2.119   7.283  19.841  0.00  0.00    +0.000 C 
ENDROOT
BRANCH   1   2
ATOM      2  C   UNL     1       2.104   5.855  20.381  0.00  0.00    +0.000 C 
BRANCH   2   3
ATOM      3  C   UNL     1       1.658   4.881  19.271  0.00  0.00    +0.000 C 
BRANCH   3   4
ATOM      4  C   UNL     1       2.545   4.942  18.021  0.00  0.00    +0.000 C 
BRANCH   4  14
ATOM      5  O   UNL     1       3.728   2.502  19.281  0.00  0.00    +0.000 OA
ATOM      6  C   UNL     1       4.388   3.451  18.887  0.00  0.00    +0.000 A 
ATOM      7  N   UNL     1       5.790   3.549  18.929  0.00  0.00    +0.000 N 
ATOM      8  C   UNL     1       6.173   4.772  18.395  0.00  0.00    +0.000 A 
ATOM      9  C   UNL     1       7.437   5.289  18.230  0.00  0.00    +0.000 A 
ATOM     10  C   UNL     1       7.528   6.559  17.655  0.00  0.00    +0.000 A 
ATOM     11  C   UNL     1       6.371   7.265  17.263  0.00  0.00    +0.000 A 
ATOM     12  C   UNL     1       5.094   6.719  17.433  0.00  0.00    +0.000 A 
ATOM     13  C   UNL     1       5.024   5.466  18.008  0.00  0.00    +0.000 A 
ATOM     14  N   UNL     1       3.925   4.651  18.305  0.00  0.00    +0.000 N 
ATOM     15  H   UNL     1       6.387   2.823  19.287  0.00  0.00    +0.000 HD
ENDBRANCH   4  14
ENDBRANCH   3   4
ENDBRANCH   2   3
ENDBRANCH   1   2
BRANCH   1  16
ATOM     16  C   UNL     1       1.684   8.407  20.791  0.00  0.00    +0.000 C 
BRANCH  16  17
ATOM     17  N   UNL     1       0.272   8.735  20.509  0.00  0.00    +0.000 NA
ATOM     18  C   UNL     1      -0.572   8.839  21.723  0.00  0.00    +0.000 C 
ATOM     19  C   UNL     1      -0.265  10.091  22.557  0.00  0.00    +0.000 C 
ATOM     20  N   UNL     1      -0.578  11.281  21.762  0.00  0.00    +0.000 N 
ATOM     21  C   UNL     1       0.105  11.340  20.453  0.00  0.00    +0.000 C 
ATOM     22  C   UNL     1       0.090   9.967  19.709  0.00  0.00    +0.000 C 
BRANCH  20  23
ATOM     23  C   UNL     1      -1.681  12.062  22.056  0.00  0.00    +0.000 A 
ATOM     24  C   UNL     1      -2.182  13.026  21.159  0.00  0.00    +0.000 A 
ATOM     25  C   UNL     1      -3.355  13.745  21.416  0.00  0.00    +0.000 A 
ATOM     26  C   UNL     1      -4.058  13.525  22.591  0.00  0.00    +0.000 A 
ATOM     27  C   UNL     1      -3.571  12.598  23.506  0.00  0.00    +0.000 A 
ATOM     28 CL   UNL     1      -4.443  12.308  24.963  0.00  0.00    +0.000 Cl
ATOM     29  C   UNL     1      -2.398  11.881  23.247  0.00  0.00    +0.000 A 
ENDBRANCH  20  23
ENDBRANCH  16  17
ENDBRANCH   1  16
TORSDOF 7
ENDMDL
MODEL 8
REMARK VINA RESULT:      -7.4      7.173     10.975
REMARK  Name = 
REMARK  7 active torsions:
REMARK  status: ('A' for Active; 'I' for Inactive)
REMARK    1  A    between atoms: N_10  and  C_11
REMARK    2  A    between atoms: C_11  and  C_12
REMARK    3  A    between atoms: C_12  and  C_13
REMARK    4  A    between atoms: C_13  and  C_14
REMARK    5  A    between atoms: C_14  and  C_15
REMARK    6  A    between atoms: C_15  and  N_16
REMARK    7  A    between atoms: N_19  and  C_20
REMARK                            x       y       z     vdW  Elec       q    Type
REMARK                         _______ _______ _______ _____ _____    ______ ____
ROOT
ATOM      1  C   UNL     1       1.777   8.836  19.019  0.00  0.00    +0.000 C 
ENDROOT
BRANCH   1   2
ATOM      2  C   UNL     1       2.279   8.074  17.795  0.00  0.00    +0.000 C 
BRANCH   2   3
ATOM      3  C   UNL     1       3.509   7.225  18.174  0.00  0.00    +0.000 C 
BRANCH   3   4
ATOM      4  C   UNL     1       3.558   5.874  17.450  0.00  0.00    +0.000 C 
BRANCH   4  14
ATOM      5  O   UNL     1       6.101   4.329  17.751  0.00  0.00    +0.000 OA
ATOM      6  C   UNL     1       5.098   4.125  18.418  0.00  0.00    +0.000 A 
ATOM      7  N   UNL     1       4.975   3.169  19.441  0.00  0.00    +0.000 N 
ATOM      8  C   UNL     1       3.690   3.231  19.965  0.00  0.00    +0.000 A 
ATOM      9  C   UNL     1       3.130   2.490  20.980  0.00  0.00    +0.000 A 
ATOM     10  C   UNL     1       1.801   2.771  21.305  0.00  0.00    +0.000 A 
ATOM     11  C   UNL     1       1.080   3.772  20.619  0.00  0.00    +0.000 A 
ATOM     12  C   UNL     1       1.670   4.520  19.595  0.00  0.00    +0.000 A 
ATOM     13  C   UNL     1       2.982   4.224  19.284  0.00  0.00    +0.000 A 
ATOM     14  N   UNL     1       3.850   4.779  18.336  0.00  0.00    +0.000 N 
ATOM     15  H   UNL     1       5.723   2.561  19.727  0.00  0.00    +0.000 HD
ENDBRANCH   4  14
ENDBRANCH   3   4
ENDBRANCH   2   3
ENDBRANCH   1   2
BRANCH   1  16
ATOM     16  C   UNL     1       0.622   9.824  18.817  0.00  0.00    +0.000 C 
BRANCH  16  17
ATOM     17  N   UNL     1       0.860  11.002  19.676  0.00  0.00    +0.000 NA
ATOM     18  C   UNL     1      -0.162  12.066  19.529  0.00  0.00    +0.000 C 
ATOM     19  C   UNL     1      -1.517  11.678  20.137  0.00  0.00    +0.000 C 
ATOM     20  N   UNL     1      -1.355  11.489  21.580  0.00  0.00    +0.000 N 
ATOM     21  C   UNL     1      -0.311  10.514  21.957  0.00  0.00    +0.000 C 
ATOM     22  C   UNL     1       0.993  10.679  21.115  0.00  0.00    +0.000 C 
BRANCH  20  23
ATOM     23  C   UNL     1      -1.868  12.408  22.479  0.00  0.00    +0.000 A 
ATOM     24  C   UNL     1      -1.061  13.371  23.115  0.00  0.00    +0.000 A 
ATOM     25  C   UNL     1      -1.597  14.361  23.946  0.00  0.00    +0.000 A 
ATOM     26  C   UNL     1      -2.963  14.407  24.175  0.00  0.00    +0.000 A 
ATOM     27  C   UNL     1      -3.781  13.452  23.581  0.00  0.00    +0.000 A 
ATOM     28 CL   UNL     1      -5.481  13.508  23.849  0.00  0.00    +0.000 Cl
ATOM     29  C   UNL     1      -3.243  12.463  22.750  0.00  0.00    +0.000 A 
ENDBRANCH  20  23
ENDBRANCH  16  17
ENDBRANCH   1  16
TORSDOF 7
ENDMDL
MODEL 9
REMARK VINA RESULT:      -7.4      4.071     11.099
REMARK  Name = 
REMARK  7 active torsions:
REMARK  status: ('A' for Active; 'I' for Inactive)
REMARK    1  A    between atoms: N_10  and  C_11
REMARK    2  A    between atoms: C_11  and  C_12
REMARK    3  A    between atoms: C_12  and  C_13
REMARK    4  A    between atoms: C_13  and  C_14
REMARK    5  A    between atoms: C_14  and  C_15
REMARK    6  A    between atoms: C_15  and  N_16
REMARK    7  A    between atoms: N_19  and  C_20
REMARK                            x       y       z     vdW  Elec       q    Type
REMARK                         _______ _______ _______ _____ _____    ______ ____
ROOT
ATOM      1  C   UNL     1       8.212   9.484  17.746  0.00  0.00    +0.000 C 
ENDROOT
BRANCH   1   2
ATOM      2  C   UNL     1       7.869   8.000  17.843  0.00  0.00    +0.000 C 
BRANCH   2   3
ATOM      3  C   UNL     1       6.413   7.768  17.390  0.00  0.00    +0.000 C 
BRANCH   3   4
ATOM      4  C   UNL     1       6.213   6.436  16.656  0.00  0.00    +0.000 C 
BRANCH   4  14
ATOM      5  O   UNL     1       7.857   4.412  18.119  0.00  0.00    +0.000 OA
ATOM      6  C   UNL     1       6.640   4.483  18.195  0.00  0.00    +0.000 A 
ATOM      7  N   UNL     1       5.819   3.663  18.989  0.00  0.00    +0.000 N 
ATOM      8  C   UNL     1       4.495   4.041  18.810  0.00  0.00    +0.000 A 
ATOM      9  C   UNL     1       3.360   3.523  19.388  0.00  0.00    +0.000 A 
ATOM     10  C   UNL     1       2.144   4.108  19.024  0.00  0.00    +0.000 A 
ATOM     11  C   UNL     1       2.099   5.181  18.108  0.00  0.00    +0.000 A 
ATOM     12  C   UNL     1       3.267   5.698  17.536  0.00  0.00    +0.000 A 
ATOM     13  C   UNL     1       4.457   5.103  17.904  0.00  0.00    +0.000 A 
ATOM     14  N   UNL     1       5.777   5.380  17.530  0.00  0.00    +0.000 N 
ATOM     15  H   UNL     1       6.173   2.934  19.585  0.00  0.00    +0.000 HD
ENDBRANCH   4  14
ENDBRANCH   3   4
ENDBRANCH   2   3
ENDBRANCH   1   2
BRANCH   1  16
ATOM     16  C   UNL     1       9.093  10.083  18.850  0.00  0.00    +0.000 C 
BRANCH  16  17
ATOM     17  N   UNL     1       9.977  11.098  18.242  0.00  0.00    +0.000 NA
ATOM     18  C   UNL     1       9.274  12.340  17.840  0.00  0.00    +0.000 C 
ATOM     19  C   UNL     1       8.833  13.190  19.040  0.00  0.00    +0.000 C 
ATOM     20  N   UNL     1      10.022  13.633  19.772  0.00  0.00    +0.000 N 
ATOM     21  C   UNL     1      10.920  12.542  20.202  0.00  0.00    +0.000 C 
ATOM     22  C   UNL     1      11.134  11.470  19.087  0.00  0.00    +0.000 C 
BRANCH  20  23
ATOM     23  C   UNL     1      10.434  14.954  19.725  0.00  0.00    +0.000 A 
ATOM     24  C   UNL     1      11.636  15.389  20.314  0.00  0.00    +0.000 A 
ATOM     25  C   UNL     1      12.099  16.703  20.181  0.00  0.00    +0.000 A 
ATOM     26  C   UNL     1      11.359  17.627  19.458  0.00  0.00    +0.000 A 
ATOM     27  C   UNL     1      10.154  17.231  18.888  0.00  0.00    +0.000 A 
ATOM     28 CL   UNL     1       9.234  18.367  17.978  0.00  0.00    +0.000 Cl
ATOM     29  C   UNL     1       9.694  15.917  19.023  0.00  0.00    +0.000 A 
ENDBRANCH  20  23
ENDBRANCH  16  17
ENDBRANCH   1  16
TORSDOF 7
ENDMDL
