MODEL 1
REMARK VINA RESULT:      -7.5      0.000      0.000
REMARK  Name = 
REMARK  6 active torsions:
REMARK  status: ('A' for Active; 'I' for Inactive)
REMARK    1  A    between atoms: C_1  and  O_2
REMARK    2  A    between atoms: O_2  and  C_3
REMARK    3  A    between atoms: C_5  and  C_6
REMARK    4  A    between atoms: C_6  and  O_8
REMARK    5  A    between atoms: C_14  and  C_16
REMARK    6  A    between atoms: C_18  and  C_19
REMARK                            x       y       z     vdW  Elec       q    Type
REMARK                         _______ _______ _______ _____ _____    ______ ____
ROOT
ATOM      1  C   UNL     1       3.717   4.201  17.700  0.00  0.00    +0.000 A 
ATOM      2  C   UNL     1       4.683   3.767  16.775  0.00  0.00    +0.000 A 
ATOM      3  C   UNL     1       5.399   4.686  16.001  0.00  0.00    +0.000 A 
ATOM      4  C   UNL     1       5.181   6.060  16.143  0.00  0.00    +0.000 A 
ATOM      5  C   UNL     1       4.210   6.489  17.060  0.00  0.00    +0.000 A 
ATOM      6  S   UNL     1       3.715   8.097  17.414  0.00  0.00    +0.000 S 
ATOM      7  C   UNL     1       2.586   7.511  18.538  0.00  0.00    +0.000 A 
ATOM      8  N   UNL     1       1.756   8.336  19.254  0.00  0.00    +0.000 N 
ATOM      9  C   UNL     1       1.509   9.670  19.033  0.00  0.00    +0.000 C 
ATOM     10  O   UNL     1       2.015  10.356  18.154  0.00  0.00    +0.000 OA
ATOM     11  N   UNL     1       2.570   6.211  18.710  0.00  0.00    +0.000 NA
ATOM     12  C   UNL     1       3.476   5.597  17.845  0.00  0.00    +0.000 A 
ATOM     13  H   UNL     1       1.214   7.842  19.950  0.00  0.00    +0.000 HD
ENDROOT
BRANCH   9  14
ATOM     14  C   UNL     1       0.514  10.262  19.918  0.00  0.00    +0.000 A 
ATOM     15  N   UNL     1      -0.450  11.121  19.417  0.00  0.00    +0.000 N 
ATOM     16  C   UNL     1      -1.312  11.521  20.408  0.00  0.00    +0.000 A 
ATOM     17  C   UNL     1      -2.472  12.412  20.145  0.00  0.00    +0.000 C 
ATOM     18  C   UNL     1      -0.877  10.942  21.580  0.00  0.00    +0.000 A 
ATOM     19 CL   UNL     1      -1.594  11.118  23.115  0.00  0.00    +0.000 Cl
ATOM     20  C   UNL     1       0.271  10.160  21.278  0.00  0.00    +0.000 A 
ATOM     21 CL   UNL     1       1.149   9.258  22.433  0.00  0.00    +0.000 Cl
ATOM     22  H   UNL     1      -0.505  11.382  18.438  0.00  0.00    +0.000 HD
ENDBRANCH   9  14
BRANCH   1  24
ATOM     23  C   UNL     1       2.689   2.054  17.894  0.00  0.00    +0.000 C 
ATOM     24  O   UNL     1       2.945   3.340  18.446  0.00  0.00    +0.000 OA
ENDBRANCH   1  24
BRANCH   3  25
ATOM     25  C   UNL     1       6.445   4.262  15.035  0.00  0.00    +0.000 C 
ATOM     26  O   UNL     1       7.541   4.795  14.985  0.00  0.00    +0.000 OA
BRANCH  25  27
ATOM     27  O   UNL     1       6.072   3.269  14.204  0.00  0.00    +0.000 OA
ATOM     28  H   UNL     1       5.753   2.453  14.630  0.00  0.00    +0.000 HD
ENDBRANCH  25  27
ENDBRANCH   3  25
TORSDOF 4
ENDMDL
MODEL 2
REMARK VINA RESULT:      -7.5      1.403      1.735
REMARK  Name = 
REMARK  6 active torsions:
REMARK  status: ('A' for Active; 'I' for Inactive)
REMARK    1  A    between atoms: C_1  and  O_2
REMARK    2  A    between atoms: O_2  and  C_3
REMARK    3  A    between atoms: C_5  and  C_6
REMARK    4  A    between atoms: C_6  and  O_8
REMARK    5  A    between atoms: C_14  and  C_16
REMARK    6  A    between atoms: C_18  and  C_19
REMARK                            x       y       z     vdW  Elec       q    Type
REMARK                         _______ _______ _______ _____ _____    ______ ____
ROOT
ATOM      1  C   UNL     1       4.173   4.232  17.521  0.00  0.00    +0.000 A 
ATOM      2  C   UNL     1       5.090   3.853  16.524  0.00  0.00    +0.000 A 
ATOM      3  C   UNL     1       5.637   4.803  15.655  0.00  0.00    +0.000 A 
ATOM      4  C   UNL     1       5.297   6.155  15.770  0.00  0.00    +0.000 A 
ATOM      5  C   UNL     1       4.376   6.527  16.760  0.00  0.00    +0.000 A 
ATOM      6  S   UNL     1       3.757   8.094  17.105  0.00  0.00    +0.000 S 
ATOM      7  C   UNL     1       2.800   7.451  18.350  0.00  0.00    +0.000 A 
ATOM      8  N   UNL     1       1.960   8.223  19.113  0.00  0.00    +0.000 N 
ATOM      9  C   UNL     1       1.563   9.516  18.871  0.00  0.00    +0.000 C 
ATOM     10  O   UNL     1       1.915  10.209  17.925  0.00  0.00    +0.000 OA
ATOM     11  N   UNL     1       2.929   6.164  18.567  0.00  0.00    +0.000 NA
ATOM     12  C   UNL     1       3.809   5.604  17.641  0.00  0.00    +0.000 A 
ATOM     13  H   UNL     1       1.536   7.709  19.874  0.00  0.00    +0.000 HD
ENDROOT
BRANCH   9  14
ATOM     14  C   UNL     1       0.598  10.047  19.827  0.00  0.00    +0.000 A 
ATOM     15  N   UNL     1       0.524   9.533  21.110  0.00  0.00    +0.000 N 
ATOM     16  C   UNL     1      -0.412  10.207  21.854  0.00  0.00    +0.000 A 
ATOM     17  C   UNL     1      -0.672   9.894  23.284  0.00  0.00    +0.000 C 
ATOM     18  C   UNL     1      -0.982  11.151  21.029  0.00  0.00    +0.000 A 
ATOM     19 CL   UNL     1      -2.206  12.256  21.458  0.00  0.00    +0.000 Cl
ATOM     20  C   UNL     1      -0.358  11.047  19.755  0.00  0.00    +0.000 A 
ATOM     21 CL   UNL     1      -0.749  12.027  18.412  0.00  0.00    +0.000 Cl
ATOM     22  H   UNL     1       1.113   8.774  21.438  0.00  0.00    +0.000 HD
ENDBRANCH   9  14
BRANCH   1  24
ATOM     23  C   UNL     1       4.248   3.004  19.568  0.00  0.00    +0.000 C 
ATOM     24  O   UNL     1       3.562   3.334  18.365  0.00  0.00    +0.000 OA
ENDBRANCH   1  24
BRANCH   3  25
ATOM     25  C   UNL     1       6.628   4.441  14.609  0.00  0.00    +0.000 C 
ATOM     26  O   UNL     1       7.612   5.122  14.379  0.00  0.00    +0.000 OA
BRANCH  25  27
ATOM     27  O   UNL     1       6.332   3.321  13.920  0.00  0.00    +0.000 OA
ATOM     28  H   UNL     1       7.091   2.840  13.541  0.00  0.00    +0.000 HD
ENDBRANCH  25  27
ENDBRANCH   3  25
TORSDOF 4
ENDMDL
MODEL 3
REMARK VINA RESULT:      -7.3      2.226      3.316
REMARK  Name = 
REMARK  6 active torsions:
REMARK  status: ('A' for Active; 'I' for Inactive)
REMARK    1  A    between atoms: C_1  and  O_2
REMARK    2  A    between atoms: O_2  and  C_3
REMARK    3  A    between atoms: C_5  and  C_6
REMARK    4  A    between atoms: C_6  and  O_8
REMARK    5  A    between atoms: C_14  and  C_16
REMARK    6  A    between atoms: C_18  and  C_19
REMARK                            x       y       z     vdW  Elec       q    Type
REMARK                         _______ _______ _______ _____ _____    ______ ____
ROOT
ATOM      1  C   UNL     1       4.153   5.218  17.676  0.00  0.00    +0.000 A 
ATOM      2  C   UNL     1       4.549   3.896  17.947  0.00  0.00    +0.000 A 
ATOM      3  C   UNL     1       4.113   3.239  19.102  0.00  0.00    +0.000 A 
ATOM      4  C   UNL     1       3.257   3.878  20.005  0.00  0.00    +0.000 A 
ATOM      5  C   UNL     1       2.871   5.199  19.735  0.00  0.00    +0.000 A 
ATOM      6  S   UNL     1       1.864   6.228  20.677  0.00  0.00    +0.000 S 
ATOM      7  C   UNL     1       2.066   7.475  19.543  0.00  0.00    +0.000 A 
ATOM      8  N   UNL     1       1.488   8.711  19.690  0.00  0.00    +0.000 N 
ATOM      9  C   UNL     1       0.895   9.228  20.817  0.00  0.00    +0.000 C 
ATOM     10  O   UNL     1       0.769   8.651  21.889  0.00  0.00    +0.000 OA
ATOM     11  N   UNL     1       2.790   7.182  18.490  0.00  0.00    +0.000 NA
ATOM     12  C   UNL     1       3.292   5.884  18.594  0.00  0.00    +0.000 A 
ATOM     13  H   UNL     1       1.622   9.307  18.884  0.00  0.00    +0.000 HD
ENDROOT
BRANCH   9  14
ATOM     14  C   UNL     1       0.437  10.606  20.688  0.00  0.00    +0.000 A 
ATOM     15  N   UNL     1       0.774  11.358  19.575  0.00  0.00    +0.000 N 
ATOM     16  C   UNL     1       0.200  12.603  19.634  0.00  0.00    +0.000 A 
ATOM     17  C   UNL     1       0.359  13.608  18.549  0.00  0.00    +0.000 C 
ATOM     18  C   UNL     1      -0.491  12.675  20.823  0.00  0.00    +0.000 A 
ATOM     19 CL   UNL     1      -1.383  14.011  21.390  0.00  0.00    +0.000 Cl
ATOM     20  C   UNL     1      -0.338  11.429  21.490  0.00  0.00    +0.000 A 
ATOM     21 CL   UNL     1      -1.027  11.061  23.010  0.00  0.00    +0.000 Cl
ATOM     22  H   UNL     1       1.350  11.002  18.820  0.00  0.00    +0.000 HD
ENDBRANCH   9  14
BRANCH   1  24
ATOM     23  C   UNL     1       5.471   5.262  15.685  0.00  0.00    +0.000 C 
ATOM     24  O   UNL     1       4.597   5.931  16.586  0.00  0.00    +0.000 OA
ENDBRANCH   1  24
BRANCH   3  25
ATOM     25  C   UNL     1       4.491   1.835  19.405  0.00  0.00    +0.000 C 
ATOM     26  O   UNL     1       5.099   1.525  20.415  0.00  0.00    +0.000 OA
BRANCH  25  27
ATOM     27  O   UNL     1       4.136   0.943  18.459  0.00  0.00    +0.000 OA
ATOM     28  H   UNL     1       3.440   1.231  17.840  0.00  0.00    +0.000 HD
ENDBRANCH  25  27
ENDBRANCH   3  25
TORSDOF 4
ENDMDL
MODEL 4
REMARK VINA RESULT:      -7.2      1.007      1.189
REMARK  Name = 
REMARK  6 active torsions:
REMARK  status: ('A' for Active; 'I' for Inactive)
REMARK    1  A    between atoms: C_1  and  O_2
REMARK    2  A    between atoms: O_2  and  C_3
REMARK    3  A    between atoms: C_5  and  C_6
REMARK    4  A    between atoms: C_6  and  O_8
REMARK    5  A    between atoms: C_14  and  C_16
REMARK    6  A    between atoms: C_18  and  C_19
REMARK                            x       y       z     vdW  Elec       q    Type
REMARK                         _______ _______ _______ _____ _____    ______ ____
ROOT
ATOM      1  C   UNL     1       3.694   4.479  19.039  0.00  0.00    +0.000 A 
ATOM      2  C   UNL     1       4.586   3.920  18.106  0.00  0.00    +0.000 A 
ATOM      3  C   UNL     1       5.056   4.672  17.024  0.00  0.00    +0.000 A 
ATOM      4  C   UNL     1       4.664   6.004  16.857  0.00  0.00    +0.000 A 
ATOM      5  C   UNL     1       3.768   6.555  17.785  0.00  0.00    +0.000 A 
ATOM      6  S   UNL     1       3.098   8.139  17.808  0.00  0.00    +0.000 S 
ATOM      7  C   UNL     1       2.219   7.755  19.208  0.00  0.00    +0.000 A 
ATOM      8  N   UNL     1       1.379   8.648  19.824  0.00  0.00    +0.000 N 
ATOM      9  C   UNL     1       0.917   9.843  19.325  0.00  0.00    +0.000 C 
ATOM     10  O   UNL     1       1.201  10.321  18.234  0.00  0.00    +0.000 OA
ATOM     11  N   UNL     1       2.412   6.553  19.695  0.00  0.00    +0.000 NA
ATOM     12  C   UNL     1       3.277   5.831  18.873  0.00  0.00    +0.000 A 
ATOM     13  H   UNL     1       1.008   8.302  20.699  0.00  0.00    +0.000 HD
ENDROOT
BRANCH   9  14
ATOM     14  C   UNL     1      -0.030  10.540  20.186  0.00  0.00    +0.000 A 
ATOM     15  N   UNL     1      -0.903  11.476  19.657  0.00  0.00    +0.000 N 
ATOM     16  C   UNL     1      -1.736  11.971  20.630  0.00  0.00    +0.000 A 
ATOM     17  C   UNL     1      -2.805  12.962  20.336  0.00  0.00    +0.000 C 
ATOM     18  C   UNL     1      -1.373  11.374  21.816  0.00  0.00    +0.000 A 
ATOM     19 CL   UNL     1      -2.090  11.642  23.339  0.00  0.00    +0.000 Cl
ATOM     20  C   UNL     1      -0.299  10.484  21.544  0.00  0.00    +0.000 A 
ATOM     21 CL   UNL     1       0.476   9.523  22.726  0.00  0.00    +0.000 Cl
ATOM     22  H   UNL     1      -0.920  11.725  18.674  0.00  0.00    +0.000 HD
ENDBRANCH   9  14
BRANCH   1  24
ATOM     23  C   UNL     1       2.380   2.622  19.765  0.00  0.00    +0.000 C 
ATOM     24  O   UNL     1       3.156   3.770  20.088  0.00  0.00    +0.000 OA
ENDBRANCH   1  24
BRANCH   3  25
ATOM     25  C   UNL     1       6.019   4.120  16.036  0.00  0.00    +0.000 C 
ATOM     26  O   UNL     1       5.671   3.721  14.938  0.00  0.00    +0.000 OA
BRANCH  25  27
ATOM     27  O   UNL     1       7.295   4.069  16.465  0.00  0.00    +0.000 OA
ATOM     28  H   UNL     1       7.821   4.880  16.338  0.00  0.00    +0.000 HD
ENDBRANCH  25  27
ENDBRANCH   3  25
TORSDOF 4
ENDMDL
MODEL 5
REMARK VINA RESULT:      -7.2      2.311      2.794
REMARK  Name = 
REMARK  6 active torsions:
REMARK  status: ('A' for Active; 'I' for Inactive)
REMARK    1  A    between atoms: C_1  and  O_2
REMARK    2  A    between atoms: O_2  and  C_3
REMARK    3  A    between atoms: C_5  and  C_6
REMARK    4  A    between atoms: C_6  and  O_8
REMARK    5  A    between atoms: C_14  and  C_16
REMARK    6  A    between atoms: C_18  and  C_19
REMARK                            x       y       z     vdW  Elec       q    Type
REMARK                         _______ _______ _______ _____ _____    ______ ____
ROOT
ATOM      1  C   UNL     1       2.536   4.643  20.318  0.00  0.00    +0.000 A 
ATOM      2  C   UNL     1       3.152   3.799  19.376  0.00  0.00    +0.000 A 
ATOM      3  C   UNL     1       3.546   4.286  18.125  0.00  0.00    +0.000 A 
ATOM      4  C   UNL     1       3.351   5.630  17.790  0.00  0.00    +0.000 A 
ATOM      5  C   UNL     1       2.728   6.466  18.729  0.00  0.00    +0.000 A 
ATOM      6  S   UNL     1       2.336   8.134  18.575  0.00  0.00    +0.000 S 
ATOM      7  C   UNL     1       1.660   8.126  20.132  0.00  0.00    +0.000 A 
ATOM      8  N   UNL     1       1.093   9.240  20.699  0.00  0.00    +0.000 N 
ATOM      9  C   UNL     1       0.751  10.415  20.073  0.00  0.00    +0.000 C 
ATOM     10  O   UNL     1       0.918  10.670  18.887  0.00  0.00    +0.000 OA
ATOM     11  N   UNL     1       1.737   6.992  20.785  0.00  0.00    +0.000 NA
ATOM     12  C   UNL     1       2.320   6.011  19.984  0.00  0.00    +0.000 A 
ATOM     13  H   UNL     1       0.826   9.098  21.664  0.00  0.00    +0.000 HD
ENDROOT
BRANCH   9  14
ATOM     14  C   UNL     1       0.090  11.393  20.929  0.00  0.00    +0.000 A 
ATOM     15  N   UNL     1      -1.065  11.059  21.616  0.00  0.00    +0.000 N 
ATOM     16  C   UNL     1      -1.490  12.105  22.396  0.00  0.00    +0.000 A 
ATOM     17  C   UNL     1      -2.685  12.011  23.276  0.00  0.00    +0.000 C 
ATOM     18  C   UNL     1      -0.617  13.149  22.184  0.00  0.00    +0.000 A 
ATOM     19 CL   UNL     1      -0.694  14.688  22.910  0.00  0.00    +0.000 Cl
ATOM     20  C   UNL     1       0.369  12.709  21.258  0.00  0.00    +0.000 A 
ATOM     21 CL   UNL     1       1.661  13.677  20.700  0.00  0.00    +0.000 Cl
ATOM     22  H   UNL     1      -1.504  10.146  21.551  0.00  0.00    +0.000 HD
ENDBRANCH   9  14
BRANCH   1  24
ATOM     23  C   UNL     1       1.622   2.859  21.616  0.00  0.00    +0.000 C 
ATOM     24  O   UNL     1       2.078   4.205  21.539  0.00  0.00    +0.000 OA
ENDBRANCH   1  24
BRANCH   3  25
ATOM     25  C   UNL     1       4.223   3.429  17.119  0.00  0.00    +0.000 C 
ATOM     26  O   UNL     1       4.683   3.877  16.083  0.00  0.00    +0.000 OA
BRANCH  25  27
ATOM     27  O   UNL     1       4.258   2.118  17.432  0.00  0.00    +0.000 OA
ATOM     28  H   UNL     1       4.437   1.508  16.693  0.00  0.00    +0.000 HD
ENDBRANCH  25  27
ENDBRANCH   3  25
TORSDOF 4
ENDMDL
MODEL 6
REMARK VINA RESULT:      -7.2      2.507      3.496
REMARK  Name = 
REMARK  6 active torsions:
REMARK  status: ('A' for Active; 'I' for Inactive)
REMARK    1  A    between atoms: C_1  and  O_2
REMARK    2  A    between atoms: O_2  and  C_3
REMARK    3  A    between atoms: C_5  and  C_6
REMARK    4  A    between atoms: C_6  and  O_8
REMARK    5  A    between atoms: C_14  and  C_16
REMARK    6  A    between atoms: C_18  and  C_19
REMARK                            x       y       z     vdW  Elec       q    Type
REMARK                         _______ _______ _______ _____ _____    ______ ____
ROOT
ATOM      1  C   UNL     1       4.264   5.374  17.504  0.00  0.00    +0.000 A 
ATOM      2  C   UNL     1       4.642   4.079  17.902  0.00  0.00    +0.000 A 
ATOM      3  C   UNL     1       4.154   3.521  19.087  0.00  0.00    +0.000 A 
ATOM      4  C   UNL     1       3.262   4.233  19.896  0.00  0.00    +0.000 A 
ATOM      5  C   UNL     1       2.893   5.527  19.500  0.00  0.00    +0.000 A 
ATOM      6  S   UNL     1       1.851   6.631  20.308  0.00  0.00    +0.000 S 
ATOM      7  C   UNL     1       2.106   7.780  19.085  0.00  0.00    +0.000 A 
ATOM      8  N   UNL     1       1.527   9.023  19.102  0.00  0.00    +0.000 N 
ATOM      9  C   UNL     1       0.888   9.633  20.156  0.00  0.00    +0.000 C 
ATOM     10  O   UNL     1       0.713   9.147  21.266  0.00  0.00    +0.000 OA
ATOM     11  N   UNL     1       2.874   7.399  18.092  0.00  0.00    +0.000 NA
ATOM     12  C   UNL     1       3.365   6.114  18.325  0.00  0.00    +0.000 A 
ATOM     13  H   UNL     1       1.699   9.550  18.257  0.00  0.00    +0.000 HD
ENDROOT
BRANCH   9  14
ATOM     14  C   UNL     1       0.441  10.996  19.893  0.00  0.00    +0.000 A 
ATOM     15  N   UNL     1      -0.751  11.459  20.425  0.00  0.00    +0.000 N 
ATOM     16  C   UNL     1      -0.954  12.776  20.096  0.00  0.00    +0.000 A 
ATOM     17  C   UNL     1      -2.136  13.544  20.570  0.00  0.00    +0.000 C 
ATOM     18  C   UNL     1       0.106  13.164  19.306  0.00  0.00    +0.000 A 
ATOM     19 CL   UNL     1       0.340  14.707  18.625  0.00  0.00    +0.000 Cl
ATOM     20  C   UNL     1       0.977  12.048  19.170  0.00  0.00    +0.000 A 
ATOM     21 CL   UNL     1       2.429  12.069  18.270  0.00  0.00    +0.000 Cl
ATOM     22  H   UNL     1      -1.362  10.886  20.999  0.00  0.00    +0.000 HD
ENDBRANCH   9  14
BRANCH   1  24
ATOM     23  C   UNL     1       5.511   5.194  15.476  0.00  0.00    +0.000 C 
ATOM     24  O   UNL     1       4.756   5.993  16.379  0.00  0.00    +0.000 OA
ENDBRANCH   1  24
BRANCH   3  25
ATOM     25  C   UNL     1       4.512   2.146  19.522  0.00  0.00    +0.000 C 
ATOM     26  O   UNL     1       5.056   1.920  20.589  0.00  0.00    +0.000 OA
BRANCH  25  27
ATOM     27  O   UNL     1       4.218   1.181  18.629  0.00  0.00    +0.000 OA
ATOM     28  H   UNL     1       3.445   1.349  18.058  0.00  0.00    +0.000 HD
ENDBRANCH  25  27
ENDBRANCH   3  25
TORSDOF 4
ENDMDL
MODEL 7
REMARK VINA RESULT:      -7.1      3.857      8.727
REMARK  Name = 
REMARK  6 active torsions:
REMARK  status: ('A' for Active; 'I' for Inactive)
REMARK    1  A    between atoms: C_1  and  O_2
REMARK    2  A    between atoms: O_2  and  C_3
REMARK    3  A    between atoms: C_5  and  C_6
REMARK    4  A    between atoms: C_6  and  O_8
REMARK    5  A    between atoms: C_14  and  C_16
REMARK    6  A    between atoms: C_18  and  C_19
REMARK                            x       y       z     vdW  Elec       q    Type
REMARK                         _______ _______ _______ _____ _____    ______ ____
ROOT
ATOM      1  C   UNL     1       0.161  11.920  21.287  0.00  0.00    +0.000 A 
ATOM      2  C   UNL     1       0.036  13.243  20.827  0.00  0.00    +0.000 A 
ATOM      3  C   UNL     1       0.437  13.594  19.533  0.00  0.00    +0.000 A 
ATOM      4  C   UNL     1       0.954  12.630  18.661  0.00  0.00    +0.000 A 
ATOM      5  C   UNL     1       1.084  11.313  19.126  0.00  0.00    +0.000 A 
ATOM      6  S   UNL     1       1.712   9.946  18.293  0.00  0.00    +0.000 S 
ATOM      7  C   UNL     1       1.448   8.980  19.662  0.00  0.00    +0.000 A 
ATOM      8  N   UNL     1       1.765   7.645  19.701  0.00  0.00    +0.000 N 
ATOM      9  C   UNL     1       2.538   6.944  18.806  0.00  0.00    +0.000 C 
ATOM     10  O   UNL     1       3.063   7.402  17.799  0.00  0.00    +0.000 OA
ATOM     11  N   UNL     1       0.887   9.577  20.687  0.00  0.00    +0.000 NA
ATOM     12  C   UNL     1       0.697  10.932  20.412  0.00  0.00    +0.000 A 
ATOM     13  H   UNL     1       1.456   7.191  20.549  0.00  0.00    +0.000 HD
ENDROOT
BRANCH   9  14
ATOM     14  C   UNL     1       2.763   5.547  19.157  0.00  0.00    +0.000 A 
ATOM     15  N   UNL     1       2.332   5.051  20.376  0.00  0.00    +0.000 N 
ATOM     16  C   UNL     1       2.600   3.708  20.479  0.00  0.00    +0.000 A 
ATOM     17  C   UNL     1       2.207   2.905  21.667  0.00  0.00    +0.000 C 
ATOM     18  C   UNL     1       3.249   3.335  19.324  0.00  0.00    +0.000 A 
ATOM     19 CL   UNL     1       3.807   1.770  18.943  0.00  0.00    +0.000 Cl
ATOM     20  C   UNL     1       3.361   4.486  18.497  0.00  0.00    +0.000 A 
ATOM     21 CL   UNL     1       4.100   4.494  16.957  0.00  0.00    +0.000 Cl
ATOM     22  H   UNL     1       1.861   5.620  21.071  0.00  0.00    +0.000 HD
ENDBRANCH   9  14
BRANCH   1  24
ATOM     23  C   UNL     1      -1.531  11.628  22.946  0.00  0.00    +0.000 C 
ATOM     24  O   UNL     1      -0.164  11.531  22.566  0.00  0.00    +0.000 OA
ENDBRANCH   1  24
BRANCH   3  25
ATOM     25  C   UNL     1       0.293  14.976  19.008  0.00  0.00    +0.000 C 
ATOM     26  O   UNL     1       1.254  15.660  18.700  0.00  0.00    +0.000 OA
BRANCH  25  27
ATOM     27  O   UNL     1      -0.977  15.417  18.930  0.00  0.00    +0.000 OA
ATOM     28  H   UNL     1      -1.354  15.781  19.753  0.00  0.00    +0.000 HD
ENDBRANCH  25  27
ENDBRANCH   3  25
TORSDOF 4
ENDMDL
MODEL 8
REMARK VINA RESULT:      -7.1      2.291      2.833
REMARK  Name = 
REMARK  6 active torsions:
REMARK  status: ('A' for Active; 'I' for Inactive)
REMARK    1  A    between atoms: C_1  and  O_2
REMARK    2  A    between atoms: O_2  and  C_3
REMARK    3  A    between atoms: C_5  and  C_6
REMARK    4  A    between atoms: C_6  and  O_8
REMARK    5  A    between atoms: C_14  and  C_16
REMARK    6  A    between atoms: C_18  and  C_19
REMARK                            x       y       z     vdW  Elec       q    Type
REMARK                         _______ _______ _______ _____ _____    ______ ____
ROOT
ATOM      1  C   UNL     1       2.905   5.107  20.169  0.00  0.00    +0.000 A 
ATOM      2  C   UNL     1       3.816   4.384  19.378  0.00  0.00    +0.000 A 
ATOM      3  C   UNL     1       4.321   4.924  18.191  0.00  0.00    +0.000 A 
ATOM      4  C   UNL     1       3.945   6.205  17.774  0.00  0.00    +0.000 A 
ATOM      5  C   UNL     1       3.030   6.920  18.561  0.00  0.00    +0.000 A 
ATOM      6  S   UNL     1       2.374   8.483  18.277  0.00  0.00    +0.000 S 
ATOM      7  C   UNL     1       1.455   8.365  19.699  0.00  0.00    +0.000 A 
ATOM      8  N   UNL     1       0.607   9.358  20.119  0.00  0.00    +0.000 N 
ATOM      9  C   UNL     1       0.169  10.443  19.398  0.00  0.00    +0.000 C 
ATOM     10  O   UNL     1       0.486  10.714  18.247  0.00  0.00    +0.000 OA
ATOM     11  N   UNL     1       1.624   7.270  20.402  0.00  0.00    +0.000 NA
ATOM     12  C   UNL     1       2.504   6.407  19.749  0.00  0.00    +0.000 A 
ATOM     13  H   UNL     1       0.210   9.178  21.031  0.00  0.00    +0.000 HD
ENDROOT
BRANCH   9  14
ATOM     14  C   UNL     1      -0.795  11.289  20.092  0.00  0.00    +0.000 A 
ATOM     15  N   UNL     1      -0.560  11.700  21.393  0.00  0.00    +0.000 N 
ATOM     16  C   UNL     1      -1.564  12.526  21.834  0.00  0.00    +0.000 A 
ATOM     17  C   UNL     1      -1.549  13.151  23.183  0.00  0.00    +0.000 C 
ATOM     18  C   UNL     1      -2.486  12.622  20.815  0.00  0.00    +0.000 A 
ATOM     19 CL   UNL     1      -3.930  13.525  20.846  0.00  0.00    +0.000 Cl
ATOM     20  C   UNL     1      -2.011  11.841  19.725  0.00  0.00    +0.000 A 
ATOM     21 CL   UNL     1      -2.835  11.667  18.239  0.00  0.00    +0.000 Cl
ATOM     22  H   UNL     1       0.266  11.433  21.918  0.00  0.00    +0.000 HD
ENDBRANCH   9  14
BRANCH   1  24
ATOM     23  C   UNL     1       1.623   3.375  21.198  0.00  0.00    +0.000 C 
ATOM     24  O   UNL     1       2.333   4.603  21.314  0.00  0.00    +0.000 OA
ENDBRANCH   1  24
BRANCH   3  25
ATOM     25  C   UNL     1       5.305   4.198  17.347  0.00  0.00    +0.000 C 
ATOM     26  O   UNL     1       5.043   3.821  16.217  0.00  0.00    +0.000 OA
BRANCH  25  27
ATOM     27  O   UNL     1       6.491   3.965  17.942  0.00  0.00    +0.000 OA
ATOM     28  H   UNL     1       6.451   3.608  18.848  0.00  0.00    +0.000 HD
ENDBRANCH  25  27
ENDBRANCH   3  25
TORSDOF 4
ENDMDL
MODEL 9
REMARK VINA RESULT:      -7.1      1.905      2.453
REMARK  Name = 
REMARK  6 active torsions:
REMARK  status: ('A' for Active; 'I' for Inactive)
REMARK    1  A    between atoms: C_1  and  O_2
REMARK    2  A    between atoms: O_2  and  C_3
REMARK    3  A    between atoms: C_5  and  C_6
REMARK    4  A    between atoms: C_6  and  O_8
REMARK    5  A    between atoms: C_14  and  C_16
REMARK    6  A    between atoms: C_18  and  C_19
REMARK                            x       y       z     vdW  Elec       q    Type
REMARK                         _______ _______ _______ _____ _____    ______ ____
ROOT
ATOM      1  C   UNL     1       2.550   4.763  20.282  0.00  0.00    +0.000 A 
ATOM      2  C   UNL     1       3.262   3.952  19.381  0.00  0.00    +0.000 A 
ATOM      3  C   UNL     1       3.681   4.452  18.143  0.00  0.00    +0.000 A 
ATOM      4  C   UNL     1       3.417   5.778  17.783  0.00  0.00    +0.000 A 
ATOM      5  C   UNL     1       2.699   6.581  18.682  0.00  0.00    +0.000 A 
ATOM      6  S   UNL     1       2.208   8.218  18.489  0.00  0.00    +0.000 S 
ATOM      7  C   UNL     1       1.462   8.181  20.014  0.00  0.00    +0.000 A 
ATOM      8  N   UNL     1       0.799   9.261  20.541  0.00  0.00    +0.000 N 
ATOM      9  C   UNL     1       0.413  10.406  19.885  0.00  0.00    +0.000 C 
ATOM     10  O   UNL     1       0.618  10.660  18.706  0.00  0.00    +0.000 OA
ATOM     11  N   UNL     1       1.581   7.060  20.684  0.00  0.00    +0.000 NA
ATOM     12  C   UNL     1       2.263   6.111  19.922  0.00  0.00    +0.000 A 
ATOM     13  H   UNL     1       0.497   9.111  21.494  0.00  0.00    +0.000 HD
ENDROOT
BRANCH   9  14
ATOM     14  C   UNL     1      -0.349  11.347  20.698  0.00  0.00    +0.000 A 
ATOM     15  N   UNL     1      -0.672  12.600  20.204  0.00  0.00    +0.000 N 
ATOM     16  C   UNL     1      -1.429  13.301  21.109  0.00  0.00    +0.000 A 
ATOM     17  C   UNL     1      -1.955  14.663  20.824  0.00  0.00    +0.000 C 
ATOM     18  C   UNL     1      -1.569  12.505  22.223  0.00  0.00    +0.000 A 
ATOM     19 CL   UNL     1      -2.419  12.904  23.645  0.00  0.00    +0.000 Cl
ATOM     20  C   UNL     1      -0.885  11.284  21.973  0.00  0.00    +0.000 A 
ATOM     21 CL   UNL     1      -0.792   9.990  23.085  0.00  0.00    +0.000 Cl
ATOM     22  H   UNL     1      -0.394  12.921  19.282  0.00  0.00    +0.000 HD
ENDBRANCH   9  14
BRANCH   1  24
ATOM     23  C   UNL     1       1.821   2.911  21.602  0.00  0.00    +0.000 C 
ATOM     24  O   UNL     1       2.064   4.308  21.486  0.00  0.00    +0.000 OA
ENDBRANCH   1  24
BRANCH   3  25
ATOM     25  C   UNL     1       4.459   3.631  17.180  0.00  0.00    +0.000 C 
ATOM     26  O   UNL     1       5.025   4.117  16.216  0.00  0.00    +0.000 OA
BRANCH  25  27
ATOM     27  O   UNL     1       4.458   2.309  17.442  0.00  0.00    +0.000 OA
ATOM     28  H   UNL     1       5.229   1.971  17.935  0.00  0.00    +0.000 HD
ENDBRANCH  25  27
ENDBRANCH   3  25
TORSDOF 4
ENDMDL
