MODEL 1
REMARK VINA RESULT:      -6.2      0.000      0.000
REMARK  Name = 
REMARK  10 active torsions:
REMARK  status: ('A' for Active; 'I' for Inactive)
REMARK    1  A    between atoms: C_1  and  C_2
REMARK    2  A    between atoms: C_2  and  N_3
REMARK    3  A    between atoms: N_3  and  C_4
REMARK    4  A    between atoms: N_3  and  C_6
REMARK    5  A    between atoms: C_4  and  C_5
REMARK    6  A    between atoms: C_6  and  C_7
REMARK    7  A    between atoms: C_7  and  C_8
REMARK    8  A    between atoms: N_10  and  C_11
REMARK    9  A    between atoms: C_13  and  C_14
REMARK   10  A    between atoms: C_16  and  C_17
REMARK                            x       y       z     vdW  Elec       q    Type
REMARK                         _______ _______ _______ _____ _____    ______ ____
ROOT
ATOM      1  C   UNL     1       2.920   2.550  18.047  0.00  0.00    +0.000 C 
ATOM      2  O   UNL     1       3.570   1.507  18.044  0.00  0.00    +0.000 OA
ATOM      3  N   UNL     1       3.388   3.815  17.736  0.00  0.00    +0.000 N 
ATOM      4  H   UNL     1       2.769   4.583  17.993  0.00  0.00    +0.000 HD
ENDROOT
BRANCH   3   5
ATOM      5  C   UNL     1       4.701   4.158  17.361  0.00  0.00    +0.000 A 
ATOM      6  C   UNL     1       5.646   4.622  18.275  0.00  0.00    +0.000 A 
ATOM      7  C   UNL     1       6.907   5.052  17.853  0.00  0.00    +0.000 A 
ATOM      8  C   UNL     1       7.875   5.614  18.852  0.00  0.00    +0.000 C 
ATOM      9  C   UNL     1       7.233   4.990  16.495  0.00  0.00    +0.000 A 
ATOM     10  C   UNL     1       6.316   4.486  15.564  0.00  0.00    +0.000 A 
ATOM     11  C   UNL     1       6.657   4.440  14.104  0.00  0.00    +0.000 C 
ATOM     12  C   UNL     1       5.056   4.052  16.011  0.00  0.00    +0.000 A 
ENDBRANCH   3   5
BRANCH   1  13
ATOM     13  C   UNL     1       1.438   2.502  18.357  0.00  0.00    +0.000 C 
BRANCH  13  14
ATOM     14  C   UNL     1       0.931   3.688  19.171  0.00  0.00    +0.000 C 
BRANCH  14  15
ATOM     15  N   UNL     1       1.833   4.147  20.256  0.00  0.00    +0.000 NA
BRANCH  15  17
ATOM     16  C   UNL     1       2.459   6.493  19.622  0.00  0.00    +0.000 C 
ATOM     17  C   UNL     1       1.662   5.585  20.552  0.00  0.00    +0.000 C 
ENDBRANCH  15  17
BRANCH  15  18
ATOM     18  C   UNL     1       1.696   3.280  21.443  0.00  0.00    +0.000 C 
ATOM     19  C   UNL     1       2.835   2.291  21.692  0.00  0.00    +0.000 C 
ENDBRANCH  15  18
ENDBRANCH  14  15
ENDBRANCH  13  14
ENDBRANCH   1  13
TORSDOF 6
ENDMDL
MODEL 2
REMARK VINA RESULT:      -6.1      0.529      2.647
REMARK  Name = 
REMARK  10 active torsions:
REMARK  status: ('A' for Active; 'I' for Inactive)
REMARK    1  A    between atoms: C_1  and  C_2
REMARK    2  A    between atoms: C_2  and  N_3
REMARK    3  A    between atoms: N_3  and  C_4
REMARK    4  A    between atoms: N_3  and  C_6
REMARK    5  A    between atoms: C_4  and  C_5
REMARK    6  A    between atoms: C_6  and  C_7
REMARK    7  A    between atoms: C_7  and  C_8
REMARK    8  A    between atoms: N_10  and  C_11
REMARK    9  A    between atoms: C_13  and  C_14
REMARK   10  A    between atoms: C_16  and  C_17
REMARK                            x       y       z     vdW  Elec       q    Type
REMARK                         _______ _______ _______ _____ _____    ______ ____
ROOT
ATOM      1  C   UNL     1       3.005   2.348  18.045  0.00  0.00    +0.000 C 
ATOM      2  O   UNL     1       3.720   1.354  17.954  0.00  0.00    +0.000 OA
ATOM      3  N   UNL     1       3.353   3.648  17.726  0.00  0.00    +0.000 N 
ATOM      4  H   UNL     1       2.710   4.366  18.060  0.00  0.00    +0.000 HD
ENDROOT
BRANCH   3   5
ATOM      5  C   UNL     1       4.598   4.091  17.240  0.00  0.00    +0.000 A 
ATOM      6  C   UNL     1       4.968   3.971  15.901  0.00  0.00    +0.000 A 
ATOM      7  C   UNL     1       6.251   4.325  15.472  0.00  0.00    +0.000 A 
ATOM      8  C   UNL     1       6.641   4.116  14.040  0.00  0.00    +0.000 C 
ATOM      9  C   UNL     1       7.166   4.833  16.399  0.00  0.00    +0.000 A 
ATOM     10  C   UNL     1       6.802   5.004  17.740  0.00  0.00    +0.000 A 
ATOM     11  C   UNL     1       7.792   5.528  18.739  0.00  0.00    +0.000 C 
ATOM     12  C   UNL     1       5.506   4.649  18.148  0.00  0.00    +0.000 A 
ENDBRANCH   3   5
BRANCH   1  13
ATOM     13  C   UNL     1       1.565   2.189  18.490  0.00  0.00    +0.000 C 
BRANCH  13  14
ATOM     14  C   UNL     1       0.861   3.504  18.811  0.00  0.00    +0.000 C 
BRANCH  14  15
ATOM     15  N   UNL     1       0.977   3.960  20.219  0.00  0.00    +0.000 NA
BRANCH  15  17
ATOM     16  C   UNL     1       2.546   2.779  21.783  0.00  0.00    +0.000 C 
ATOM     17  C   UNL     1       1.156   2.833  21.157  0.00  0.00    +0.000 C 
ENDBRANCH  15  17
BRANCH  15  18
ATOM     18  C   UNL     1       2.018   5.000  20.340  0.00  0.00    +0.000 C 
ATOM     19  C   UNL     1       1.534   6.397  20.729  0.00  0.00    +0.000 C 
ENDBRANCH  15  18
ENDBRANCH  14  15
ENDBRANCH  13  14
ENDBRANCH   1  13
TORSDOF 6
ENDMDL
MODEL 3
REMARK VINA RESULT:      -6.1      0.603      2.119
REMARK  Name = 
REMARK  10 active torsions:
REMARK  status: ('A' for Active; 'I' for Inactive)
REMARK    1  A    between atoms: C_1  and  C_2
REMARK    2  A    between atoms: C_2  and  N_3
REMARK    3  A    between atoms: N_3  and  C_4
REMARK    4  A    between atoms: N_3  and  C_6
REMARK    5  A    between atoms: C_4  and  C_5
REMARK    6  A    between atoms: C_6  and  C_7
REMARK    7  A    between atoms: C_7  and  C_8
REMARK    8  A    between atoms: N_10  and  C_11
REMARK    9  A    between atoms: C_13  and  C_14
REMARK   10  A    between atoms: C_16  and  C_17
REMARK                            x       y       z     vdW  Elec       q    Type
REMARK                         _______ _______ _______ _____ _____    ______ ____
ROOT
ATOM      1  C   UNL     1       2.918   2.833  17.712  0.00  0.00    +0.000 C 
ATOM      2  O   UNL     1       3.619   1.830  17.606  0.00  0.00    +0.000 OA
ATOM      3  N   UNL     1       3.279   4.130  17.392  0.00  0.00    +0.000 N 
ATOM      4  H   UNL     1       2.650   4.855  17.739  0.00  0.00    +0.000 HD
ENDROOT
BRANCH   3   5
ATOM      5  C   UNL     1       4.522   4.558  16.889  0.00  0.00    +0.000 A 
ATOM      6  C   UNL     1       4.934   4.298  15.583  0.00  0.00    +0.000 A 
ATOM      7  C   UNL     1       6.215   4.647  15.146  0.00  0.00    +0.000 A 
ATOM      8  C   UNL     1       6.653   4.289  13.758  0.00  0.00    +0.000 C 
ATOM      9  C   UNL     1       7.087   5.290  16.030  0.00  0.00    +0.000 A 
ATOM     10  C   UNL     1       6.680   5.601  17.334  0.00  0.00    +0.000 A 
ATOM     11  C   UNL     1       7.624   6.271  18.289  0.00  0.00    +0.000 C 
ATOM     12  C   UNL     1       5.385   5.249  17.748  0.00  0.00    +0.000 A 
ENDBRANCH   3   5
BRANCH   1  13
ATOM     13  C   UNL     1       1.484   2.691  18.178  0.00  0.00    +0.000 C 
BRANCH  13  14
ATOM     14  C   UNL     1       1.085   3.668  19.279  0.00  0.00    +0.000 C 
BRANCH  14  15
ATOM     15  N   UNL     1       2.198   4.157  20.130  0.00  0.00    +0.000 NA
BRANCH  15  17
ATOM     16  C   UNL     1       2.432   6.628  19.757  0.00  0.00    +0.000 C 
ATOM     17  C   UNL     1       1.936   5.509  20.666  0.00  0.00    +0.000 C 
ENDBRANCH  15  17
BRANCH  15  18
ATOM     18  C   UNL     1       2.529   3.163  21.169  0.00  0.00    +0.000 C 
ATOM     19  C   UNL     1       1.345   2.531  21.902  0.00  0.00    +0.000 C 
ENDBRANCH  15  18
ENDBRANCH  14  15
ENDBRANCH  13  14
ENDBRANCH   1  13
TORSDOF 6
ENDMDL
MODEL 4
REMARK VINA RESULT:      -6.0      2.111      6.210
REMARK  Name = 
REMARK  10 active torsions:
REMARK  status: ('A' for Active; 'I' for Inactive)
REMARK    1  A    between atoms: C_1  and  C_2
REMARK    2  A    between atoms: C_2  and  N_3
REMARK    3  A    between atoms: N_3  and  C_4
REMARK    4  A    between atoms: N_3  and  C_6
REMARK    5  A    between atoms: C_4  and  C_5
REMARK    6  A    between atoms: C_6  and  C_7
REMARK    7  A    between atoms: C_7  and  C_8
REMARK    8  A    between atoms: N_10  and  C_11
REMARK    9  A    between atoms: C_13  and  C_14
REMARK   10  A    between atoms: C_16  and  C_17
REMARK                            x       y       z     vdW  Elec       q    Type
REMARK                         _______ _______ _______ _____ _____    ______ ____
ROOT
ATOM      1  C   UNL     1       6.257   4.848  18.759  0.00  0.00    +0.000 C 
ATOM      2  O   UNL     1       6.644   5.265  19.848  0.00  0.00    +0.000 OA
ATOM      3  N   UNL     1       4.948   4.591  18.392  0.00  0.00    +0.000 N 
ATOM      4  H   UNL     1       4.834   4.056  17.531  0.00  0.00    +0.000 HD
ENDROOT
BRANCH   3   5
ATOM      5  C   UNL     1       3.802   4.748  19.195  0.00  0.00    +0.000 A 
ATOM      6  C   UNL     1       3.201   5.988  19.412  0.00  0.00    +0.000 A 
ATOM      7  C   UNL     1       2.128   6.125  20.296  0.00  0.00    +0.000 A 
ATOM      8  C   UNL     1       1.550   7.483  20.563  0.00  0.00    +0.000 C 
ATOM      9  C   UNL     1       1.634   4.993  20.953  0.00  0.00    +0.000 A 
ATOM     10  C   UNL     1       2.193   3.731  20.717  0.00  0.00    +0.000 A 
ATOM     11  C   UNL     1       1.677   2.520  21.439  0.00  0.00    +0.000 C 
ATOM     12  C   UNL     1       3.266   3.615  19.818  0.00  0.00    +0.000 A 
ENDBRANCH   3   5
BRANCH   1  13
ATOM     13  C   UNL     1       7.261   4.632  17.645  0.00  0.00    +0.000 C 
BRANCH  13  14
ATOM     14  C   UNL     1       7.285   5.742  16.600  0.00  0.00    +0.000 C 
BRANCH  14  15
ATOM     15  N   UNL     1       6.453   5.500  15.396  0.00  0.00    +0.000 NA
BRANCH  15  17
ATOM     16  C   UNL     1       6.155   3.769  13.603  0.00  0.00    +0.000 C 
ATOM     17  C   UNL     1       6.320   4.060  15.091  0.00  0.00    +0.000 C 
ENDBRANCH  15  17
BRANCH  15  18
ATOM     18  C   UNL     1       5.159   6.201  15.512  0.00  0.00    +0.000 C 
ATOM     19  C   UNL     1       5.102   7.352  16.516  0.00  0.00    +0.000 C 
ENDBRANCH  15  18
ENDBRANCH  14  15
ENDBRANCH  13  14
ENDBRANCH   1  13
TORSDOF 6
ENDMDL
MODEL 5
REMARK VINA RESULT:      -5.9      1.000      1.030
REMARK  Name = 
REMARK  10 active torsions:
REMARK  status: ('A' for Active; 'I' for Inactive)
REMARK    1  A    between atoms: C_1  and  C_2
REMARK    2  A    between atoms: C_2  and  N_3
REMARK    3  A    between atoms: N_3  and  C_4
REMARK    4  A    between atoms: N_3  and  C_6
REMARK    5  A    between atoms: C_4  and  C_5
REMARK    6  A    between atoms: C_6  and  C_7
REMARK    7  A    between atoms: C_7  and  C_8
REMARK    8  A    between atoms: N_10  and  C_11
REMARK    9  A    between atoms: C_13  and  C_14
REMARK   10  A    between atoms: C_16  and  C_17
REMARK                            x       y       z     vdW  Elec       q    Type
REMARK                         _______ _______ _______ _____ _____    ______ ____
ROOT
ATOM      1  C   UNL     1       2.847   3.021  17.456  0.00  0.00    +0.000 C 
ATOM      2  O   UNL     1       2.359   3.466  16.421  0.00  0.00    +0.000 OA
ATOM      3  N   UNL     1       4.143   3.207  17.904  0.00  0.00    +0.000 N 
ATOM      4  H   UNL     1       4.431   2.597  18.670  0.00  0.00    +0.000 HD
ENDROOT
BRANCH   3   5
ATOM      5  C   UNL     1       5.161   3.935  17.258  0.00  0.00    +0.000 A 
ATOM      6  C   UNL     1       5.904   4.922  17.905  0.00  0.00    +0.000 A 
ATOM      7  C   UNL     1       6.835   5.697  17.208  0.00  0.00    +0.000 A 
ATOM      8  C   UNL     1       7.567   6.799  17.915  0.00  0.00    +0.000 C 
ATOM      9  C   UNL     1       7.041   5.459  15.845  0.00  0.00    +0.000 A 
ATOM     10  C   UNL     1       6.338   4.443  15.185  0.00  0.00    +0.000 A 
ATOM     11  C   UNL     1       6.542   4.202  13.718  0.00  0.00    +0.000 C 
ATOM     12  C   UNL     1       5.412   3.671  15.907  0.00  0.00    +0.000 A 
ENDBRANCH   3   5
BRANCH   1  13
ATOM     13  C   UNL     1       1.974   2.232  18.411  0.00  0.00    +0.000 C 
BRANCH  13  14
ATOM     14  C   UNL     1       1.303   3.078  19.488  0.00  0.00    +0.000 C 
BRANCH  14  15
ATOM     15  N   UNL     1       2.216   3.935  20.285  0.00  0.00    +0.000 NA
BRANCH  15  17
ATOM     16  C   UNL     1       2.712   6.247  19.442  0.00  0.00    +0.000 C 
ATOM     17  C   UNL     1       1.799   5.353  20.274  0.00  0.00    +0.000 C 
ENDBRANCH  15  17
BRANCH  15  18
ATOM     18  C   UNL     1       2.392   3.381  21.642  0.00  0.00    +0.000 C 
ATOM     19  C   UNL     1       1.318   2.403  22.117  0.00  0.00    +0.000 C 
ENDBRANCH  15  18
ENDBRANCH  14  15
ENDBRANCH  13  14
ENDBRANCH   1  13
TORSDOF 6
ENDMDL
MODEL 6
REMARK VINA RESULT:      -5.9      2.099      6.187
REMARK  Name = 
REMARK  10 active torsions:
REMARK  status: ('A' for Active; 'I' for Inactive)
REMARK    1  A    between atoms: C_1  and  C_2
REMARK    2  A    between atoms: C_2  and  N_3
REMARK    3  A    between atoms: N_3  and  C_4
REMARK    4  A    between atoms: N_3  and  C_6
REMARK    5  A    between atoms: C_4  and  C_5
REMARK    6  A    between atoms: C_6  and  C_7
REMARK    7  A    between atoms: C_7  and  C_8
REMARK    8  A    between atoms: N_10  and  C_11
REMARK    9  A    between atoms: C_13  and  C_14
REMARK   10  A    between atoms: C_16  and  C_17
REMARK                            x       y       z     vdW  Elec       q    Type
REMARK                         _______ _______ _______ _____ _____    ______ ____
ROOT
ATOM      1  C   UNL     1       6.374   4.844  18.816  0.00  0.00    +0.000 C 
ATOM      2  O   UNL     1       6.725   5.416  19.845  0.00  0.00    +0.000 OA
ATOM      3  N   UNL     1       5.085   4.478  18.473  0.00  0.00    +0.000 N 
ATOM      4  H   UNL     1       5.009   3.832  17.688  0.00  0.00    +0.000 HD
ENDROOT
BRANCH   3   5
ATOM      5  C   UNL     1       3.920   4.682  19.240  0.00  0.00    +0.000 A 
ATOM      6  C   UNL     1       3.332   5.936  19.393  0.00  0.00    +0.000 A 
ATOM      7  C   UNL     1       2.238   6.121  20.243  0.00  0.00    +0.000 A 
ATOM      8  C   UNL     1       1.673   7.496  20.443  0.00  0.00    +0.000 C 
ATOM      9  C   UNL     1       1.711   5.023  20.929  0.00  0.00    +0.000 A 
ATOM     10  C   UNL     1       2.258   3.745  20.756  0.00  0.00    +0.000 A 
ATOM     11  C   UNL     1       1.707   2.570  21.510  0.00  0.00    +0.000 C 
ATOM     12  C   UNL     1       3.353   3.580  19.891  0.00  0.00    +0.000 A 
ENDBRANCH   3   5
BRANCH   1  13
ATOM     13  C   UNL     1       7.404   4.536  17.748  0.00  0.00    +0.000 C 
BRANCH  13  14
ATOM     14  C   UNL     1       7.193   5.289  16.439  0.00  0.00    +0.000 C 
BRANCH  14  15
ATOM     15  N   UNL     1       6.066   4.807  15.602  0.00  0.00    +0.000 NA
BRANCH  15  17
ATOM     16  C   UNL     1       5.173   7.052  16.281  0.00  0.00    +0.000 C 
ATOM     17  C   UNL     1       5.091   5.878  15.311  0.00  0.00    +0.000 C 
ENDBRANCH  15  17
BRANCH  15  18
ATOM     18  C   UNL     1       6.575   4.126  14.395  0.00  0.00    +0.000 C 
ATOM     19  C   UNL     1       7.486   4.952  13.487  0.00  0.00    +0.000 C 
ENDBRANCH  15  18
ENDBRANCH  14  15
ENDBRANCH  13  14
ENDBRANCH   1  13
TORSDOF 6
ENDMDL
MODEL 7
REMARK VINA RESULT:      -5.8      4.948      7.695
REMARK  Name = 
REMARK  10 active torsions:
REMARK  status: ('A' for Active; 'I' for Inactive)
REMARK    1  A    between atoms: C_1  and  C_2
REMARK    2  A    between atoms: C_2  and  N_3
REMARK    3  A    between atoms: N_3  and  C_4
REMARK    4  A    between atoms: N_3  and  C_6
REMARK    5  A    between atoms: C_4  and  C_5
REMARK    6  A    between atoms: C_6  and  C_7
REMARK    7  A    between atoms: C_7  and  C_8
REMARK    8  A    between atoms: N_10  and  C_11
REMARK    9  A    between atoms: C_13  and  C_14
REMARK   10  A    between atoms: C_16  and  C_17
REMARK                            x       y       z     vdW  Elec       q    Type
REMARK                         _______ _______ _______ _____ _____    ______ ____
ROOT
ATOM      1  C   UNL     1       7.862   8.067  17.918  0.00  0.00    +0.000 C 
ATOM      2  O   UNL     1       8.366   7.253  18.687  0.00  0.00    +0.000 OA
ATOM      3  N   UNL     1       6.847   7.826  17.009  0.00  0.00    +0.000 N 
ATOM      4  H   UNL     1       6.701   8.558  16.314  0.00  0.00    +0.000 HD
ENDROOT
BRANCH   3   5
ATOM      5  C   UNL     1       6.195   6.598  16.781  0.00  0.00    +0.000 A 
ATOM      6  C   UNL     1       6.554   5.740  15.742  0.00  0.00    +0.000 A 
ATOM      7  C   UNL     1       5.820   4.579  15.479  0.00  0.00    +0.000 A 
ATOM      8  C   UNL     1       6.186   3.715  14.310  0.00  0.00    +0.000 C 
ATOM      9  C   UNL     1       4.726   4.263  16.290  0.00  0.00    +0.000 A 
ATOM     10  C   UNL     1       4.375   5.088  17.367  0.00  0.00    +0.000 A 
ATOM     11  C   UNL     1       3.186   4.761  18.223  0.00  0.00    +0.000 C 
ATOM     12  C   UNL     1       5.130   6.245  17.617  0.00  0.00    +0.000 A 
ENDBRANCH   3   5
BRANCH   1  13
ATOM     13  C   UNL     1       8.315   9.512  17.964  0.00  0.00    +0.000 C 
BRANCH  13  14
ATOM     14  C   UNL     1       9.181   9.858  19.170  0.00  0.00    +0.000 C 
BRANCH  14  15
ATOM     15  N   UNL     1      10.072  11.033  18.998  0.00  0.00    +0.000 NA
BRANCH  15  17
ATOM     16  C   UNL     1      10.554  12.915  17.409  0.00  0.00    +0.000 C 
ATOM     17  C   UNL     1       9.501  12.033  18.073  0.00  0.00    +0.000 C 
ENDBRANCH  15  17
BRANCH  15  18
ATOM     18  C   UNL     1      10.451  11.590  20.312  0.00  0.00    +0.000 C 
ATOM     19  C   UNL     1       9.299  12.012  21.224  0.00  0.00    +0.000 C 
ENDBRANCH  15  18
ENDBRANCH  14  15
ENDBRANCH  13  14
ENDBRANCH   1  13
TORSDOF 6
ENDMDL
MODEL 8
REMARK VINA RESULT:      -5.8      4.898      7.634
REMARK  Name = 
REMARK  10 active torsions:
REMARK  status: ('A' for Active; 'I' for Inactive)
REMARK    1  A    between atoms: C_1  and  C_2
REMARK    2  A    between atoms: C_2  and  N_3
REMARK    3  A    between atoms: N_3  and  C_4
REMARK    4  A    between atoms: N_3  and  C_6
REMARK    5  A    between atoms: C_4  and  C_5
REMARK    6  A    between atoms: C_6  and  C_7
REMARK    7  A    between atoms: C_7  and  C_8
REMARK    8  A    between atoms: N_10  and  C_11
REMARK    9  A    between atoms: C_13  and  C_14
REMARK   10  A    between atoms: C_16  and  C_17
REMARK                            x       y       z     vdW  Elec       q    Type
REMARK                         _______ _______ _______ _____ _____    ______ ____
ROOT
ATOM      1  C   UNL     1       7.742   7.982  17.860  0.00  0.00    +0.000 C 
ATOM      2  O   UNL     1       8.256   7.151  18.605  0.00  0.00    +0.000 OA
ATOM      3  N   UNL     1       6.668   7.779  17.013  0.00  0.00    +0.000 N 
ATOM      4  H   UNL     1       6.512   8.513  16.322  0.00  0.00    +0.000 HD
ENDROOT
BRANCH   3   5
ATOM      5  C   UNL     1       5.955   6.577  16.830  0.00  0.00    +0.000 A 
ATOM      6  C   UNL     1       5.000   6.125  17.740  0.00  0.00    +0.000 A 
ATOM      7  C   UNL     1       4.386   4.879  17.582  0.00  0.00    +0.000 A 
ATOM      8  C   UNL     1       3.417   4.389  18.617  0.00  0.00    +0.000 C 
ATOM      9  C   UNL     1       4.718   4.088  16.478  0.00  0.00    +0.000 A 
ATOM     10  C   UNL     1       5.641   4.541  15.528  0.00  0.00    +0.000 A 
ATOM     11  C   UNL     1       6.014   3.682  14.355  0.00  0.00    +0.000 C 
ATOM     12  C   UNL     1       6.241   5.800  15.702  0.00  0.00    +0.000 A 
ENDBRANCH   3   5
BRANCH   1  13
ATOM     13  C   UNL     1       8.255   9.407  17.870  0.00  0.00    +0.000 C 
BRANCH  13  14
ATOM     14  C   UNL     1       9.124   9.751  19.076  0.00  0.00    +0.000 C 
BRANCH  14  15
ATOM     15  N   UNL     1       9.474  11.186  19.220  0.00  0.00    +0.000 NA
BRANCH  15  17
ATOM     16  C   UNL     1      11.597  11.984  20.296  0.00  0.00    +0.000 C 
ATOM     17  C   UNL     1      10.176  11.463  20.490  0.00  0.00    +0.000 C 
ENDBRANCH  15  17
BRANCH  15  18
ATOM     18  C   UNL     1      10.201  11.662  18.026  0.00  0.00    +0.000 C 
ATOM     19  C   UNL     1       9.757  13.010  17.457  0.00  0.00    +0.000 C 
ENDBRANCH  15  18
ENDBRANCH  14  15
ENDBRANCH  13  14
ENDBRANCH   1  13
TORSDOF 6
ENDMDL
MODEL 9
REMARK VINA RESULT:      -5.8      4.873      7.450
REMARK  Name = 
REMARK  10 active torsions:
REMARK  status: ('A' for Active; 'I' for Inactive)
REMARK    1  A    between atoms: C_1  and  C_2
REMARK    2  A    between atoms: C_2  and  N_3
REMARK    3  A    between atoms: N_3  and  C_4
REMARK    4  A    between atoms: N_3  and  C_6
REMARK    5  A    between atoms: C_4  and  C_5
REMARK    6  A    between atoms: C_6  and  C_7
REMARK    7  A    between atoms: C_7  and  C_8
REMARK    8  A    between atoms: N_10  and  C_11
REMARK    9  A    between atoms: C_13  and  C_14
REMARK   10  A    between atoms: C_16  and  C_17
REMARK                            x       y       z     vdW  Elec       q    Type
REMARK                         _______ _______ _______ _____ _____    ______ ____
ROOT
ATOM      1  C   UNL     1       7.767   7.985  17.866  0.00  0.00    +0.000 C 
ATOM      2  O   UNL     1       8.279   7.147  18.604  0.00  0.00    +0.000 OA
ATOM      3  N   UNL     1       6.701   7.787  17.007  0.00  0.00    +0.000 N 
ATOM      4  H   UNL     1       6.547   8.529  16.325  0.00  0.00    +0.000 HD
ENDROOT
BRANCH   3   5
ATOM      5  C   UNL     1       5.995   6.584  16.804  0.00  0.00    +0.000 A 
ATOM      6  C   UNL     1       5.021   6.127  17.689  0.00  0.00    +0.000 A 
ATOM      7  C   UNL     1       4.414   4.880  17.512  0.00  0.00    +0.000 A 
ATOM      8  C   UNL     1       3.422   4.384  18.522  0.00  0.00    +0.000 C 
ATOM      9  C   UNL     1       4.774   4.093  16.414  0.00  0.00    +0.000 A 
ATOM     10  C   UNL     1       5.719   4.552  15.487  0.00  0.00    +0.000 A 
ATOM     11  C   UNL     1       6.122   3.698  14.321  0.00  0.00    +0.000 C 
ATOM     12  C   UNL     1       6.310   5.811  15.680  0.00  0.00    +0.000 A 
ENDBRANCH   3   5
BRANCH   1  13
ATOM     13  C   UNL     1       8.272   9.413  17.898  0.00  0.00    +0.000 C 
BRANCH  13  14
ATOM     14  C   UNL     1       9.078   9.763  19.144  0.00  0.00    +0.000 C 
BRANCH  14  15
ATOM     15  N   UNL     1      10.046  10.877  18.985  0.00  0.00    +0.000 NA
BRANCH  15  17
ATOM     16  C   UNL     1      10.691  12.839  17.560  0.00  0.00    +0.000 C 
ATOM     17  C   UNL     1       9.597  11.865  17.983  0.00  0.00    +0.000 C 
ENDBRANCH  15  17
BRANCH  15  18
ATOM     18  C   UNL     1      10.371  11.470  20.296  0.00  0.00    +0.000 C 
ATOM     19  C   UNL     1       9.194  12.029  21.096  0.00  0.00    +0.000 C 
ENDBRANCH  15  18
ENDBRANCH  14  15
ENDBRANCH  13  14
ENDBRANCH   1  13
TORSDOF 6
ENDMDL
