MODEL 1
REMARK VINA RESULT:      -7.8      0.000      0.000
REMARK  Name = 
REMARK  4 active torsions:
REMARK  status: ('A' for Active; 'I' for Inactive)
REMARK    1  A    between atoms: C_1  and  C_2
REMARK    2  A    between atoms: C_2  and  C_4
REMARK    3  A    between atoms: C_15  and  C_16
REMARK    4  A    between atoms: C_15  and  C_17
REMARK                            x       y       z     vdW  Elec       q    Type
REMARK                         _______ _______ _______ _____ _____    ______ ____
ROOT
ATOM      1  C   UNL     1       3.686   3.748  19.412  0.00  0.00    +0.000 C 
ATOM      2  N   UNL     1       5.119   4.124  19.328  0.00  0.00    +0.000 N 
ATOM      3  C   UNL     1       5.658   4.416  18.066  0.00  0.00    +0.000 A 
ATOM      4  C   UNL     1       4.968   4.318  16.897  0.00  0.00    +0.000 A 
ATOM      5  N   UNL     1       5.514   4.608  15.672  0.00  0.00    +0.000 NA
ATOM      6  C   UNL     1       6.754   4.967  15.617  0.00  0.00    +0.000 A 
ATOM      7  N   UNL     1       7.331   5.264  14.426  0.00  0.00    +0.000 N 
ATOM      8  N   UNL     1       7.546   5.070  16.713  0.00  0.00    +0.000 N 
ATOM      9  C   UNL     1       7.107   4.749  17.959  0.00  0.00    +0.000 A 
ATOM     10  O   UNL     1       7.859   4.695  18.928  0.00  0.00    +0.000 OA
ATOM     11  N   UNL     1       3.660   3.813  16.947  0.00  0.00    +0.000 N 
ATOM     12  C   UNL     1       3.231   2.988  18.112  0.00  0.00    +0.000 C 
ATOM     13  C   UNL     1       3.855   1.585  17.962  0.00  0.00    +0.000 C 
ATOM     14  C   UNL     1       1.699   2.869  18.050  0.00  0.00    +0.000 C 
ATOM     15  H   UNL     1       5.787   3.602  19.896  0.00  0.00    +0.000 HD
ATOM     16  H   UNL     1       6.644   5.424  13.697  0.00  0.00    +0.000 HD
ATOM     17  H   UNL     1       8.079   5.943  14.427  0.00  0.00    +0.000 HD
ATOM     18  H   UNL     1       8.528   5.261  16.622  0.00  0.00    +0.000 HD
ATOM     19  H   UNL     1       3.402   3.458  16.030  0.00  0.00    +0.000 HD
ENDROOT
BRANCH   1  21
ATOM     20  C   UNL     1       2.151   3.590  21.480  0.00  0.00    +0.000 C 
ATOM     21  C   UNL     1       3.373   3.079  20.753  0.00  0.00    +0.000 C 
ATOM     22  O   UNL     1       4.041   2.163  21.234  0.00  0.00    +0.000 OA
ENDBRANCH   1  21
TORSDOF 1
ENDMDL
MODEL 2
REMARK VINA RESULT:      -7.6      2.207      5.416
REMARK  Name = 
REMARK  4 active torsions:
REMARK  status: ('A' for Active; 'I' for Inactive)
REMARK    1  A    between atoms: C_1  and  C_2
REMARK    2  A    between atoms: C_2  and  C_4
REMARK    3  A    between atoms: C_15  and  C_16
REMARK    4  A    between atoms: C_15  and  C_17
REMARK                            x       y       z     vdW  Elec       q    Type
REMARK                         _______ _______ _______ _____ _____    ______ ____
ROOT
ATOM      1  C   UNL     1       5.413   4.601  16.632  0.00  0.00    +0.000 C 
ATOM      2  N   UNL     1       4.902   3.293  17.113  0.00  0.00    +0.000 N 
ATOM      3  C   UNL     1       3.779   3.286  17.955  0.00  0.00    +0.000 A 
ATOM      4  C   UNL     1       3.158   4.406  18.414  0.00  0.00    +0.000 A 
ATOM      5  N   UNL     1       2.060   4.378  19.235  0.00  0.00    +0.000 NA
ATOM      6  C   UNL     1       1.605   3.231  19.619  0.00  0.00    +0.000 A 
ATOM      7  N   UNL     1       0.521   3.159  20.430  0.00  0.00    +0.000 N 
ATOM      8  N   UNL     1       2.160   2.050  19.250  0.00  0.00    +0.000 N 
ATOM      9  C   UNL     1       3.283   1.984  18.484  0.00  0.00    +0.000 A 
ATOM     10  O   UNL     1       3.875   0.929  18.274  0.00  0.00    +0.000 OA
ATOM     11  N   UNL     1       3.725   5.649  18.094  0.00  0.00    +0.000 N 
ATOM     12  C   UNL     1       5.162   5.726  17.702  0.00  0.00    +0.000 C 
ATOM     13  C   UNL     1       6.014   5.572  18.979  0.00  0.00    +0.000 C 
ATOM     14  C   UNL     1       5.399   7.122  17.102  0.00  0.00    +0.000 C 
ATOM     15  H   UNL     1       5.581   2.591  17.408  0.00  0.00    +0.000 HD
ATOM     16  H   UNL     1       0.002   4.031  20.456  0.00  0.00    +0.000 HD
ATOM     17  H   UNL     1      -0.071   2.344  20.346  0.00  0.00    +0.000 HD
ATOM     18  H   UNL     1       1.837   1.184  19.642  0.00  0.00    +0.000 HD
ATOM     19  H   UNL     1       3.407   6.345  18.762  0.00  0.00    +0.000 HD
ENDROOT
BRANCH   1  21
ATOM     20  C   UNL     1       6.992   4.606  14.592  0.00  0.00    +0.000 C 
ATOM     21  C   UNL     1       6.838   4.466  16.089  0.00  0.00    +0.000 C 
ATOM     22  O   UNL     1       7.826   4.275  16.798  0.00  0.00    +0.000 OA
ENDBRANCH   1  21
TORSDOF 1
ENDMDL
MODEL 3
REMARK VINA RESULT:      -7.3      2.294      2.738
REMARK  Name = 
REMARK  4 active torsions:
REMARK  status: ('A' for Active; 'I' for Inactive)
REMARK    1  A    between atoms: C_1  and  C_2
REMARK    2  A    between atoms: C_2  and  C_4
REMARK    3  A    between atoms: C_15  and  C_16
REMARK    4  A    between atoms: C_15  and  C_17
REMARK                            x       y       z     vdW  Elec       q    Type
REMARK                         _______ _______ _______ _____ _____    ______ ____
ROOT
ATOM      1  C   UNL     1       2.387   3.377  18.144  0.00  0.00    +0.000 C 
ATOM      2  N   UNL     1       2.614   4.839  18.019  0.00  0.00    +0.000 N 
ATOM      3  C   UNL     1       3.880   5.282  17.609  0.00  0.00    +0.000 A 
ATOM      4  C   UNL     1       4.941   4.463  17.375  0.00  0.00    +0.000 A 
ATOM      5  N   UNL     1       6.171   4.918  16.973  0.00  0.00    +0.000 NA
ATOM      6  C   UNL     1       6.345   6.191  16.835  0.00  0.00    +0.000 A 
ATOM      7  N   UNL     1       7.546   6.681  16.438  0.00  0.00    +0.000 N 
ATOM      8  N   UNL     1       5.370   7.103  17.069  0.00  0.00    +0.000 N 
ATOM      9  C   UNL     1       4.138   6.748  17.524  0.00  0.00    +0.000 A 
ATOM     10  O   UNL     1       3.304   7.577  17.881  0.00  0.00    +0.000 OA
ATOM     11  N   UNL     1       4.785   3.095  17.640  0.00  0.00    +0.000 N 
ATOM     12  C   UNL     1       3.711   2.641  18.570  0.00  0.00    +0.000 C 
ATOM     13  C   UNL     1       4.161   2.954  20.012  0.00  0.00    +0.000 C 
ATOM     14  C   UNL     1       3.574   1.118  18.403  0.00  0.00    +0.000 C 
ATOM     15  H   UNL     1       2.232   5.447  18.744  0.00  0.00    +0.000 HD
ATOM     16  H   UNL     1       8.138   5.964  16.033  0.00  0.00    +0.000 HD
ATOM     17  H   UNL     1       7.546   7.545  15.913  0.00  0.00    +0.000 HD
ATOM     18  H   UNL     1       5.568   8.088  17.042  0.00  0.00    +0.000 HD
ATOM     19  H   UNL     1       5.700   2.673  17.776  0.00  0.00    +0.000 HD
ENDROOT
BRANCH   1  21
ATOM     20  C   UNL     1       0.915   3.975  20.177  0.00  0.00    +0.000 C 
ATOM     21  C   UNL     1       1.134   3.087  18.975  0.00  0.00    +0.000 C 
ATOM     22  O   UNL     1       0.319   2.206  18.700  0.00  0.00    +0.000 OA
ENDBRANCH   1  21
TORSDOF 1
ENDMDL
MODEL 4
REMARK VINA RESULT:      -7.3      2.034      2.292
REMARK  Name = 
REMARK  4 active torsions:
REMARK  status: ('A' for Active; 'I' for Inactive)
REMARK    1  A    between atoms: C_1  and  C_2
REMARK    2  A    between atoms: C_2  and  C_4
REMARK    3  A    between atoms: C_15  and  C_16
REMARK    4  A    between atoms: C_15  and  C_17
REMARK                            x       y       z     vdW  Elec       q    Type
REMARK                         _______ _______ _______ _____ _____    ______ ____
ROOT
ATOM      1  C   UNL     1       2.514   3.827  18.381  0.00  0.00    +0.000 C 
ATOM      2  N   UNL     1       3.054   5.151  17.983  0.00  0.00    +0.000 N 
ATOM      3  C   UNL     1       4.201   5.186  17.175  0.00  0.00    +0.000 A 
ATOM      4  C   UNL     1       4.894   4.083  16.779  0.00  0.00    +0.000 A 
ATOM      5  N   UNL     1       6.013   4.139  15.989  0.00  0.00    +0.000 NA
ATOM      6  C   UNL     1       6.453   5.297  15.621  0.00  0.00    +0.000 A 
ATOM      7  N   UNL     1       7.555   5.396  14.838  0.00  0.00    +0.000 N 
ATOM      8  N   UNL     1       5.862   6.464  15.979  0.00  0.00    +0.000 N 
ATOM      9  C   UNL     1       4.783   6.507  16.806  0.00  0.00    +0.000 A 
ATOM     10  O   UNL     1       4.339   7.561  17.254  0.00  0.00    +0.000 OA
ATOM     11  N   UNL     1       4.485   2.837  17.278  0.00  0.00    +0.000 N 
ATOM     12  C   UNL     1       3.671   2.772  18.526  0.00  0.00    +0.000 C 
ATOM     13  C   UNL     1       4.609   3.037  19.723  0.00  0.00    +0.000 C 
ATOM     14  C   UNL     1       3.108   1.345  18.632  0.00  0.00    +0.000 C 
ATOM     15  H   UNL     1       3.082   5.890  18.686  0.00  0.00    +0.000 HD
ATOM     16  H   UNL     1       7.792   4.514  14.395  0.00  0.00    +0.000 HD
ATOM     17  H   UNL     1       7.613   6.187  14.211  0.00  0.00    +0.000 HD
ATOM     18  H   UNL     1       6.285   7.346  15.752  0.00  0.00    +0.000 HD
ATOM     19  H   UNL     1       5.258   2.181  17.215  0.00  0.00    +0.000 HD
ENDROOT
BRANCH   1  21
ATOM     20  C   UNL     1       1.771   5.150  20.468  0.00  0.00    +0.000 C 
ATOM     21  C   UNL     1       1.547   3.963  19.561  0.00  0.00    +0.000 C 
ATOM     22  O   UNL     1       0.618   3.185  19.779  0.00  0.00    +0.000 OA
ENDBRANCH   1  21
TORSDOF 1
ENDMDL
MODEL 5
REMARK VINA RESULT:      -7.3      1.935      4.918
REMARK  Name = 
REMARK  4 active torsions:
REMARK  status: ('A' for Active; 'I' for Inactive)
REMARK    1  A    between atoms: C_1  and  C_2
REMARK    2  A    between atoms: C_2  and  C_4
REMARK    3  A    between atoms: C_15  and  C_16
REMARK    4  A    between atoms: C_15  and  C_17
REMARK                            x       y       z     vdW  Elec       q    Type
REMARK                         _______ _______ _______ _____ _____    ______ ____
ROOT
ATOM      1  C   UNL     1       6.139   4.926  17.424  0.00  0.00    +0.000 C 
ATOM      2  N   UNL     1       5.776   4.003  18.528  0.00  0.00    +0.000 N 
ATOM      3  C   UNL     1       4.518   3.382  18.489  0.00  0.00    +0.000 A 
ATOM      4  C   UNL     1       3.577   3.615  17.535  0.00  0.00    +0.000 A 
ATOM      5  N   UNL     1       2.353   2.997  17.516  0.00  0.00    +0.000 NA
ATOM      6  C   UNL     1       2.062   2.170  18.465  0.00  0.00    +0.000 A 
ATOM      7  N   UNL     1       0.864   1.536  18.481  0.00  0.00    +0.000 N 
ATOM      8  N   UNL     1       2.910   1.882  19.484  0.00  0.00    +0.000 N 
ATOM      9  C   UNL     1       4.120   2.489  19.615  0.00  0.00    +0.000 A 
ATOM     10  O   UNL     1       4.823   2.346  20.611  0.00  0.00    +0.000 OA
ATOM     11  N   UNL     1       3.846   4.602  16.575  0.00  0.00    +0.000 N 
ATOM     12  C   UNL     1       4.863   5.654  16.862  0.00  0.00    +0.000 C 
ATOM     13  C   UNL     1       4.240   6.665  17.847  0.00  0.00    +0.000 C 
ATOM     14  C   UNL     1       5.173   6.366  15.535  0.00  0.00    +0.000 C 
ATOM     15  H   UNL     1       6.018   4.275  19.481  0.00  0.00    +0.000 HD
ATOM     16  H   UNL     1       0.393   1.583  17.584  0.00  0.00    +0.000 HD
ATOM     17  H   UNL     1       0.827   0.619  18.905  0.00  0.00    +0.000 HD
ATOM     18  H   UNL     1       2.615   1.306  20.252  0.00  0.00    +0.000 HD
ATOM     19  H   UNL     1       2.971   4.926  16.171  0.00  0.00    +0.000 HD
ENDROOT
BRANCH   1  21
ATOM     20  C   UNL     1       7.800   5.684  19.246  0.00  0.00    +0.000 C 
ATOM     21  C   UNL     1       7.326   5.810  17.817  0.00  0.00    +0.000 C 
ATOM     22  O   UNL     1       7.899   6.573  17.039  0.00  0.00    +0.000 OA
ENDBRANCH   1  21
TORSDOF 1
ENDMDL
MODEL 6
REMARK VINA RESULT:      -7.2      1.998      5.116
REMARK  Name = 
REMARK  4 active torsions:
REMARK  status: ('A' for Active; 'I' for Inactive)
REMARK    1  A    between atoms: C_1  and  C_2
REMARK    2  A    between atoms: C_2  and  C_4
REMARK    3  A    between atoms: C_15  and  C_16
REMARK    4  A    between atoms: C_15  and  C_17
REMARK                            x       y       z     vdW  Elec       q    Type
REMARK                         _______ _______ _______ _____ _____    ______ ____
ROOT
ATOM      1  C   UNL     1       5.873   4.269  17.465  0.00  0.00    +0.000 C 
ATOM      2  N   UNL     1       5.533   3.479  18.675  0.00  0.00    +0.000 N 
ATOM      3  C   UNL     1       4.180   3.332  19.015  0.00  0.00    +0.000 A 
ATOM      4  C   UNL     1       3.152   3.919  18.343  0.00  0.00    +0.000 A 
ATOM      5  N   UNL     1       1.835   3.762  18.691  0.00  0.00    +0.000 NA
ATOM      6  C   UNL     1       1.551   3.044  19.727  0.00  0.00    +0.000 A 
ATOM      7  N   UNL     1       0.261   2.862  20.104  0.00  0.00    +0.000 N 
ATOM      8  N   UNL     1       2.493   2.435  20.490  0.00  0.00    +0.000 N 
ATOM      9  C   UNL     1       3.824   2.581  20.253  0.00  0.00    +0.000 A 
ATOM     10  O   UNL     1       4.680   2.160  21.026  0.00  0.00    +0.000 OA
ATOM     11  N   UNL     1       3.470   4.794  17.293  0.00  0.00    +0.000 N 
ATOM     12  C   UNL     1       4.823   5.417  17.235  0.00  0.00    +0.000 C 
ATOM     13  C   UNL     1       4.881   6.536  18.296  0.00  0.00    +0.000 C 
ATOM     14  C   UNL     1       4.982   6.038  15.837  0.00  0.00    +0.000 C 
ATOM     15  H   UNL     1       6.106   3.608  19.510  0.00  0.00    +0.000 HD
ATOM     16  H   UNL     1      -0.392   3.109  19.368  0.00  0.00    +0.000 HD
ATOM     17  H   UNL     1       0.029   1.996  20.571  0.00  0.00    +0.000 HD
ATOM     18  H   UNL     1       2.241   1.963  21.340  0.00  0.00    +0.000 HD
ATOM     19  H   UNL     1       2.684   5.418  17.127  0.00  0.00    +0.000 HD
ENDROOT
BRANCH   1  21
ATOM     20  C   UNL     1       7.847   5.352  18.726  0.00  0.00    +0.000 C 
ATOM     21  C   UNL     1       7.351   4.670  17.472  0.00  0.00    +0.000 C 
ATOM     22  O   UNL     1       8.125   4.449  16.540  0.00  0.00    +0.000 OA
ENDBRANCH   1  21
TORSDOF 1
ENDMDL
MODEL 7
REMARK VINA RESULT:      -7.2      2.283      5.663
REMARK  Name = 
REMARK  4 active torsions:
REMARK  status: ('A' for Active; 'I' for Inactive)
REMARK    1  A    between atoms: C_1  and  C_2
REMARK    2  A    between atoms: C_2  and  C_4
REMARK    3  A    between atoms: C_15  and  C_16
REMARK    4  A    between atoms: C_15  and  C_17
REMARK                            x       y       z     vdW  Elec       q    Type
REMARK                         _______ _______ _______ _____ _____    ______ ____
ROOT
ATOM      1  C   UNL     1       5.832   5.460  16.000  0.00  0.00    +0.000 C 
ATOM      2  N   UNL     1       4.736   4.508  16.312  0.00  0.00    +0.000 N 
ATOM      3  C   UNL     1       4.118   4.594  17.569  0.00  0.00    +0.000 A 
ATOM      4  C   UNL     1       4.498   5.455  18.552  0.00  0.00    +0.000 A 
ATOM      5  N   UNL     1       3.880   5.524  19.775  0.00  0.00    +0.000 NA
ATOM      6  C   UNL     1       2.905   4.713  20.021  0.00  0.00    +0.000 A 
ATOM      7  N   UNL     1       2.266   4.749  21.217  0.00  0.00    +0.000 N 
ATOM      8  N   UNL     1       2.460   3.793  19.129  0.00  0.00    +0.000 N 
ATOM      9  C   UNL     1       3.049   3.616  17.915  0.00  0.00    +0.000 A 
ATOM     10  O   UNL     1       2.750   2.688  17.168  0.00  0.00    +0.000 OA
ATOM     11  N   UNL     1       5.631   6.251  18.327  0.00  0.00    +0.000 N 
ATOM     12  C   UNL     1       6.631   5.838  17.301  0.00  0.00    +0.000 C 
ATOM     13  C   UNL     1       7.460   4.673  17.882  0.00  0.00    +0.000 C 
ATOM     14  C   UNL     1       7.555   7.041  17.051  0.00  0.00    +0.000 C 
ATOM     15  H   UNL     1       4.850   3.535  16.029  0.00  0.00    +0.000 HD
ATOM     16  H   UNL     1       2.456   5.605  21.727  0.00  0.00    +0.000 HD
ATOM     17  H   UNL     1       1.292   4.481  21.233  0.00  0.00    +0.000 HD
ATOM     18  H   UNL     1       1.763   3.118  19.389  0.00  0.00    +0.000 HD
ATOM     19  H   UNL     1       6.009   6.556  19.220  0.00  0.00    +0.000 HD
ENDROOT
BRANCH   1  21
ATOM     20  C   UNL     1       6.037   3.860  13.986  0.00  0.00    +0.000 C 
ATOM     21  C   UNL     1       6.649   4.978  14.798  0.00  0.00    +0.000 C 
ATOM     22  O   UNL     1       7.733   5.460  14.469  0.00  0.00    +0.000 OA
ENDBRANCH   1  21
TORSDOF 1
ENDMDL
MODEL 8
REMARK VINA RESULT:      -6.9      2.253      3.335
REMARK  Name = 
REMARK  4 active torsions:
REMARK  status: ('A' for Active; 'I' for Inactive)
REMARK    1  A    between atoms: C_1  and  C_2
REMARK    2  A    between atoms: C_2  and  C_4
REMARK    3  A    between atoms: C_15  and  C_16
REMARK    4  A    between atoms: C_15  and  C_17
REMARK                            x       y       z     vdW  Elec       q    Type
REMARK                         _______ _______ _______ _____ _____    ______ ____
ROOT
ATOM      1  C   UNL     1       3.888   3.498  17.867  0.00  0.00    +0.000 C 
ATOM      2  N   UNL     1       4.280   4.674  17.050  0.00  0.00    +0.000 N 
ATOM      3  C   UNL     1       5.391   5.427  17.460  0.00  0.00    +0.000 A 
ATOM      4  C   UNL     1       6.103   5.189  18.595  0.00  0.00    +0.000 A 
ATOM      5  N   UNL     1       7.187   5.937  18.977  0.00  0.00    +0.000 NA
ATOM      6  C   UNL     1       7.539   6.938  18.239  0.00  0.00    +0.000 A 
ATOM      7  N   UNL     1       8.606   7.702  18.580  0.00  0.00    +0.000 N 
ATOM      8  N   UNL     1       6.887   7.287  17.102  0.00  0.00    +0.000 N 
ATOM      9  C   UNL     1       5.770   6.638  16.677  0.00  0.00    +0.000 A 
ATOM     10  O   UNL     1       5.091   7.043  15.737  0.00  0.00    +0.000 OA
ATOM     11  N   UNL     1       5.648   4.179  19.456  0.00  0.00    +0.000 N 
ATOM     12  C   UNL     1       4.226   3.734  19.385  0.00  0.00    +0.000 C 
ATOM     13  C   UNL     1       3.352   4.815  20.056  0.00  0.00    +0.000 C 
ATOM     14  C   UNL     1       4.115   2.426  20.185  0.00  0.00    +0.000 C 
ATOM     15  H   UNL     1       3.541   5.281  16.696  0.00  0.00    +0.000 HD
ATOM     16  H   UNL     1       9.197   7.249  19.270  0.00  0.00    +0.000 HD
ATOM     17  H   UNL     1       9.126   8.138  17.831  0.00  0.00    +0.000 HD
ATOM     18  H   UNL     1       7.131   8.125  16.605  0.00  0.00    +0.000 HD
ATOM     19  H   UNL     1       6.018   4.340  20.388  0.00  0.00    +0.000 HD
ENDROOT
BRANCH   1  21
ATOM     20  C   UNL     1       1.427   4.151  17.451  0.00  0.00    +0.000 C 
ATOM     21  C   UNL     1       2.461   3.053  17.534  0.00  0.00    +0.000 C 
ATOM     22  O   UNL     1       2.141   1.883  17.320  0.00  0.00    +0.000 OA
ENDBRANCH   1  21
TORSDOF 1
ENDMDL
MODEL 9
REMARK VINA RESULT:      -6.9      1.222      1.273
REMARK  Name = 
REMARK  4 active torsions:
REMARK  status: ('A' for Active; 'I' for Inactive)
REMARK    1  A    between atoms: C_1  and  C_2
REMARK    2  A    between atoms: C_2  and  C_4
REMARK    3  A    between atoms: C_15  and  C_16
REMARK    4  A    between atoms: C_15  and  C_17
REMARK                            x       y       z     vdW  Elec       q    Type
REMARK                         _______ _______ _______ _____ _____    ______ ____
ROOT
ATOM      1  C   UNL     1       2.908   4.352  19.422  0.00  0.00    +0.000 C 
ATOM      2  N   UNL     1       4.336   4.680  19.659  0.00  0.00    +0.000 N 
ATOM      3  C   UNL     1       5.148   4.959  18.548  0.00  0.00    +0.000 A 
ATOM      4  C   UNL     1       4.729   4.890  17.256  0.00  0.00    +0.000 A 
ATOM      5  N   UNL     1       5.539   5.167  16.184  0.00  0.00    +0.000 NA
ATOM      6  C   UNL     1       6.771   5.484  16.406  0.00  0.00    +0.000 A 
ATOM      7  N   UNL     1       7.605   5.768  15.375  0.00  0.00    +0.000 N 
ATOM      8  N   UNL     1       7.307   5.556  17.650  0.00  0.00    +0.000 N 
ATOM      9  C   UNL     1       6.595   5.243  18.766  0.00  0.00    +0.000 A 
ATOM     10  O   UNL     1       7.114   5.159  19.876  0.00  0.00    +0.000 OA
ATOM     11  N   UNL     1       3.426   4.430  17.011  0.00  0.00    +0.000 N 
ATOM     12  C   UNL     1       2.725   3.614  18.045  0.00  0.00    +0.000 C 
ATOM     13  C   UNL     1       3.322   2.192  18.018  0.00  0.00    +0.000 C 
ATOM     14  C   UNL     1       1.241   3.547  17.647  0.00  0.00    +0.000 C 
ATOM     15  H   UNL     1       4.846   4.133  20.353  0.00  0.00    +0.000 HD
ATOM     16  H   UNL     1       7.100   5.954  14.514  0.00  0.00    +0.000 HD
ATOM     17  H   UNL     1       8.356   6.421  15.548  0.00  0.00    +0.000 HD
ATOM     18  H   UNL     1       8.291   5.714  17.779  0.00  0.00    +0.000 HD
ATOM     19  H   UNL     1       3.364   4.088  16.056  0.00  0.00    +0.000 HD
ENDROOT
BRANCH   1  21
ATOM     20  C   UNL     1       3.119   2.616  21.318  0.00  0.00    +0.000 C 
ATOM     21  C   UNL     1       2.287   3.688  20.654  0.00  0.00    +0.000 C 
ATOM     22  O   UNL     1       1.189   3.995  21.118  0.00  0.00    +0.000 OA
ENDBRANCH   1  21
TORSDOF 1
ENDMDL
