MODEL 1
REMARK VINA RESULT:      -7.7      0.000      0.000
REMARK  Name = 
REMARK  6 active torsions:
REMARK  status: ('A' for Active; 'I' for Inactive)
REMARK    1  A    between atoms: C_1  and  C_2
REMARK    2  A    between atoms: C_5  and  C_6
REMARK    3  A    between atoms: N_11  and  C_12
REMARK    4  A    between atoms: C_15  and  C_16
REMARK    5  A    between atoms: C_16  and  C_17
REMARK    6  A    between atoms: C_16  and  C_18
REMARK                            x       y       z     vdW  Elec       q    Type
REMARK                         _______ _______ _______ _____ _____    ______ ____
ROOT
ATOM      1  C   UNL     1       3.206   6.121  18.929  0.00  0.00    +0.000 C 
ATOM      2  O   UNL     1       3.153   5.432  19.947  0.00  0.00    +0.000 OA
ATOM      3  N   UNL     1       2.496   7.307  18.795  0.00  0.00    +0.000 N 
ATOM      4  C   UNL     1       1.833   7.962  19.816  0.00  0.00    +0.000 C 
ATOM      5  N   UNL     1       1.941   7.545  21.030  0.00  0.00    +0.000 NA
ATOM      6  N   UNL     1       1.078   9.052  19.447  0.00  0.00    +0.000 N 
ATOM      7  H   UNL     1       2.510   7.794  17.916  0.00  0.00    +0.000 HD
ATOM      8  H   UNL     1       2.521   6.691  21.048  0.00  0.00    +0.000 HD
ATOM      9  H   UNL     1       0.434   8.866  18.690  0.00  0.00    +0.000 HD
ENDROOT
BRANCH   1  14
ATOM     10  C   UNL     1       6.327   4.516  14.289  0.00  0.00    +0.000 C 
ATOM     11  C   UNL     1       5.531   4.906  15.501  0.00  0.00    +0.000 A 
ATOM     12  C   UNL     1       5.284   6.251  15.781  0.00  0.00    +0.000 A 
ATOM     13  C   UNL     1       4.537   6.604  16.905  0.00  0.00    +0.000 A 
ATOM     14  C   UNL     1       4.027   5.629  17.780  0.00  0.00    +0.000 A 
ATOM     15  C   UNL     1       4.267   4.283  17.495  0.00  0.00    +0.000 A 
ATOM     16  C   UNL     1       5.019   3.927  16.364  0.00  0.00    +0.000 A 
ENDBRANCH   1  14
BRANCH   6  17
ATOM     17  C   UNL     1       0.548   9.969  20.390  0.00  0.00    +0.000 A 
ATOM     18  C   UNL     1      -0.215   9.521  21.473  0.00  0.00    +0.000 A 
ATOM     19  C   UNL     1      -0.775  10.415  22.387  0.00  0.00    +0.000 A 
ATOM     20  C   UNL     1      -0.595  11.795  22.244  0.00  0.00    +0.000 A 
ATOM     21  C   UNL     1       0.178  12.253  21.167  0.00  0.00    +0.000 A 
ATOM     22  C   UNL     1       0.748  11.349  20.254  0.00  0.00    +0.000 A 
BRANCH  20  23
ATOM     23  C   UNL     1      -1.257  12.732  23.239  0.00  0.00    +0.000 C 
ATOM     24  C   UNL     1      -0.917  14.197  22.965  0.00  0.00    +0.000 C 
ATOM     25  C   UNL     1      -2.773  12.522  23.299  0.00  0.00    +0.000 C 
ENDBRANCH  20  23
ENDBRANCH   6  17
TORSDOF 3
ENDMDL
MODEL 2
REMARK VINA RESULT:      -7.7      0.239      1.047
REMARK  Name = 
REMARK  6 active torsions:
REMARK  status: ('A' for Active; 'I' for Inactive)
REMARK    1  A    between atoms: C_1  and  C_2
REMARK    2  A    between atoms: C_5  and  C_6
REMARK    3  A    between atoms: N_11  and  C_12
REMARK    4  A    between atoms: C_15  and  C_16
REMARK    5  A    between atoms: C_16  and  C_17
REMARK    6  A    between atoms: C_16  and  C_18
REMARK                            x       y       z     vdW  Elec       q    Type
REMARK                         _______ _______ _______ _____ _____    ______ ____
ROOT
ATOM      1  C   UNL     1       3.136   6.254  18.913  0.00  0.00    +0.000 C 
ATOM      2  O   UNL     1       3.134   5.577  19.941  0.00  0.00    +0.000 OA
ATOM      3  N   UNL     1       2.391   7.419  18.787  0.00  0.00    +0.000 N 
ATOM      4  C   UNL     1       1.743   8.069  19.821  0.00  0.00    +0.000 C 
ATOM      5  N   UNL     1       1.900   7.671  21.037  0.00  0.00    +0.000 NA
ATOM      6  N   UNL     1       0.947   9.134  19.463  0.00  0.00    +0.000 N 
ATOM      7  H   UNL     1       2.364   7.895  17.903  0.00  0.00    +0.000 HD
ATOM      8  H   UNL     1       2.503   6.833  21.046  0.00  0.00    +0.000 HD
ATOM      9  H   UNL     1       0.285   8.921  18.729  0.00  0.00    +0.000 HD
ENDROOT
BRANCH   1  14
ATOM     10  C   UNL     1       6.266   4.049  14.533  0.00  0.00    +0.000 C 
ATOM     11  C   UNL     1       5.454   4.643  15.647  0.00  0.00    +0.000 A 
ATOM     12  C   UNL     1       4.727   3.819  16.508  0.00  0.00    +0.000 A 
ATOM     13  C   UNL     1       3.981   4.379  17.546  0.00  0.00    +0.000 A 
ATOM     14  C   UNL     1       3.934   5.770  17.745  0.00  0.00    +0.000 A 
ATOM     15  C   UNL     1       4.669   6.594  16.889  0.00  0.00    +0.000 A 
ATOM     16  C   UNL     1       5.420   6.031  15.845  0.00  0.00    +0.000 A 
ENDBRANCH   1  14
BRANCH   6  17
ATOM     17  C   UNL     1       0.422  10.048  20.411  0.00  0.00    +0.000 A 
ATOM     18  C   UNL     1      -0.129   9.595  21.614  0.00  0.00    +0.000 A 
ATOM     19  C   UNL     1      -0.684  10.481  22.539  0.00  0.00    +0.000 A 
ATOM     20  C   UNL     1      -0.712  11.857  22.288  0.00  0.00    +0.000 A 
ATOM     21  C   UNL     1      -0.152  12.322  21.089  0.00  0.00    +0.000 A 
ATOM     22  C   UNL     1       0.414  11.428  20.164  0.00  0.00    +0.000 A 
BRANCH  20  23
ATOM     23  C   UNL     1      -1.363  12.778  23.304  0.00  0.00    +0.000 C 
ATOM     24  C   UNL     1      -0.950  14.237  23.107  0.00  0.00    +0.000 C 
ATOM     25  C   UNL     1      -2.887  12.636  23.310  0.00  0.00    +0.000 C 
ENDBRANCH  20  23
ENDBRANCH   6  17
TORSDOF 3
ENDMDL
MODEL 3
REMARK VINA RESULT:      -7.6      6.641      9.666
REMARK  Name = 
REMARK  6 active torsions:
REMARK  status: ('A' for Active; 'I' for Inactive)
REMARK    1  A    between atoms: C_1  and  C_2
REMARK    2  A    between atoms: C_5  and  C_6
REMARK    3  A    between atoms: N_11  and  C_12
REMARK    4  A    between atoms: C_15  and  C_16
REMARK    5  A    between atoms: C_16  and  C_17
REMARK    6  A    between atoms: C_16  and  C_18
REMARK                            x       y       z     vdW  Elec       q    Type
REMARK                         _______ _______ _______ _____ _____    ______ ____
ROOT
ATOM      1  C   UNL     1       9.582  10.777  18.484  0.00  0.00    +0.000 C 
ATOM      2  O   UNL     1      10.129  10.323  19.488  0.00  0.00    +0.000 OA
ATOM      3  N   UNL     1       8.734  10.017  17.689  0.00  0.00    +0.000 N 
ATOM      4  C   UNL     1       8.235   8.771  18.017  0.00  0.00    +0.000 C 
ATOM      5  N   UNL     1       8.451   8.273  19.186  0.00  0.00    +0.000 NA
ATOM      6  N   UNL     1       7.518   8.127  17.034  0.00  0.00    +0.000 N 
ATOM      7  H   UNL     1       8.374  10.409  16.836  0.00  0.00    +0.000 HD
ATOM      8  H   UNL     1       9.047   8.920  19.727  0.00  0.00    +0.000 HD
ATOM      9  H   UNL     1       7.997   8.077  16.145  0.00  0.00    +0.000 HD
ENDROOT
BRANCH   1  14
ATOM     10  C   UNL     1      11.122  16.156  16.887  0.00  0.00    +0.000 C 
ATOM     11  C   UNL     1      10.696  14.776  17.299  0.00  0.00    +0.000 A 
ATOM     12  C   UNL     1      11.458  13.664  16.936  0.00  0.00    +0.000 A 
ATOM     13  C   UNL     1      11.059  12.386  17.329  0.00  0.00    +0.000 A 
ATOM     14  C   UNL     1       9.890  12.185  18.084  0.00  0.00    +0.000 A 
ATOM     15  C   UNL     1       9.132  13.299  18.454  0.00  0.00    +0.000 A 
ATOM     16  C   UNL     1       9.532  14.585  18.058  0.00  0.00    +0.000 A 
ENDBRANCH   1  14
BRANCH   6  17
ATOM     17  C   UNL     1       6.739   6.970  17.289  0.00  0.00    +0.000 A 
ATOM     18  C   UNL     1       7.346   5.726  17.480  0.00  0.00    +0.000 A 
ATOM     19  C   UNL     1       6.589   4.572  17.694  0.00  0.00    +0.000 A 
ATOM     20  C   UNL     1       5.190   4.625  17.720  0.00  0.00    +0.000 A 
ATOM     21  C   UNL     1       4.573   5.872  17.539  0.00  0.00    +0.000 A 
ATOM     22  C   UNL     1       5.339   7.032  17.333  0.00  0.00    +0.000 A 
BRANCH  20  23
ATOM     23  C   UNL     1       4.408   3.340  17.914  0.00  0.00    +0.000 C 
ATOM     24  C   UNL     1       4.328   2.931  19.385  0.00  0.00    +0.000 C 
ATOM     25  C   UNL     1       3.011   3.421  17.292  0.00  0.00    +0.000 C 
ENDBRANCH  20  23
ENDBRANCH   6  17
TORSDOF 3
ENDMDL
MODEL 4
REMARK VINA RESULT:      -7.6      6.737      9.603
REMARK  Name = 
REMARK  6 active torsions:
REMARK  status: ('A' for Active; 'I' for Inactive)
REMARK    1  A    between atoms: C_1  and  C_2
REMARK    2  A    between atoms: C_5  and  C_6
REMARK    3  A    between atoms: N_11  and  C_12
REMARK    4  A    between atoms: C_15  and  C_16
REMARK    5  A    between atoms: C_16  and  C_17
REMARK    6  A    between atoms: C_16  and  C_18
REMARK                            x       y       z     vdW  Elec       q    Type
REMARK                         _______ _______ _______ _____ _____    ______ ____
ROOT
ATOM      1  C   UNL     1       9.496  10.675  18.479  0.00  0.00    +0.000 C 
ATOM      2  O   UNL     1      10.058  10.212  19.471  0.00  0.00    +0.000 OA
ATOM      3  N   UNL     1       8.656   9.915  17.675  0.00  0.00    +0.000 N 
ATOM      4  C   UNL     1       8.183   8.653  17.981  0.00  0.00    +0.000 C 
ATOM      5  N   UNL     1       8.416   8.137  19.140  0.00  0.00    +0.000 NA
ATOM      6  N   UNL     1       7.472   8.014  16.990  0.00  0.00    +0.000 N 
ATOM      7  H   UNL     1       8.283  10.316  16.832  0.00  0.00    +0.000 HD
ATOM      8  H   UNL     1       9.003   8.784  19.689  0.00  0.00    +0.000 HD
ATOM      9  H   UNL     1       7.946   7.991  16.098  0.00  0.00    +0.000 HD
ENDROOT
BRANCH   1  14
ATOM     10  C   UNL     1      10.927  16.119  17.008  0.00  0.00    +0.000 C 
ATOM     11  C   UNL     1      10.529  14.721  17.385  0.00  0.00    +0.000 A 
ATOM     12  C   UNL     1      11.361  13.643  17.080  0.00  0.00    +0.000 A 
ATOM     13  C   UNL     1      10.987  12.348  17.441  0.00  0.00    +0.000 A 
ATOM     14  C   UNL     1       9.774  12.096  18.104  0.00  0.00    +0.000 A 
ATOM     15  C   UNL     1       8.945  13.176  18.417  0.00  0.00    +0.000 A 
ATOM     16  C   UNL     1       9.320  14.479  18.054  0.00  0.00    +0.000 A 
ENDBRANCH   1  14
BRANCH   6  17
ATOM     17  C   UNL     1       6.716   6.839  17.229  0.00  0.00    +0.000 A 
ATOM     18  C   UNL     1       5.328   6.834  17.059  0.00  0.00    +0.000 A 
ATOM     19  C   UNL     1       4.566   5.695  17.326  0.00  0.00    +0.000 A 
ATOM     20  C   UNL     1       5.171   4.518  17.781  0.00  0.00    +0.000 A 
ATOM     21  C   UNL     1       6.564   4.511  17.945  0.00  0.00    +0.000 A 
ATOM     22  C   UNL     1       7.328   5.656  17.665  0.00  0.00    +0.000 A 
BRANCH  20  23
ATOM     23  C   UNL     1       4.299   3.317  18.100  0.00  0.00    +0.000 C 
ATOM     24  C   UNL     1       4.365   2.933  19.578  0.00  0.00    +0.000 C 
ATOM     25  C   UNL     1       2.850   3.528  17.652  0.00  0.00    +0.000 C 
ENDBRANCH  20  23
ENDBRANCH   6  17
TORSDOF 3
ENDMDL
MODEL 5
REMARK VINA RESULT:      -7.6      6.116      8.919
REMARK  Name = 
REMARK  6 active torsions:
REMARK  status: ('A' for Active; 'I' for Inactive)
REMARK    1  A    between atoms: C_1  and  C_2
REMARK    2  A    between atoms: C_5  and  C_6
REMARK    3  A    between atoms: N_11  and  C_12
REMARK    4  A    between atoms: C_15  and  C_16
REMARK    5  A    between atoms: C_16  and  C_17
REMARK    6  A    between atoms: C_16  and  C_18
REMARK                            x       y       z     vdW  Elec       q    Type
REMARK                         _______ _______ _______ _____ _____    ______ ____
ROOT
ATOM      1  C   UNL     1       8.726   9.451  18.295  0.00  0.00    +0.000 C 
ATOM      2  O   UNL     1       9.344   8.739  19.087  0.00  0.00    +0.000 OA
ATOM      3  N   UNL     1       7.695   8.963  17.503  0.00  0.00    +0.000 N 
ATOM      4  C   UNL     1       7.098   7.724  17.641  0.00  0.00    +0.000 C 
ATOM      5  N   UNL     1       7.407   6.964  18.635  0.00  0.00    +0.000 NA
ATOM      6  N   UNL     1       6.185   7.379  16.670  0.00  0.00    +0.000 N 
ATOM      7  H   UNL     1       7.274   9.564  16.815  0.00  0.00    +0.000 HD
ATOM      8  H   UNL     1       8.142   7.419  19.198  0.00  0.00    +0.000 HD
ATOM      9  H   UNL     1       6.532   7.485  15.727  0.00  0.00    +0.000 HD
ENDROOT
BRANCH   1  14
ATOM     10  C   UNL     1      10.069  15.057  17.512  0.00  0.00    +0.000 C 
ATOM     11  C   UNL     1       9.744  13.608  17.735  0.00  0.00    +0.000 A 
ATOM     12  C   UNL     1       8.444  13.138  17.541  0.00  0.00    +0.000 A 
ATOM     13  C   UNL     1       8.152  11.789  17.743  0.00  0.00    +0.000 A 
ATOM     14  C   UNL     1       9.144  10.879  18.150  0.00  0.00    +0.000 A 
ATOM     15  C   UNL     1      10.447  11.348  18.335  0.00  0.00    +0.000 A 
ATOM     16  C   UNL     1      10.741  12.706  18.133  0.00  0.00    +0.000 A 
ENDBRANCH   1  14
BRANCH   6  17
ATOM     17  C   UNL     1       5.314   6.269  16.801  0.00  0.00    +0.000 A 
ATOM     18  C   UNL     1       4.157   6.354  17.582  0.00  0.00    +0.000 A 
ATOM     19  C   UNL     1       3.311   5.257  17.751  0.00  0.00    +0.000 A 
ATOM     20  C   UNL     1       3.597   4.029  17.144  0.00  0.00    +0.000 A 
ATOM     21  C   UNL     1       4.750   3.937  16.350  0.00  0.00    +0.000 A 
ATOM     22  C   UNL     1       5.594   5.046  16.175  0.00  0.00    +0.000 A 
BRANCH  20  23
ATOM     23  C   UNL     1       2.670   2.852  17.389  0.00  0.00    +0.000 C 
ATOM     24  C   UNL     1       3.383   1.693  18.086  0.00  0.00    +0.000 C 
ATOM     25  C   UNL     1       1.414   3.265  18.159  0.00  0.00    +0.000 C 
ENDBRANCH  20  23
ENDBRANCH   6  17
TORSDOF 3
ENDMDL
MODEL 6
REMARK VINA RESULT:      -7.5      7.203      7.784
REMARK  Name = 
REMARK  6 active torsions:
REMARK  status: ('A' for Active; 'I' for Inactive)
REMARK    1  A    between atoms: C_1  and  C_2
REMARK    2  A    between atoms: C_5  and  C_6
REMARK    3  A    between atoms: N_11  and  C_12
REMARK    4  A    between atoms: C_15  and  C_16
REMARK    5  A    between atoms: C_16  and  C_17
REMARK    6  A    between atoms: C_16  and  C_18
REMARK                            x       y       z     vdW  Elec       q    Type
REMARK                         _______ _______ _______ _____ _____    ______ ____
ROOT
ATOM      1  C   UNL     1       7.266   6.004  17.020  0.00  0.00    +0.000 C 
ATOM      2  O   UNL     1       7.496   5.407  18.072  0.00  0.00    +0.000 OA
ATOM      3  N   UNL     1       7.402   7.382  16.900  0.00  0.00    +0.000 N 
ATOM      4  C   UNL     1       7.995   8.211  17.834  0.00  0.00    +0.000 C 
ATOM      5  N   UNL     1       8.584   7.709  18.864  0.00  0.00    +0.000 NA
ATOM      6  N   UNL     1       7.909   9.562  17.586  0.00  0.00    +0.000 N 
ATOM      7  H   UNL     1       7.127   7.832  16.045  0.00  0.00    +0.000 HD
ATOM      8  H   UNL     1       8.478   6.682  18.852  0.00  0.00    +0.000 HD
ATOM      9  H   UNL     1       6.970   9.883  17.395  0.00  0.00    +0.000 HD
ENDROOT
BRANCH   1  14
ATOM     10  C   UNL     1       5.533   3.159  12.251  0.00  0.00    +0.000 C 
ATOM     11  C   UNL     1       5.967   3.872  13.499  0.00  0.00    +0.000 A 
ATOM     12  C   UNL     1       7.132   4.641  13.503  0.00  0.00    +0.000 A 
ATOM     13  C   UNL     1       7.525   5.307  14.665  0.00  0.00    +0.000 A 
ATOM     14  C   UNL     1       6.773   5.216  15.849  0.00  0.00    +0.000 A 
ATOM     15  C   UNL     1       5.603   4.453  15.842  0.00  0.00    +0.000 A 
ATOM     16  C   UNL     1       5.207   3.783  14.674  0.00  0.00    +0.000 A 
ENDBRANCH   1  14
BRANCH   6  17
ATOM     17  C   UNL     1       8.669  10.520  18.302  0.00  0.00    +0.000 A 
ATOM     18  C   UNL     1       9.246  10.200  19.535  0.00  0.00    +0.000 A 
ATOM     19  C   UNL     1       9.966  11.145  20.269  0.00  0.00    +0.000 A 
ATOM     20  C   UNL     1      10.127  12.452  19.794  0.00  0.00    +0.000 A 
ATOM     21  C   UNL     1       9.560  12.779  18.553  0.00  0.00    +0.000 A 
ATOM     22  C   UNL     1       8.846  11.822  17.813  0.00  0.00    +0.000 A 
BRANCH  20  23
ATOM     23  C   UNL     1      10.882  13.457  20.645  0.00  0.00    +0.000 C 
ATOM     24  C   UNL     1      11.674  14.451  19.796  0.00  0.00    +0.000 C 
ATOM     25  C   UNL     1       9.956  14.186  21.623  0.00  0.00    +0.000 C 
ENDBRANCH  20  23
ENDBRANCH   6  17
TORSDOF 3
ENDMDL
MODEL 7
REMARK VINA RESULT:      -7.5      6.731      9.697
REMARK  Name = 
REMARK  6 active torsions:
REMARK  status: ('A' for Active; 'I' for Inactive)
REMARK    1  A    between atoms: C_1  and  C_2
REMARK    2  A    between atoms: C_5  and  C_6
REMARK    3  A    between atoms: N_11  and  C_12
REMARK    4  A    between atoms: C_15  and  C_16
REMARK    5  A    between atoms: C_16  and  C_17
REMARK    6  A    between atoms: C_16  and  C_18
REMARK                            x       y       z     vdW  Elec       q    Type
REMARK                         _______ _______ _______ _____ _____    ______ ____
ROOT
ATOM      1  C   UNL     1       9.700  10.882  18.529  0.00  0.00    +0.000 C 
ATOM      2  O   UNL     1      10.216  10.446  19.558  0.00  0.00    +0.000 OA
ATOM      3  N   UNL     1       8.869  10.110  17.727  0.00  0.00    +0.000 N 
ATOM      4  C   UNL     1       8.353   8.874  18.068  0.00  0.00    +0.000 C 
ATOM      5  N   UNL     1       8.532   8.401  19.254  0.00  0.00    +0.000 NA
ATOM      6  N   UNL     1       7.659   8.213  17.080  0.00  0.00    +0.000 N 
ATOM      7  H   UNL     1       8.536  10.484  16.856  0.00  0.00    +0.000 HD
ATOM      8  H   UNL     1       9.117   9.055  19.797  0.00  0.00    +0.000 HD
ATOM      9  H   UNL     1       8.162   8.140  16.206  0.00  0.00    +0.000 HD
ENDROOT
BRANCH   1  14
ATOM     10  C   UNL     1      10.628  16.398  16.927  0.00  0.00    +0.000 C 
ATOM     11  C   UNL     1      10.418  14.969  17.340  0.00  0.00    +0.000 A 
ATOM     12  C   UNL     1       9.319  14.615  18.125  0.00  0.00    +0.000 A 
ATOM     13  C   UNL     1       9.127  13.285  18.498  0.00  0.00    +0.000 A 
ATOM     14  C   UNL     1      10.028  12.278  18.107  0.00  0.00    +0.000 A 
ATOM     15  C   UNL     1      11.123  12.632  17.314  0.00  0.00    +0.000 A 
ATOM     16  C   UNL     1      11.316  13.970  16.939  0.00  0.00    +0.000 A 
ENDBRANCH   1  14
BRANCH   6  17
ATOM     17  C   UNL     1       6.865   7.067  17.339  0.00  0.00    +0.000 A 
ATOM     18  C   UNL     1       7.454   5.862  17.733  0.00  0.00    +0.000 A 
ATOM     19  C   UNL     1       6.687   4.716  17.954  0.00  0.00    +0.000 A 
ATOM     20  C   UNL     1       5.299   4.737  17.781  0.00  0.00    +0.000 A 
ATOM     21  C   UNL     1       4.698   5.944  17.395  0.00  0.00    +0.000 A 
ATOM     22  C   UNL     1       5.472   7.098  17.183  0.00  0.00    +0.000 A 
BRANCH  20  23
ATOM     23  C   UNL     1       4.511   3.456  17.992  0.00  0.00    +0.000 C 
ATOM     24  C   UNL     1       4.401   3.085  19.471  0.00  0.00    +0.000 C 
ATOM     25  C   UNL     1       3.128   3.521  17.339  0.00  0.00    +0.000 C 
ENDBRANCH  20  23
ENDBRANCH   6  17
TORSDOF 3
ENDMDL
MODEL 8
REMARK VINA RESULT:      -7.5      0.238      1.050
REMARK  Name = 
REMARK  6 active torsions:
REMARK  status: ('A' for Active; 'I' for Inactive)
REMARK    1  A    between atoms: C_1  and  C_2
REMARK    2  A    between atoms: C_5  and  C_6
REMARK    3  A    between atoms: N_11  and  C_12
REMARK    4  A    between atoms: C_15  and  C_16
REMARK    5  A    between atoms: C_16  and  C_17
REMARK    6  A    between atoms: C_16  and  C_18
REMARK                            x       y       z     vdW  Elec       q    Type
REMARK                         _______ _______ _______ _____ _____    ______ ____
ROOT
ATOM      1  C   UNL     1       3.270   6.076  18.819  0.00  0.00    +0.000 C 
ATOM      2  O   UNL     1       3.196   5.403  19.847  0.00  0.00    +0.000 OA
ATOM      3  N   UNL     1       2.556   7.255  18.648  0.00  0.00    +0.000 N 
ATOM      4  C   UNL     1       1.864   7.922  19.641  0.00  0.00    +0.000 C 
ATOM      5  N   UNL     1       1.945   7.525  20.865  0.00  0.00    +0.000 NA
ATOM      6  N   UNL     1       1.111   9.001  19.236  0.00  0.00    +0.000 N 
ATOM      7  H   UNL     1       2.588   7.727  17.761  0.00  0.00    +0.000 HD
ATOM      8  H   UNL     1       2.530   6.676  20.911  0.00  0.00    +0.000 HD
ATOM      9  H   UNL     1       0.487   8.798  18.467  0.00  0.00    +0.000 HD
ENDROOT
BRANCH   1  14
ATOM     10  C   UNL     1       6.510   4.413  14.282  0.00  0.00    +0.000 C 
ATOM     11  C   UNL     1       5.683   4.818  15.468  0.00  0.00    +0.000 A 
ATOM     12  C   UNL     1       5.411   6.165  15.712  0.00  0.00    +0.000 A 
ATOM     13  C   UNL     1       4.636   6.533  16.812  0.00  0.00    +0.000 A 
ATOM     14  C   UNL     1       4.122   5.570  17.699  0.00  0.00    +0.000 A 
ATOM     15  C   UNL     1       4.387   4.221  17.449  0.00  0.00    +0.000 A 
ATOM     16  C   UNL     1       5.167   3.851  16.343  0.00  0.00    +0.000 A 
ENDBRANCH   1  14
BRANCH   6  17
ATOM     17  C   UNL     1       0.553   9.929  20.151  0.00  0.00    +0.000 A 
ATOM     18  C   UNL     1       0.712  11.305  19.960  0.00  0.00    +0.000 A 
ATOM     19  C   UNL     1       0.200  12.230  20.873  0.00  0.00    +0.000 A 
ATOM     20  C   UNL     1      -0.487  11.805  22.016  0.00  0.00    +0.000 A 
ATOM     21  C   UNL     1      -0.660  10.427  22.210  0.00  0.00    +0.000 A 
ATOM     22  C   UNL     1      -0.152   9.500  21.284  0.00  0.00    +0.000 A 
BRANCH  20  23
ATOM     23  C   UNL     1      -0.989  12.845  23.002  0.00  0.00    +0.000 C 
ATOM     24  C   UNL     1      -0.615  14.266  22.581  0.00  0.00    +0.000 C 
ATOM     25  C   UNL     1      -2.496  12.722  23.243  0.00  0.00    +0.000 C 
ENDBRANCH  20  23
ENDBRANCH   6  17
TORSDOF 3
ENDMDL
MODEL 9
REMARK VINA RESULT:      -7.4      0.453      1.513
REMARK  Name = 
REMARK  6 active torsions:
REMARK  status: ('A' for Active; 'I' for Inactive)
REMARK    1  A    between atoms: C_1  and  C_2
REMARK    2  A    between atoms: C_5  and  C_6
REMARK    3  A    between atoms: N_11  and  C_12
REMARK    4  A    between atoms: C_15  and  C_16
REMARK    5  A    between atoms: C_16  and  C_17
REMARK    6  A    between atoms: C_16  and  C_18
REMARK                            x       y       z     vdW  Elec       q    Type
REMARK                         _______ _______ _______ _____ _____    ______ ____
ROOT
ATOM      1  C   UNL     1       2.973   6.446  18.940  0.00  0.00    +0.000 C 
ATOM      2  O   UNL     1       2.945   5.784  19.977  0.00  0.00    +0.000 OA
ATOM      3  N   UNL     1       2.249   7.622  18.787  0.00  0.00    +0.000 N 
ATOM      4  C   UNL     1       1.601   8.299  19.803  0.00  0.00    +0.000 C 
ATOM      5  N   UNL     1       1.736   7.916  21.026  0.00  0.00    +0.000 NA
ATOM      6  N   UNL     1       0.829   9.372  19.420  0.00  0.00    +0.000 N 
ATOM      7  H   UNL     1       2.242   8.085  17.895  0.00  0.00    +0.000 HD
ATOM      8  H   UNL     1       2.323   7.068  21.056  0.00  0.00    +0.000 HD
ATOM      9  H   UNL     1       0.172   9.160  18.681  0.00  0.00    +0.000 HD
ENDROOT
BRANCH   1  14
ATOM     10  C   UNL     1       6.134   4.126  14.641  0.00  0.00    +0.000 C 
ATOM     11  C   UNL     1       5.312   4.749  15.734  0.00  0.00    +0.000 A 
ATOM     12  C   UNL     1       4.615   3.947  16.638  0.00  0.00    +0.000 A 
ATOM     13  C   UNL     1       3.861   4.533  17.654  0.00  0.00    +0.000 A 
ATOM     14  C   UNL     1       3.776   5.930  17.789  0.00  0.00    +0.000 A 
ATOM     15  C   UNL     1       4.481   6.733  16.889  0.00  0.00    +0.000 A 
ATOM     16  C   UNL     1       5.240   6.143  15.866  0.00  0.00    +0.000 A 
ENDBRANCH   1  14
BRANCH   6  17
ATOM     17  C   UNL     1       0.309  10.310  20.347  0.00  0.00    +0.000 A 
ATOM     18  C   UNL     1       0.448  11.684  20.130  0.00  0.00    +0.000 A 
ATOM     19  C   UNL     1      -0.025  12.618  21.054  0.00  0.00    +0.000 A 
ATOM     20  C   UNL     1      -0.652  12.205  22.236  0.00  0.00    +0.000 A 
ATOM     21  C   UNL     1      -0.804  10.828  22.457  0.00  0.00    +0.000 A 
ATOM     22  C   UNL     1      -0.335   9.892  21.520  0.00  0.00    +0.000 A 
BRANCH  20  23
ATOM     23  C   UNL     1      -1.113  13.255  23.231  0.00  0.00    +0.000 C 
ATOM     24  C   UNL     1      -0.518  14.632  22.932  0.00  0.00    +0.000 C 
ATOM     25  C   UNL     1      -2.639  13.325  23.322  0.00  0.00    +0.000 C 
ENDBRANCH  20  23
ENDBRANCH   6  17
TORSDOF 3
ENDMDL
