MODEL 1
REMARK VINA RESULT:      -7.4      0.000      0.000
REMARK  Name = 
REMARK  9 active torsions:
REMARK  status: ('A' for Active; 'I' for Inactive)
REMARK    1  A    between atoms: C_1  and  C_2
REMARK    2  A    between atoms: C_2  and  C_3
REMARK    3  A    between atoms: C_2  and  C_4
REMARK    4  A    between atoms: C_4  and  O_5
REMARK    5  A    between atoms: C_4  and  C_6
REMARK    6  A    between atoms: C_11  and  C_12
REMARK    7  A    between atoms: C_11  and  N_13
REMARK    8  A    between atoms: C_17  and  C_18
REMARK    9  A    between atoms: C_32  and  C_33
REMARK                            x       y       z     vdW  Elec       q    Type
REMARK                         _______ _______ _______ _____ _____    ______ ____
ROOT
ATOM      1  N   UNL     1       4.745  15.302  19.277  0.00  0.00    +0.000 N 
ATOM      2  C   UNL     1       5.071  15.490  17.869  0.00  0.00    +0.000 C 
ATOM      3  C   UNL     1       6.528  15.087  17.663  0.00  0.00    +0.000 C 
ATOM      4  C   UNL     1       6.962  14.769  19.046  0.00  0.00    +0.000 A 
ATOM      5  C   UNL     1       8.153  14.284  19.517  0.00  0.00    +0.000 A 
ATOM      6  N   UNL     1       8.267  13.960  20.817  0.00  0.00    +0.000 NA
ATOM      7  C   UNL     1       7.206  14.097  21.648  0.00  0.00    +0.000 A 
ATOM      8  N   UNL     1       7.331  13.574  22.923  0.00  0.00    +0.000 N 
ATOM      9  C   UNL     1       8.652  13.018  23.285  0.00  0.00    +0.000 C 
ATOM     10  C   UNL     1       8.469  11.896  24.315  0.00  0.00    +0.000 C 
ATOM     11  O   UNL     1       7.785  12.373  25.482  0.00  0.00    +0.000 OA
ATOM     12  C   UNL     1       6.486  12.870  25.119  0.00  0.00    +0.000 C 
ATOM     13  C   UNL     1       6.570  14.045  24.105  0.00  0.00    +0.000 C 
ATOM     14  C   UNL     1       5.154  14.545  23.850  0.00  0.00    +0.000 C 
ATOM     15  N   UNL     1       6.026  14.587  21.225  0.00  0.00    +0.000 NA
ATOM     16  C   UNL     1       5.913  14.897  19.932  0.00  0.00    +0.000 A 
ENDROOT
BRANCH   5  17
ATOM     17  C   UNL     1       9.317  13.977  18.680  0.00  0.00    +0.000 A 
ATOM     18  C   UNL     1      10.163  14.922  18.133  0.00  0.00    +0.000 A 
ATOM     19  N   UNL     1      11.165  14.665  17.264  0.00  0.00    +0.000 NA
ATOM     20  C   UNL     1      11.350  13.388  16.937  0.00  0.00    +0.000 A 
ATOM     21  N   UNL     1      12.333  13.114  16.012  0.00  0.00    +0.000 N 
ATOM     22  N   UNL     1      10.670  12.370  17.462  0.00  0.00    +0.000 NA
ATOM     23  C   UNL     1       9.667  12.689  18.317  0.00  0.00    +0.000 A 
ATOM     24  H   UNL     1      12.991  13.878  15.984  0.00  0.00    +0.000 HD
ATOM     25  H   UNL     1      12.697  12.185  16.161  0.00  0.00    +0.000 HD
ENDBRANCH   5  17
BRANCH   1  31
ATOM     26  C   UNL     1       0.673  13.122  19.104  0.00  0.00    +0.000 C 
ATOM     27  O   UNL     1      -0.138  13.183  18.178  0.00  0.00    +0.000 OA
ATOM     28  N   UNL     1       1.397  14.222  19.513  0.00  0.00    +0.000 N 
ATOM     29  C   UNL     1       1.094  15.553  19.049  0.00  0.00    +0.000 C 
ATOM     30  C   UNL     1       2.453  16.163  18.803  0.00  0.00    +0.000 C 
ATOM     31  C   UNL     1       3.408  15.514  19.850  0.00  0.00    +0.000 C 
ATOM     32  C   UNL     1       3.502  16.433  21.078  0.00  0.00    +0.000 C 
ATOM     33  C   UNL     1       2.685  14.183  20.202  0.00  0.00    +0.000 C 
BRANCH  26  34
ATOM     34  C   UNL     1       0.929  11.807  19.875  0.00  0.00    +0.000 C 
BRANCH  34  36
ATOM     35  C   UNL     1      -0.395   9.742  20.469  0.00  0.00    +0.000 C 
ATOM     36  C   UNL     1      -0.338  11.271  20.577  0.00  0.00    +0.000 C 
ATOM     37  C   UNL     1      -0.402  11.666  22.055  0.00  0.00    +0.000 C 
ENDBRANCH  34  36
BRANCH  34  38
ATOM     38  O   UNL     1       1.432  10.810  18.985  0.00  0.00    +0.000 OA
ATOM     39  H   UNL     1       1.595  10.013  19.521  0.00  0.00    +0.000 HD
ENDBRANCH  34  38
ENDBRANCH  26  34
ENDBRANCH   1  31
TORSDOF 5
ENDMDL
MODEL 2
REMARK VINA RESULT:      -7.1      0.892      1.207
REMARK  Name = 
REMARK  9 active torsions:
REMARK  status: ('A' for Active; 'I' for Inactive)
REMARK    1  A    between atoms: C_1  and  C_2
REMARK    2  A    between atoms: C_2  and  C_3
REMARK    3  A    between atoms: C_2  and  C_4
REMARK    4  A    between atoms: C_4  and  O_5
REMARK    5  A    between atoms: C_4  and  C_6
REMARK    6  A    between atoms: C_11  and  C_12
REMARK    7  A    between atoms: C_11  and  N_13
REMARK    8  A    between atoms: C_17  and  C_18
REMARK    9  A    between atoms: C_32  and  C_33
REMARK                            x       y       z     vdW  Elec       q    Type
REMARK                         _______ _______ _______ _____ _____    ______ ____
ROOT
ATOM      1  N   UNL     1       4.209  15.258  19.292  0.00  0.00    +0.000 N 
ATOM      2  C   UNL     1       4.463  15.157  17.860  0.00  0.00    +0.000 C 
ATOM      3  C   UNL     1       5.921  14.753  17.666  0.00  0.00    +0.000 C 
ATOM      4  C   UNL     1       6.430  14.738  19.060  0.00  0.00    +0.000 A 
ATOM      5  C   UNL     1       7.656  14.387  19.558  0.00  0.00    +0.000 A 
ATOM      6  N   UNL     1       7.841  14.342  20.889  0.00  0.00    +0.000 NA
ATOM      7  C   UNL     1       6.815  14.625  21.728  0.00  0.00    +0.000 A 
ATOM      8  N   UNL     1       7.017  14.379  23.075  0.00  0.00    +0.000 N 
ATOM      9  C   UNL     1       8.371  13.940  23.474  0.00  0.00    +0.000 C 
ATOM     10  C   UNL     1       8.272  13.052  24.721  0.00  0.00    +0.000 C 
ATOM     11  O   UNL     1       7.627  13.744  25.799  0.00  0.00    +0.000 OA
ATOM     12  C   UNL     1       6.298  14.127  25.410  0.00  0.00    +0.000 C 
ATOM     13  C   UNL     1       6.296  15.068  24.173  0.00  0.00    +0.000 C 
ATOM     14  C   UNL     1       4.855  15.472  23.895  0.00  0.00    +0.000 C 
ATOM     15  N   UNL     1       5.602  14.990  21.276  0.00  0.00    +0.000 NA
ATOM     16  C   UNL     1       5.419  15.023  19.954  0.00  0.00    +0.000 A 
ENDROOT
BRANCH   5  17
ATOM     17  C   UNL     1       8.789  13.940  18.742  0.00  0.00    +0.000 A 
ATOM     18  C   UNL     1       9.023  12.630  18.370  0.00  0.00    +0.000 A 
ATOM     19  N   UNL     1      10.121  12.185  17.723  0.00  0.00    +0.000 NA
ATOM     20  C   UNL     1      11.033  13.102  17.407  0.00  0.00    +0.000 A 
ATOM     21  N   UNL     1      12.183  12.658  16.794  0.00  0.00    +0.000 N 
ATOM     22  N   UNL     1      10.892  14.410  17.620  0.00  0.00    +0.000 NA
ATOM     23  C   UNL     1       9.776  14.797  18.287  0.00  0.00    +0.000 A 
ATOM     24  H   UNL     1      12.012  11.760  16.367  0.00  0.00    +0.000 HD
ATOM     25  H   UNL     1      12.570  13.389  16.216  0.00  0.00    +0.000 HD
ENDBRANCH   5  17
BRANCH   1  31
ATOM     26  C   UNL     1       0.243  12.960  19.884  0.00  0.00    +0.000 C 
ATOM     27  O   UNL     1      -0.616  12.771  19.020  0.00  0.00    +0.000 OA
ATOM     28  N   UNL     1       0.932  14.150  19.977  0.00  0.00    +0.000 N 
ATOM     29  C   UNL     1       0.544  15.321  19.231  0.00  0.00    +0.000 C 
ATOM     30  C   UNL     1       1.858  15.902  18.767  0.00  0.00    +0.000 C 
ATOM     31  C   UNL     1       2.894  15.554  19.878  0.00  0.00    +0.000 C 
ATOM     32  C   UNL     1       3.006  16.742  20.846  0.00  0.00    +0.000 C 
ATOM     33  C   UNL     1       2.255  14.321  20.577  0.00  0.00    +0.000 C 
BRANCH  26  34
ATOM     34  C   UNL     1       0.600  11.877  20.927  0.00  0.00    +0.000 C 
BRANCH  34  36
ATOM     35  C   UNL     1      -0.243  10.282  22.693  0.00  0.00    +0.000 C 
ATOM     36  C   UNL     1      -0.598  11.496  21.825  0.00  0.00    +0.000 C 
ATOM     37  C   UNL     1      -1.036  12.646  22.737  0.00  0.00    +0.000 C 
ENDBRANCH  34  36
BRANCH  34  38
ATOM     38  O   UNL     1       1.084  10.706  20.268  0.00  0.00    +0.000 OA
ATOM     39  H   UNL     1       0.560   9.958  20.606  0.00  0.00    +0.000 HD
ENDBRANCH  34  38
ENDBRANCH  26  34
ENDBRANCH   1  31
TORSDOF 5
ENDMDL
MODEL 3
REMARK VINA RESULT:      -6.8      6.889      9.400
REMARK  Name = 
REMARK  9 active torsions:
REMARK  status: ('A' for Active; 'I' for Inactive)
REMARK    1  A    between atoms: C_1  and  C_2
REMARK    2  A    between atoms: C_2  and  C_3
REMARK    3  A    between atoms: C_2  and  C_4
REMARK    4  A    between atoms: C_4  and  O_5
REMARK    5  A    between atoms: C_4  and  C_6
REMARK    6  A    between atoms: C_11  and  C_12
REMARK    7  A    between atoms: C_11  and  N_13
REMARK    8  A    between atoms: C_17  and  C_18
REMARK    9  A    between atoms: C_32  and  C_33
REMARK                            x       y       z     vdW  Elec       q    Type
REMARK                         _______ _______ _______ _____ _____    ______ ____
ROOT
ATOM      1  N   UNL     1      -4.224  11.328  18.485  0.00  0.00    +0.000 N 
ATOM      2  C   UNL     1      -4.047  10.051  17.805  0.00  0.00    +0.000 C 
ATOM      3  C   UNL     1      -2.572   9.672  17.887  0.00  0.00    +0.000 C 
ATOM      4  C   UNL     1      -1.982  10.855  18.563  0.00  0.00    +0.000 A 
ATOM      5  C   UNL     1      -0.702  11.097  18.982  0.00  0.00    +0.000 A 
ATOM      6  N   UNL     1      -0.435  12.211  19.686  0.00  0.00    +0.000 NA
ATOM      7  C   UNL     1      -1.431  13.077  19.991  0.00  0.00    +0.000 A 
ATOM      8  N   UNL     1      -1.129  14.101  20.871  0.00  0.00    +0.000 N 
ATOM      9  C   UNL     1       0.281  14.211  21.301  0.00  0.00    +0.000 C 
ATOM     10  C   UNL     1       0.340  14.817  22.710  0.00  0.00    +0.000 C 
ATOM     11  O   UNL     1      -0.302  16.100  22.747  0.00  0.00    +0.000 OA
ATOM     12  C   UNL     1      -1.681  15.968  22.368  0.00  0.00    +0.000 C 
ATOM     13  C   UNL     1      -1.844  15.398  20.931  0.00  0.00    +0.000 C 
ATOM     14  C   UNL     1      -3.331  15.374  20.603  0.00  0.00    +0.000 C 
ATOM     15  N   UNL     1      -2.698  12.882  19.582  0.00  0.00    +0.000 NA
ATOM     16  C   UNL     1      -2.961  11.770  18.893  0.00  0.00    +0.000 A 
ENDROOT
BRANCH   5  17
ATOM     17  C   UNL     1       0.419  10.164  18.817  0.00  0.00    +0.000 A 
ATOM     18  C   UNL     1       1.182  10.047  17.672  0.00  0.00    +0.000 A 
ATOM     19  N   UNL     1       2.136   9.114  17.460  0.00  0.00    +0.000 NA
ATOM     20  C   UNL     1       2.358   8.260  18.457  0.00  0.00    +0.000 A 
ATOM     21  N   UNL     1       3.290   7.271  18.238  0.00  0.00    +0.000 N 
ATOM     22  N   UNL     1       1.762   8.320  19.648  0.00  0.00    +0.000 NA
ATOM     23  C   UNL     1       0.803   9.267  19.797  0.00  0.00    +0.000 A 
ATOM     24  H   UNL     1       3.909   7.549  17.491  0.00  0.00    +0.000 HD
ATOM     25  H   UNL     1       3.706   6.989  19.113  0.00  0.00    +0.000 HD
ENDBRANCH   5  17
BRANCH   1  31
ATOM     26  C   UNL     1      -6.878  12.432  22.104  0.00  0.00    +0.000 C 
ATOM     27  O   UNL     1      -7.612  11.659  22.722  0.00  0.00    +0.000 OA
ATOM     28  N   UNL     1      -6.734  12.363  20.735  0.00  0.00    +0.000 N 
ATOM     29  C   UNL     1      -7.593  11.547  19.915  0.00  0.00    +0.000 C 
ATOM     30  C   UNL     1      -6.649  10.931  18.911  0.00  0.00    +0.000 C 
ATOM     31  C   UNL     1      -5.524  11.985  18.681  0.00  0.00    +0.000 C 
ATOM     32  C   UNL     1      -5.877  12.830  17.446  0.00  0.00    +0.000 C 
ATOM     33  C   UNL     1      -5.578  12.841  19.978  0.00  0.00    +0.000 C 
BRANCH  26  34
ATOM     34  C   UNL     1      -6.073  13.538  22.825  0.00  0.00    +0.000 C 
BRANCH  34  36
ATOM     35  C   UNL     1      -6.107  15.811  23.923  0.00  0.00    +0.000 C 
ATOM     36  C   UNL     1      -6.972  14.671  23.369  0.00  0.00    +0.000 C 
ATOM     37  C   UNL     1      -7.913  15.237  22.301  0.00  0.00    +0.000 C 
ENDBRANCH  34  36
BRANCH  34  38
ATOM     38  O   UNL     1      -5.324  12.974  23.902  0.00  0.00    +0.000 OA
ATOM     39  H   UNL     1      -5.888  13.028  24.694  0.00  0.00    +0.000 HD
ENDBRANCH  34  38
ENDBRANCH  26  34
ENDBRANCH   1  31
TORSDOF 5
ENDMDL
MODEL 4
REMARK VINA RESULT:      -6.6      1.335      1.421
REMARK  Name = 
REMARK  9 active torsions:
REMARK  status: ('A' for Active; 'I' for Inactive)
REMARK    1  A    between atoms: C_1  and  C_2
REMARK    2  A    between atoms: C_2  and  C_3
REMARK    3  A    between atoms: C_2  and  C_4
REMARK    4  A    between atoms: C_4  and  O_5
REMARK    5  A    between atoms: C_4  and  C_6
REMARK    6  A    between atoms: C_11  and  C_12
REMARK    7  A    between atoms: C_11  and  N_13
REMARK    8  A    between atoms: C_17  and  C_18
REMARK    9  A    between atoms: C_32  and  C_33
REMARK                            x       y       z     vdW  Elec       q    Type
REMARK                         _______ _______ _______ _____ _____    ______ ____
ROOT
ATOM      1  N   UNL     1       4.904  15.742  19.526  0.00  0.00    +0.000 N 
ATOM      2  C   UNL     1       5.355  15.585  18.149  0.00  0.00    +0.000 C 
ATOM      3  C   UNL     1       6.715  14.893  18.173  0.00  0.00    +0.000 C 
ATOM      4  C   UNL     1       6.983  14.782  19.629  0.00  0.00    +0.000 A 
ATOM      5  C   UNL     1       8.019  14.193  20.302  0.00  0.00    +0.000 A 
ATOM      6  N   UNL     1       7.978  14.118  21.644  0.00  0.00    +0.000 NA
ATOM      7  C   UNL     1       6.911  14.606  22.320  0.00  0.00    +0.000 A 
ATOM      8  N   UNL     1       6.844  14.331  23.675  0.00  0.00    +0.000 N 
ATOM      9  C   UNL     1       8.002  13.629  24.267  0.00  0.00    +0.000 C 
ATOM     10  C   UNL     1       7.531  12.785  25.459  0.00  0.00    +0.000 C 
ATOM     11  O   UNL     1       6.876  13.599  26.442  0.00  0.00    +0.000 OA
ATOM     12  C   UNL     1       5.730  14.241  25.862  0.00  0.00    +0.000 C 
ATOM     13  C   UNL     1       6.112  15.156  24.666  0.00  0.00    +0.000 C 
ATOM     14  C   UNL     1       4.843  15.843  24.178  0.00  0.00    +0.000 C 
ATOM     15  N   UNL     1       5.882  15.207  21.694  0.00  0.00    +0.000 NA
ATOM     16  C   UNL     1       5.921  15.270  20.362  0.00  0.00    +0.000 A 
ENDROOT
BRANCH   5  17
ATOM     17  C   UNL     1       9.155  13.522  19.660  0.00  0.00    +0.000 A 
ATOM     18  C   UNL     1      10.231  14.171  19.089  0.00  0.00    +0.000 A 
ATOM     19  N   UNL     1      11.223  13.575  18.390  0.00  0.00    +0.000 NA
ATOM     20  C   UNL     1      11.149  12.251  18.272  0.00  0.00    +0.000 A 
ATOM     21  N   UNL     1      12.122  11.634  17.519  0.00  0.00    +0.000 N 
ATOM     22  N   UNL     1      10.219  11.494  18.852  0.00  0.00    +0.000 NA
ATOM     23  C   UNL     1       9.241  12.147  19.528  0.00  0.00    +0.000 A 
ATOM     24  H   UNL     1      12.933  12.232  17.460  0.00  0.00    +0.000 HD
ATOM     25  H   UNL     1      12.258  10.687  17.840  0.00  0.00    +0.000 HD
ENDBRANCH   5  17
BRANCH   1  31
ATOM     26  C   UNL     1       0.625  14.093  20.105  0.00  0.00    +0.000 C 
ATOM     27  O   UNL     1      -0.179  13.844  19.205  0.00  0.00    +0.000 OA
ATOM     28  N   UNL     1       1.461  15.187  20.054  0.00  0.00    +0.000 N 
ATOM     29  C   UNL     1       1.298  16.230  19.072  0.00  0.00    +0.000 C 
ATOM     30  C   UNL     1       2.712  16.549  18.650  0.00  0.00    +0.000 C 
ATOM     31  C   UNL     1       3.599  16.300  19.908  0.00  0.00    +0.000 C 
ATOM     32  C   UNL     1       3.794  17.631  20.651  0.00  0.00    +0.000 C 
ATOM     33  C   UNL     1       2.742  15.311  20.748  0.00  0.00    +0.000 C 
BRANCH  26  34
ATOM     34  C   UNL     1       0.745  13.196  21.359  0.00  0.00    +0.000 C 
BRANCH  34  36
ATOM     35  C   UNL     1      -0.582  11.294  22.356  0.00  0.00    +0.000 C 
ATOM     36  C   UNL     1      -0.630  12.762  21.916  0.00  0.00    +0.000 C 
ATOM     37  C   UNL     1      -1.080  13.621  23.101  0.00  0.00    +0.000 C 
ENDBRANCH  34  36
BRANCH  34  38
ATOM     38  O   UNL     1       1.517  12.034  21.055  0.00  0.00    +0.000 OA
ATOM     39  H   UNL     1       1.320  11.378  21.747  0.00  0.00    +0.000 HD
ENDBRANCH  34  38
ENDBRANCH  26  34
ENDBRANCH   1  31
TORSDOF 5
ENDMDL
MODEL 5
REMARK VINA RESULT:      -6.6      0.892      1.360
REMARK  Name = 
REMARK  9 active torsions:
REMARK  status: ('A' for Active; 'I' for Inactive)
REMARK    1  A    between atoms: C_1  and  C_2
REMARK    2  A    between atoms: C_2  and  C_3
REMARK    3  A    between atoms: C_2  and  C_4
REMARK    4  A    between atoms: C_4  and  O_5
REMARK    5  A    between atoms: C_4  and  C_6
REMARK    6  A    between atoms: C_11  and  C_12
REMARK    7  A    between atoms: C_11  and  N_13
REMARK    8  A    between atoms: C_17  and  C_18
REMARK    9  A    between atoms: C_32  and  C_33
REMARK                            x       y       z     vdW  Elec       q    Type
REMARK                         _______ _______ _______ _____ _____    ______ ____
ROOT
ATOM      1  N   UNL     1       4.800  15.841  19.762  0.00  0.00    +0.000 N 
ATOM      2  C   UNL     1       5.094  16.075  18.353  0.00  0.00    +0.000 C 
ATOM      3  C   UNL     1       6.465  15.478  18.051  0.00  0.00    +0.000 C 
ATOM      4  C   UNL     1       6.902  15.004  19.388  0.00  0.00    +0.000 A 
ATOM      5  C   UNL     1       8.024  14.319  19.768  0.00  0.00    +0.000 A 
ATOM      6  N   UNL     1       8.140  13.893  21.038  0.00  0.00    +0.000 NA
ATOM      7  C   UNL     1       7.146  14.127  21.928  0.00  0.00    +0.000 A 
ATOM      8  N   UNL     1       7.242  13.504  23.160  0.00  0.00    +0.000 N 
ATOM      9  C   UNL     1       8.479  12.737  23.420  0.00  0.00    +0.000 C 
ATOM     10  C   UNL     1       8.171  11.586  24.387  0.00  0.00    +0.000 C 
ATOM     11  O   UNL     1       7.613  12.076  25.614  0.00  0.00    +0.000 OA
ATOM     12  C   UNL     1       6.390  12.783  25.348  0.00  0.00    +0.000 C 
ATOM     13  C   UNL     1       6.608  13.999  24.405  0.00  0.00    +0.000 C 
ATOM     14  C   UNL     1       5.274  14.718  24.253  0.00  0.00    +0.000 C 
ATOM     15  N   UNL     1       6.036  14.812  21.595  0.00  0.00    +0.000 NA
ATOM     16  C   UNL     1       5.919  15.224  20.331  0.00  0.00    +0.000 A 
ENDROOT
BRANCH   5  17
ATOM     17  C   UNL     1       9.095  13.903  18.856  0.00  0.00    +0.000 A 
ATOM     18  C   UNL     1       9.277  12.615  18.392  0.00  0.00    +0.000 A 
ATOM     19  N   UNL     1      10.324  12.192  17.651  0.00  0.00    +0.000 NA
ATOM     20  C   UNL     1      11.233  13.111  17.334  0.00  0.00    +0.000 A 
ATOM     21  N   UNL     1      12.333  12.685  16.624  0.00  0.00    +0.000 N 
ATOM     22  N   UNL     1      11.133  14.405  17.635  0.00  0.00    +0.000 NA
ATOM     23  C   UNL     1      10.069  14.769  18.393  0.00  0.00    +0.000 A 
ATOM     24  H   UNL     1      12.117  11.818  16.154  0.00  0.00    +0.000 HD
ATOM     25  H   UNL     1      12.699  13.443  16.067  0.00  0.00    +0.000 HD
ENDBRANCH   5  17
BRANCH   1  31
ATOM     26  C   UNL     1       0.570  14.005  20.065  0.00  0.00    +0.000 C 
ATOM     27  O   UNL     1      -0.305  14.065  19.200  0.00  0.00    +0.000 OA
ATOM     28  N   UNL     1       1.407  15.067  20.330  0.00  0.00    +0.000 N 
ATOM     29  C   UNL     1       1.174  16.380  19.784  0.00  0.00    +0.000 C 
ATOM     30  C   UNL     1       2.552  16.854  19.390  0.00  0.00    +0.000 C 
ATOM     31  C   UNL     1       3.534  16.206  20.413  0.00  0.00    +0.000 C 
ATOM     32  C   UNL     1       3.798  17.203  21.552  0.00  0.00    +0.000 C 
ATOM     33  C   UNL     1       2.740  14.971  20.923  0.00  0.00    +0.000 C 
BRANCH  26  34
ATOM     34  C   UNL     1       0.782  12.734  20.919  0.00  0.00    +0.000 C 
BRANCH  34  36
ATOM     35  C   UNL     1      -0.709  13.739  22.691  0.00  0.00    +0.000 C 
ATOM     36  C   UNL     1      -0.386  12.468  21.895  0.00  0.00    +0.000 C 
ATOM     37  C   UNL     1      -1.654  11.996  21.177  0.00  0.00    +0.000 C 
ENDBRANCH  34  36
BRANCH  34  38
ATOM     38  O   UNL     1       0.953  11.598  20.070  0.00  0.00    +0.000 OA
ATOM     39  H   UNL     1       0.083  11.166  20.001  0.00  0.00    +0.000 HD
ENDBRANCH  34  38
ENDBRANCH  26  34
ENDBRANCH   1  31
TORSDOF 5
ENDMDL
MODEL 6
REMARK VINA RESULT:      -6.5      0.763      1.091
REMARK  Name = 
REMARK  9 active torsions:
REMARK  status: ('A' for Active; 'I' for Inactive)
REMARK    1  A    between atoms: C_1  and  C_2
REMARK    2  A    between atoms: C_2  and  C_3
REMARK    3  A    between atoms: C_2  and  C_4
REMARK    4  A    between atoms: C_4  and  O_5
REMARK    5  A    between atoms: C_4  and  C_6
REMARK    6  A    between atoms: C_11  and  C_12
REMARK    7  A    between atoms: C_11  and  N_13
REMARK    8  A    between atoms: C_17  and  C_18
REMARK    9  A    between atoms: C_32  and  C_33
REMARK                            x       y       z     vdW  Elec       q    Type
REMARK                         _______ _______ _______ _____ _____    ______ ____
ROOT
ATOM      1  N   UNL     1       4.580  15.351  19.401  0.00  0.00    +0.000 N 
ATOM      2  C   UNL     1       4.873  15.502  17.981  0.00  0.00    +0.000 C 
ATOM      3  C   UNL     1       6.327  15.099  17.754  0.00  0.00    +0.000 C 
ATOM      4  C   UNL     1       6.794  14.819  19.135  0.00  0.00    +0.000 A 
ATOM      5  C   UNL     1       7.996  14.351  19.592  0.00  0.00    +0.000 A 
ATOM      6  N   UNL     1       8.141  14.064  20.897  0.00  0.00    +0.000 NA
ATOM      7  C   UNL     1       7.098  14.219  21.748  0.00  0.00    +0.000 A 
ATOM      8  N   UNL     1       7.254  13.731  23.033  0.00  0.00    +0.000 N 
ATOM      9  C   UNL     1       8.585  13.190  23.380  0.00  0.00    +0.000 C 
ATOM     10  C   UNL     1       8.429  12.096  24.444  0.00  0.00    +0.000 C 
ATOM     11  O   UNL     1       7.769  12.602  25.613  0.00  0.00    +0.000 OA
ATOM     12  C   UNL     1       6.461  13.085  25.266  0.00  0.00    +0.000 C 
ATOM     13  C   UNL     1       6.517  14.231  24.218  0.00  0.00    +0.000 C 
ATOM     14  C   UNL     1       5.094  14.719  23.982  0.00  0.00    +0.000 C 
ATOM     15  N   UNL     1       5.907  14.693  21.338  0.00  0.00    +0.000 NA
ATOM     16  C   UNL     1       5.763  14.968  20.040  0.00  0.00    +0.000 A 
ENDROOT
BRANCH   5  17
ATOM     17  C   UNL     1       9.143  14.026  18.737  0.00  0.00    +0.000 A 
ATOM     18  C   UNL     1      10.029  14.953  18.224  0.00  0.00    +0.000 A 
ATOM     19  N   UNL     1      11.016  14.686  17.341  0.00  0.00    +0.000 NA
ATOM     20  C   UNL     1      11.141  13.416  16.962  0.00  0.00    +0.000 A 
ATOM     21  N   UNL     1      12.108  13.134  16.022  0.00  0.00    +0.000 N 
ATOM     22  N   UNL     1      10.417  12.409  17.449  0.00  0.00    +0.000 NA
ATOM     23  C   UNL     1       9.432  12.739  18.321  0.00  0.00    +0.000 A 
ATOM     24  H   UNL     1      12.800  13.868  16.021  0.00  0.00    +0.000 HD
ATOM     25  H   UNL     1      12.429  12.184  16.131  0.00  0.00    +0.000 HD
ENDBRANCH   5  17
BRANCH   1  31
ATOM     26  C   UNL     1       0.457  13.270  19.209  0.00  0.00    +0.000 C 
ATOM     27  O   UNL     1      -0.363  13.380  18.297  0.00  0.00    +0.000 OA
ATOM     28  N   UNL     1       1.211  14.339  19.645  0.00  0.00    +0.000 N 
ATOM     29  C   UNL     1       0.933  15.691  19.229  0.00  0.00    +0.000 C 
ATOM     30  C   UNL     1       2.302  16.279  18.985  0.00  0.00    +0.000 C 
ATOM     31  C   UNL     1       3.255  15.574  19.998  0.00  0.00    +0.000 C 
ATOM     32  C   UNL     1       3.385  16.450  21.254  0.00  0.00    +0.000 C 
ATOM     33  C   UNL     1       2.507  14.249  20.315  0.00  0.00    +0.000 C 
BRANCH  26  34
ATOM     34  C   UNL     1       0.692  11.925  19.933  0.00  0.00    +0.000 C 
BRANCH  34  36
ATOM     35  C   UNL     1       0.422   9.984  18.342  0.00  0.00    +0.000 C 
ATOM     36  C   UNL     1       1.432  10.894  19.052  0.00  0.00    +0.000 C 
ATOM     37  C   UNL     1       2.327  11.557  18.000  0.00  0.00    +0.000 C 
ENDBRANCH  34  36
BRANCH  34  38
ATOM     38  O   UNL     1       1.438  12.140  21.132  0.00  0.00    +0.000 OA
ATOM     39  H   UNL     1       1.407  13.096  21.314  0.00  0.00    +0.000 HD
ENDBRANCH  34  38
ENDBRANCH  26  34
ENDBRANCH   1  31
TORSDOF 5
ENDMDL
MODEL 7
REMARK VINA RESULT:      -6.2      6.704      9.384
REMARK  Name = 
REMARK  9 active torsions:
REMARK  status: ('A' for Active; 'I' for Inactive)
REMARK    1  A    between atoms: C_1  and  C_2
REMARK    2  A    between atoms: C_2  and  C_3
REMARK    3  A    between atoms: C_2  and  C_4
REMARK    4  A    between atoms: C_4  and  O_5
REMARK    5  A    between atoms: C_4  and  C_6
REMARK    6  A    between atoms: C_11  and  C_12
REMARK    7  A    between atoms: C_11  and  N_13
REMARK    8  A    between atoms: C_17  and  C_18
REMARK    9  A    between atoms: C_32  and  C_33
REMARK                            x       y       z     vdW  Elec       q    Type
REMARK                         _______ _______ _______ _____ _____    ______ ____
ROOT
ATOM      1  N   UNL     1      -4.307  11.435  18.653  0.00  0.00    +0.000 N 
ATOM      2  C   UNL     1      -4.259  10.125  18.017  0.00  0.00    +0.000 C 
ATOM      3  C   UNL     1      -2.808   9.654  18.016  0.00  0.00    +0.000 C 
ATOM      4  C   UNL     1      -2.100  10.821  18.600  0.00  0.00    +0.000 A 
ATOM      5  C   UNL     1      -0.780  10.994  18.921  0.00  0.00    +0.000 A 
ATOM      6  N   UNL     1      -0.396  12.115  19.557  0.00  0.00    +0.000 NA
ATOM      7  C   UNL     1      -1.312  13.055  19.892  0.00  0.00    +0.000 A 
ATOM      8  N   UNL     1      -0.885  14.089  20.705  0.00  0.00    +0.000 N 
ATOM      9  C   UNL     1       0.556  14.124  21.034  0.00  0.00    +0.000 C 
ATOM     10  C   UNL     1       0.750  14.778  22.408  0.00  0.00    +0.000 C 
ATOM     11  O   UNL     1       0.194  16.100  22.435  0.00  0.00    +0.000 OA
ATOM     12  C   UNL     1      -1.214  16.044  22.155  0.00  0.00    +0.000 C 
ATOM     13  C   UNL     1      -1.512  15.432  20.758  0.00  0.00    +0.000 C 
ATOM     14  C   UNL     1      -3.017  15.492  20.532  0.00  0.00    +0.000 C 
ATOM     15  N   UNL     1      -2.614  12.927  19.577  0.00  0.00    +0.000 NA
ATOM     16  C   UNL     1      -2.994  11.809  18.955  0.00  0.00    +0.000 A 
ENDROOT
BRANCH   5  17
ATOM     17  C   UNL     1       0.265   9.985  18.720  0.00  0.00    +0.000 A 
ATOM     18  C   UNL     1       0.771   9.169  19.712  0.00  0.00    +0.000 A 
ATOM     19  N   UNL     1       1.814   8.321  19.572  0.00  0.00    +0.000 NA
ATOM     20  C   UNL     1       2.373   8.267  18.364  0.00  0.00    +0.000 A 
ATOM     21  N   UNL     1       3.469   7.448  18.217  0.00  0.00    +0.000 N 
ATOM     22  N   UNL     1       1.925   8.927  17.297  0.00  0.00    +0.000 NA
ATOM     23  C   UNL     1       0.885   9.774  17.501  0.00  0.00    +0.000 A 
ATOM     24  H   UNL     1       3.472   6.753  18.949  0.00  0.00    +0.000 HD
ATOM     25  H   UNL     1       3.534   7.126  17.263  0.00  0.00    +0.000 HD
ENDBRANCH   5  17
BRANCH   1  31
ATOM     26  C   UNL     1      -6.836  12.509  22.370  0.00  0.00    +0.000 C 
ATOM     27  O   UNL     1      -7.627  11.759  22.944  0.00  0.00    +0.000 OA
ATOM     28  N   UNL     1      -6.707  12.521  20.998  0.00  0.00    +0.000 N 
ATOM     29  C   UNL     1      -7.637  11.835  20.136  0.00  0.00    +0.000 C 
ATOM     30  C   UNL     1      -6.754  11.212  19.081  0.00  0.00    +0.000 C 
ATOM     31  C   UNL     1      -5.547  12.183  18.908  0.00  0.00    +0.000 C 
ATOM     32  C   UNL     1      -5.836  13.135  17.737  0.00  0.00    +0.000 C 
ATOM     33  C   UNL     1      -5.521  12.951  20.259  0.00  0.00    +0.000 C 
BRANCH  26  34
ATOM     34  C   UNL     1      -5.937  13.494  23.152  0.00  0.00    +0.000 C 
BRANCH  34  36
ATOM     35  C   UNL     1      -7.903  14.962  23.745  0.00  0.00    +0.000 C 
ATOM     36  C   UNL     1      -6.490  14.936  23.150  0.00  0.00    +0.000 C 
ATOM     37  C   UNL     1      -5.603  15.905  23.937  0.00  0.00    +0.000 C 
ENDBRANCH  34  36
BRANCH  34  38
ATOM     38  O   UNL     1      -5.786  13.050  24.501  0.00  0.00    +0.000 OA
ATOM     39  H   UNL     1      -6.590  13.324  24.978  0.00  0.00    +0.000 HD
ENDBRANCH  34  38
ENDBRANCH  26  34
ENDBRANCH   1  31
TORSDOF 5
ENDMDL
MODEL 8
REMARK VINA RESULT:      -6.2      6.758      9.147
REMARK  Name = 
REMARK  9 active torsions:
REMARK  status: ('A' for Active; 'I' for Inactive)
REMARK    1  A    between atoms: C_1  and  C_2
REMARK    2  A    between atoms: C_2  and  C_3
REMARK    3  A    between atoms: C_2  and  C_4
REMARK    4  A    between atoms: C_4  and  O_5
REMARK    5  A    between atoms: C_4  and  C_6
REMARK    6  A    between atoms: C_11  and  C_12
REMARK    7  A    between atoms: C_11  and  N_13
REMARK    8  A    between atoms: C_17  and  C_18
REMARK    9  A    between atoms: C_32  and  C_33
REMARK                            x       y       z     vdW  Elec       q    Type
REMARK                         _______ _______ _______ _____ _____    ______ ____
ROOT
ATOM      1  N   UNL     1      -4.122  11.385  18.567  0.00  0.00    +0.000 N 
ATOM      2  C   UNL     1      -4.011  10.054  17.982  0.00  0.00    +0.000 C 
ATOM      3  C   UNL     1      -2.546   9.634  18.036  0.00  0.00    +0.000 C 
ATOM      4  C   UNL     1      -1.894  10.845  18.595  0.00  0.00    +0.000 A 
ATOM      5  C   UNL     1      -0.591  11.075  18.944  0.00  0.00    +0.000 A 
ATOM      6  N   UNL     1      -0.262  12.230  19.548  0.00  0.00    +0.000 NA
ATOM      7  C   UNL     1      -1.217  13.150  19.824  0.00  0.00    +0.000 A 
ATOM      8  N   UNL     1      -0.848  14.227  20.610  0.00  0.00    +0.000 N 
ATOM      9  C   UNL     1       0.581  14.323  20.975  0.00  0.00    +0.000 C 
ATOM     10  C   UNL     1       0.716  15.032  22.329  0.00  0.00    +0.000 C 
ATOM     11  O   UNL     1       0.115  16.334  22.292  0.00  0.00    +0.000 OA
ATOM     12  C   UNL     1      -1.282  16.220  21.978  0.00  0.00    +0.000 C 
ATOM     13  C   UNL     1      -1.521  15.548  20.597  0.00  0.00    +0.000 C 
ATOM     14  C   UNL     1      -3.020  15.548  20.330  0.00  0.00    +0.000 C 
ATOM     15  N   UNL     1      -2.506  12.966  19.481  0.00  0.00    +0.000 NA
ATOM     16  C   UNL     1      -2.830  11.814  18.890  0.00  0.00    +0.000 A 
ENDROOT
BRANCH   5  17
ATOM     17  C   UNL     1       0.493  10.096  18.808  0.00  0.00    +0.000 A 
ATOM     18  C   UNL     1       1.231   9.894  17.658  0.00  0.00    +0.000 A 
ATOM     19  N   UNL     1       2.148   8.919  17.478  0.00  0.00    +0.000 NA
ATOM     20  C   UNL     1       2.359   8.108  18.513  0.00  0.00    +0.000 A 
ATOM     21  N   UNL     1       3.251   7.076  18.330  0.00  0.00    +0.000 N 
ATOM     22  N   UNL     1       1.787   8.249  19.709  0.00  0.00    +0.000 NA
ATOM     23  C   UNL     1       0.865   9.236  19.826  0.00  0.00    +0.000 A 
ATOM     24  H   UNL     1       3.866   7.295  17.559  0.00  0.00    +0.000 HD
ATOM     25  H   UNL     1       3.673   6.824  19.211  0.00  0.00    +0.000 HD
ENDBRANCH   5  17
BRANCH   1  31
ATOM     26  C   UNL     1      -6.872  12.356  22.153  0.00  0.00    +0.000 C 
ATOM     27  O   UNL     1      -7.673  11.580  22.677  0.00  0.00    +0.000 OA
ATOM     28  N   UNL     1      -6.671  12.385  20.790  0.00  0.00    +0.000 N 
ATOM     29  C   UNL     1      -7.535  11.684  19.873  0.00  0.00    +0.000 C 
ATOM     30  C   UNL     1      -6.581  11.095  18.862  0.00  0.00    +0.000 C 
ATOM     31  C   UNL     1      -5.392  12.098  18.762  0.00  0.00    +0.000 C 
ATOM     32  C   UNL     1      -5.644  13.054  17.585  0.00  0.00    +0.000 C 
ATOM     33  C   UNL     1      -5.459  12.853  20.120  0.00  0.00    +0.000 C 
BRANCH  26  34
ATOM     34  C   UNL     1      -6.042  13.356  22.991  0.00  0.00    +0.000 C 
BRANCH  34  36
ATOM     35  C   UNL     1      -3.583  13.844  23.287  0.00  0.00    +0.000 C 
ATOM     36  C   UNL     1      -4.677  12.779  23.428  0.00  0.00    +0.000 C 
ATOM     37  C   UNL     1      -4.691  12.271  24.874  0.00  0.00    +0.000 C 
ENDBRANCH  34  36
BRANCH  34  38
ATOM     38  O   UNL     1      -5.829  14.556  22.247  0.00  0.00    +0.000 OA
ATOM     39  H   UNL     1      -6.352  15.252  22.683  0.00  0.00    +0.000 HD
ENDBRANCH  34  38
ENDBRANCH  26  34
ENDBRANCH   1  31
TORSDOF 5
ENDMDL
MODEL 9
REMARK VINA RESULT:      -6.2      1.112      1.507
REMARK  Name = 
REMARK  9 active torsions:
REMARK  status: ('A' for Active; 'I' for Inactive)
REMARK    1  A    between atoms: C_1  and  C_2
REMARK    2  A    between atoms: C_2  and  C_3
REMARK    3  A    between atoms: C_2  and  C_4
REMARK    4  A    between atoms: C_4  and  O_5
REMARK    5  A    between atoms: C_4  and  C_6
REMARK    6  A    between atoms: C_11  and  C_12
REMARK    7  A    between atoms: C_11  and  N_13
REMARK    8  A    between atoms: C_17  and  C_18
REMARK    9  A    between atoms: C_32  and  C_33
REMARK                            x       y       z     vdW  Elec       q    Type
REMARK                         _______ _______ _______ _____ _____    ______ ____
ROOT
ATOM      1  N   UNL     1       4.718  15.896  19.900  0.00  0.00    +0.000 N 
ATOM      2  C   UNL     1       5.010  16.195  18.503  0.00  0.00    +0.000 C 
ATOM      3  C   UNL     1       6.400  15.655  18.185  0.00  0.00    +0.000 C 
ATOM      4  C   UNL     1       6.847  15.143  19.504  0.00  0.00    +0.000 A 
ATOM      5  C   UNL     1       7.989  14.479  19.863  0.00  0.00    +0.000 A 
ATOM      6  N   UNL     1       8.114  14.007  21.116  0.00  0.00    +0.000 NA
ATOM      7  C   UNL     1       7.109  14.173  22.009  0.00  0.00    +0.000 A 
ATOM      8  N   UNL     1       7.220  13.506  23.215  0.00  0.00    +0.000 N 
ATOM      9  C   UNL     1       8.479  12.768  23.452  0.00  0.00    +0.000 C 
ATOM     10  C   UNL     1       8.205  11.570  24.370  0.00  0.00    +0.000 C 
ATOM     11  O   UNL     1       7.627  11.994  25.613  0.00  0.00    +0.000 OA
ATOM     12  C   UNL     1       6.383  12.671  25.368  0.00  0.00    +0.000 C 
ATOM     13  C   UNL     1       6.565  13.930  24.476  0.00  0.00    +0.000 C 
ATOM     14  C   UNL     1       5.210  14.611  24.345  0.00  0.00    +0.000 C 
ATOM     15  N   UNL     1       5.979  14.836  21.698  0.00  0.00    +0.000 NA
ATOM     16  C   UNL     1       5.854  15.294  20.450  0.00  0.00    +0.000 A 
ENDROOT
BRANCH   5  17
ATOM     17  C   UNL     1       9.076  14.134  18.941  0.00  0.00    +0.000 A 
ATOM     18  C   UNL     1      10.040  15.018  18.497  0.00  0.00    +0.000 A 
ATOM     19  N   UNL     1      10.974  14.750  17.558  0.00  0.00    +0.000 NA
ATOM     20  C   UNL     1      10.960  13.520  17.046  0.00  0.00    +0.000 A 
ATOM     21  N   UNL     1      11.871  13.246  16.050  0.00  0.00    +0.000 N 
ATOM     22  N   UNL     1      10.149  12.544  17.452  0.00  0.00    +0.000 NA
ATOM     23  C   UNL     1       9.223  12.876  18.386  0.00  0.00    +0.000 A 
ATOM     24  H   UNL     1      12.634  13.904  16.101  0.00  0.00    +0.000 HD
ATOM     25  H   UNL     1      12.097  12.263  16.051  0.00  0.00    +0.000 HD
ENDBRANCH   5  17
BRANCH   1  31
ATOM     26  C   UNL     1       0.246  15.328  18.881  0.00  0.00    +0.000 C 
ATOM     27  O   UNL     1      -0.418  16.043  18.127  0.00  0.00    +0.000 OA
ATOM     28  N   UNL     1       1.196  15.851  19.732  0.00  0.00    +0.000 N 
ATOM     29  C   UNL     1       1.318  17.268  19.965  0.00  0.00    +0.000 C 
ATOM     30  C   UNL     1       2.810  17.500  19.982  0.00  0.00    +0.000 C 
ATOM     31  C   UNL     1       3.438  16.195  20.558  0.00  0.00    +0.000 C 
ATOM     32  C   UNL     1       3.653  16.369  22.070  0.00  0.00    +0.000 C 
ATOM     33  C   UNL     1       2.347  15.126  20.268  0.00  0.00    +0.000 C 
BRANCH  26  34
ATOM     34  C   UNL     1       0.051  13.796  18.927  0.00  0.00    +0.000 C 
BRANCH  34  36
ATOM     35  C   UNL     1      -1.858  14.236  20.519  0.00  0.00    +0.000 C 
ATOM     36  C   UNL     1      -0.663  13.324  20.213  0.00  0.00    +0.000 C 
ATOM     37  C   UNL     1      -1.156  11.877  20.113  0.00  0.00    +0.000 C 
ENDBRANCH  34  36
BRANCH  34  38
ATOM     38  O   UNL     1      -0.695  13.364  17.789  0.00  0.00    +0.000 OA
ATOM     39  H   UNL     1      -0.096  12.812  17.255  0.00  0.00    +0.000 HD
ENDBRANCH  34  38
ENDBRANCH  26  34
ENDBRANCH   1  31
TORSDOF 5
ENDMDL
