MODEL 1
REMARK VINA RESULT:      -8.7      0.000      0.000
REMARK  Name = 
REMARK  9 active torsions:
REMARK  status: ('A' for Active; 'I' for Inactive)
REMARK    1  A    between atoms: C_1  and  O_2
REMARK    2  A    between atoms: O_2  and  C_3
REMARK    3  A    between atoms: C_7  and  C_8
REMARK    4  A    between atoms: C_8  and  N_9
REMARK    5  A    between atoms: N_9  and  C_10
REMARK    6  A    between atoms: C_11  and  C_13
REMARK    7  A    between atoms: C_14  and  C_15
REMARK    8  A    between atoms: C_18  and  S_19
REMARK    9  A    between atoms: S_19  and  N_22
REMARK                            x       y       z     vdW  Elec       q    Type
REMARK                         _______ _______ _______ _____ _____    ______ ____
ROOT
ATOM      1  C   UNL     1       1.702   7.153  20.545  0.00  0.00    +0.000 A 
ATOM      2  C   UNL     1       1.538   5.854  21.044  0.00  0.00    +0.000 A 
ATOM      3  C   UNL     1       1.892   4.744  20.270  0.00  0.00    +0.000 A 
ATOM      4  C   UNL     1       2.403   4.932  18.982  0.00  0.00    +0.000 A 
ATOM      5  C   UNL     1       2.604   6.225  18.487  0.00  0.00    +0.000 A 
ATOM      6  C   UNL     1       2.244   7.333  19.266  0.00  0.00    +0.000 A 
ENDROOT
BRANCH   4   7
ATOM      7  S   UNL     1       2.915   3.510  18.026  0.00  0.00    +0.000 S 
ATOM      8  O   UNL     1       2.958   2.374  18.926  0.00  0.00    +0.000 OA
ATOM      9  O   UNL     1       2.097   3.480  16.833  0.00  0.00    +0.000 OA
BRANCH   7  10
ATOM     10  N   UNL     1       4.523   3.891  17.571  0.00  0.00    +0.000 NA
ATOM     11  C   UNL     1       4.713   4.477  16.228  0.00  0.00    +0.000 C 
ATOM     12  C   UNL     1       5.968   3.932  15.545  0.00  0.00    +0.000 C 
ATOM     13  C   UNL     1       7.256   4.644  15.943  0.00  0.00    +0.000 C 
ATOM     14  C   UNL     1       7.611   4.503  17.415  0.00  0.00    +0.000 C 
ATOM     15  C   UNL     1       6.598   5.183  18.329  0.00  0.00    +0.000 C 
ATOM     16  C   UNL     1       5.404   4.311  18.687  0.00  0.00    +0.000 C 
ENDBRANCH   7  10
ENDBRANCH   4   7
BRANCH   1  18
ATOM     17  C   UNL     1       0.496   9.233  20.963  0.00  0.00    +0.000 C 
ATOM     18  C   UNL     1       1.356   8.299  21.389  0.00  0.00    +0.000 C 
BRANCH  17  21
ATOM     19  N   UNL     1       0.043  11.632  21.052  0.00  0.00    +0.000 N 
ATOM     20  C   UNL     1       0.225  11.734  19.608  0.00  0.00    +0.000 C 
ATOM     21  C   UNL     1       0.201  10.454  21.769  0.00  0.00    +0.000 C 
ATOM     22  O   UNL     1       0.096  10.371  22.989  0.00  0.00    +0.000 OA
BRANCH  19  23
ATOM     23  C   UNL     1      -0.417  12.838  21.754  0.00  0.00    +0.000 C 
BRANCH  23  28
ATOM     24  C   UNL     1      -3.978  12.594  23.129  0.00  0.00    +0.000 A 
ATOM     25  C   UNL     1      -4.730  12.850  21.982  0.00  0.00    +0.000 A 
ATOM     26  C   UNL     1      -4.090  13.157  20.783  0.00  0.00    +0.000 A 
ATOM     27  C   UNL     1      -2.698  13.173  20.722  0.00  0.00    +0.000 A 
ATOM     28  C   UNL     1      -1.925  12.914  21.863  0.00  0.00    +0.000 A 
ATOM     29  C   UNL     1      -2.582  12.677  23.080  0.00  0.00    +0.000 A 
BRANCH  24  31
ATOM     30  C   UNL     1      -6.083  12.616  24.183  0.00  0.00    +0.000 C 
ATOM     31  O   UNL     1      -4.703  12.270  24.244  0.00  0.00    +0.000 OA
ENDBRANCH  24  31
ENDBRANCH  23  28
ENDBRANCH  19  23
ENDBRANCH  17  21
ENDBRANCH   1  18
TORSDOF 7
ENDMDL
MODEL 2
REMARK VINA RESULT:      -8.4      2.979     11.549
REMARK  Name = 
REMARK  9 active torsions:
REMARK  status: ('A' for Active; 'I' for Inactive)
REMARK    1  A    between atoms: C_1  and  O_2
REMARK    2  A    between atoms: O_2  and  C_3
REMARK    3  A    between atoms: C_7  and  C_8
REMARK    4  A    between atoms: C_8  and  N_9
REMARK    5  A    between atoms: N_9  and  C_10
REMARK    6  A    between atoms: C_11  and  C_13
REMARK    7  A    between atoms: C_14  and  C_15
REMARK    8  A    between atoms: C_18  and  S_19
REMARK    9  A    between atoms: S_19  and  N_22
REMARK                            x       y       z     vdW  Elec       q    Type
REMARK                         _______ _______ _______ _____ _____    ______ ____
ROOT
ATOM      1  C   UNL     1       0.162   9.237  21.583  0.00  0.00    +0.000 A 
ATOM      2  C   UNL     1       0.316  10.267  20.645  0.00  0.00    +0.000 A 
ATOM      3  C   UNL     1      -0.135  11.560  20.929  0.00  0.00    +0.000 A 
ATOM      4  C   UNL     1      -0.756  11.825  22.153  0.00  0.00    +0.000 A 
ATOM      5  C   UNL     1      -0.883  10.813  23.111  0.00  0.00    +0.000 A 
ATOM      6  C   UNL     1      -0.432   9.519  22.820  0.00  0.00    +0.000 A 
ENDROOT
BRANCH   4   7
ATOM      7  S   UNL     1      -1.269  13.496  22.532  0.00  0.00    +0.000 S 
ATOM      8  O   UNL     1      -0.688  13.850  23.812  0.00  0.00    +0.000 OA
ATOM      9  O   UNL     1      -1.014  14.299  21.354  0.00  0.00    +0.000 OA
BRANCH   7  10
ATOM     10  N   UNL     1      -2.965  13.358  22.736  0.00  0.00    +0.000 NA
ATOM     11  C   UNL     1      -3.706  12.633  21.682  0.00  0.00    +0.000 C 
ATOM     12  C   UNL     1      -5.047  13.299  21.375  0.00  0.00    +0.000 C 
ATOM     13  C   UNL     1      -6.175  12.900  22.319  0.00  0.00    +0.000 C 
ATOM     14  C   UNL     1      -5.943  13.310  23.766  0.00  0.00    +0.000 C 
ATOM     15  C   UNL     1      -4.756  12.591  24.395  0.00  0.00    +0.000 C 
ATOM     16  C   UNL     1      -3.418  13.269  24.145  0.00  0.00    +0.000 C 
ENDBRANCH   7  10
ENDBRANCH   4   7
BRANCH   1  18
ATOM     17  C   UNL     1       1.681   7.730  20.410  0.00  0.00    +0.000 C 
ATOM     18  C   UNL     1       0.675   7.900  21.277  0.00  0.00    +0.000 C 
BRANCH  17  21
ATOM     19  N   UNL     1       2.734   6.270  18.758  0.00  0.00    +0.000 N 
ATOM     20  C   UNL     1       2.819   7.378  17.813  0.00  0.00    +0.000 C 
ATOM     21  C   UNL     1       2.157   6.371  20.016  0.00  0.00    +0.000 C 
ATOM     22  O   UNL     1       2.039   5.432  20.797  0.00  0.00    +0.000 OA
BRANCH  19  23
ATOM     23  C   UNL     1       3.379   5.009  18.368  0.00  0.00    +0.000 C 
BRANCH  23  28
ATOM     24  C   UNL     1       6.934   4.825  16.967  0.00  0.00    +0.000 A 
ATOM     25  C   UNL     1       7.686   5.166  18.091  0.00  0.00    +0.000 A 
ATOM     26  C   UNL     1       7.048   5.509  19.281  0.00  0.00    +0.000 A 
ATOM     27  C   UNL     1       5.656   5.477  19.357  0.00  0.00    +0.000 A 
ATOM     28  C   UNL     1       4.883   5.134  18.239  0.00  0.00    +0.000 A 
ATOM     29  C   UNL     1       5.536   4.860  17.027  0.00  0.00    +0.000 A 
BRANCH  24  31
ATOM     30  C   UNL     1       7.069   4.834  14.617  0.00  0.00    +0.000 C 
ATOM     31  O   UNL     1       7.660   4.472  15.861  0.00  0.00    +0.000 OA
ENDBRANCH  24  31
ENDBRANCH  23  28
ENDBRANCH  19  23
ENDBRANCH  17  21
ENDBRANCH   1  18
TORSDOF 7
ENDMDL
MODEL 3
REMARK VINA RESULT:      -8.4      0.907      1.381
REMARK  Name = 
REMARK  9 active torsions:
REMARK  status: ('A' for Active; 'I' for Inactive)
REMARK    1  A    between atoms: C_1  and  O_2
REMARK    2  A    between atoms: O_2  and  C_3
REMARK    3  A    between atoms: C_7  and  C_8
REMARK    4  A    between atoms: C_8  and  N_9
REMARK    5  A    between atoms: N_9  and  C_10
REMARK    6  A    between atoms: C_11  and  C_13
REMARK    7  A    between atoms: C_14  and  C_15
REMARK    8  A    between atoms: C_18  and  S_19
REMARK    9  A    between atoms: S_19  and  N_22
REMARK                            x       y       z     vdW  Elec       q    Type
REMARK                         _______ _______ _______ _____ _____    ______ ____
ROOT
ATOM      1  C   UNL     1       1.770   7.106  20.579  0.00  0.00    +0.000 A 
ATOM      2  C   UNL     1       1.648   5.812  21.104  0.00  0.00    +0.000 A 
ATOM      3  C   UNL     1       1.994   4.696  20.333  0.00  0.00    +0.000 A 
ATOM      4  C   UNL     1       2.453   4.872  19.025  0.00  0.00    +0.000 A 
ATOM      5  C   UNL     1       2.612   6.161  18.503  0.00  0.00    +0.000 A 
ATOM      6  C   UNL     1       2.261   7.274  19.278  0.00  0.00    +0.000 A 
ENDROOT
BRANCH   4   7
ATOM      7  S   UNL     1       2.954   3.445  18.072  0.00  0.00    +0.000 S 
ATOM      8  O   UNL     1       3.049   2.323  18.986  0.00  0.00    +0.000 OA
ATOM      9  O   UNL     1       2.094   3.382  16.910  0.00  0.00    +0.000 OA
BRANCH   7  10
ATOM     10  N   UNL     1       4.538   3.845  17.553  0.00  0.00    +0.000 NA
ATOM     11  C   UNL     1       4.673   4.381  16.182  0.00  0.00    +0.000 C 
ATOM     12  C   UNL     1       5.920   3.838  15.484  0.00  0.00    +0.000 C 
ATOM     13  C   UNL     1       7.201   4.597  15.813  0.00  0.00    +0.000 C 
ATOM     14  C   UNL     1       7.603   4.526  17.278  0.00  0.00    +0.000 C 
ATOM     15  C   UNL     1       6.601   5.217  18.195  0.00  0.00    +0.000 C 
ATOM     16  C   UNL     1       5.440   4.332  18.623  0.00  0.00    +0.000 C 
ENDBRANCH   7  10
ENDBRANCH   4   7
BRANCH   1  18
ATOM     17  C   UNL     1       0.365   9.017  21.149  0.00  0.00    +0.000 C 
ATOM     18  C   UNL     1       1.436   8.259  21.417  0.00  0.00    +0.000 C 
BRANCH  17  21
ATOM     19  N   UNL     1      -0.099  11.416  21.201  0.00  0.00    +0.000 N 
ATOM     20  C   UNL     1       0.092  11.498  19.757  0.00  0.00    +0.000 C 
ATOM     21  C   UNL     1       0.059  10.249  21.936  0.00  0.00    +0.000 C 
ATOM     22  O   UNL     1      -0.052  10.182  23.156  0.00  0.00    +0.000 OA
BRANCH  19  23
ATOM     23  C   UNL     1      -0.569  12.629  21.883  0.00  0.00    +0.000 C 
BRANCH  23  28
ATOM     24  C   UNL     1      -4.305  12.975  21.135  0.00  0.00    +0.000 A 
ATOM     25  C   UNL     1      -4.844  12.936  22.421  0.00  0.00    +0.000 A 
ATOM     26  C   UNL     1      -4.011  12.742  23.521  0.00  0.00    +0.000 A 
ATOM     27  C   UNL     1      -2.634  12.621  23.339  0.00  0.00    +0.000 A 
ATOM     28  C   UNL     1      -2.074  12.661  22.054  0.00  0.00    +0.000 A 
ATOM     29  C   UNL     1      -2.931  12.786  20.949  0.00  0.00    +0.000 A 
BRANCH  24  31
ATOM     30  C   UNL     1      -6.241  14.126  20.452  0.00  0.00    +0.000 C 
ATOM     31  O   UNL     1      -5.205  13.205  20.129  0.00  0.00    +0.000 OA
ENDBRANCH  24  31
ENDBRANCH  23  28
ENDBRANCH  19  23
ENDBRANCH  17  21
ENDBRANCH   1  18
TORSDOF 7
ENDMDL
MODEL 4
REMARK VINA RESULT:      -8.4      7.309     11.276
REMARK  Name = 
REMARK  9 active torsions:
REMARK  status: ('A' for Active; 'I' for Inactive)
REMARK    1  A    between atoms: C_1  and  O_2
REMARK    2  A    between atoms: O_2  and  C_3
REMARK    3  A    between atoms: C_7  and  C_8
REMARK    4  A    between atoms: C_8  and  N_9
REMARK    5  A    between atoms: N_9  and  C_10
REMARK    6  A    between atoms: C_11  and  C_13
REMARK    7  A    between atoms: C_14  and  C_15
REMARK    8  A    between atoms: C_18  and  S_19
REMARK    9  A    between atoms: S_19  and  N_22
REMARK                            x       y       z     vdW  Elec       q    Type
REMARK                         _______ _______ _______ _____ _____    ______ ____
ROOT
ATOM      1  C   UNL     1       8.637  10.221  18.291  0.00  0.00    +0.000 A 
ATOM      2  C   UNL     1       8.643  11.481  17.678  0.00  0.00    +0.000 A 
ATOM      3  C   UNL     1       9.271  12.569  18.294  0.00  0.00    +0.000 A 
ATOM      4  C   UNL     1       9.888  12.401  19.537  0.00  0.00    +0.000 A 
ATOM      5  C   UNL     1       9.919  11.140  20.142  0.00  0.00    +0.000 A 
ATOM      6  C   UNL     1       9.286  10.055  19.522  0.00  0.00    +0.000 A 
ENDROOT
BRANCH   4   7
ATOM      7  S   UNL     1      10.744  13.782  20.283  0.00  0.00    +0.000 S 
ATOM      8  O   UNL     1      10.288  13.887  21.656  0.00  0.00    +0.000 OA
ATOM      9  O   UNL     1      12.152  13.626  19.981  0.00  0.00    +0.000 OA
BRANCH   7  10
ATOM     10  N   UNL     1      10.151  15.137  19.419  0.00  0.00    +0.000 NA
ATOM     11  C   UNL     1       9.022  15.873  20.026  0.00  0.00    +0.000 C 
ATOM     12  C   UNL     1       8.009  16.322  18.974  0.00  0.00    +0.000 C 
ATOM     13  C   UNL     1       8.369  17.628  18.275  0.00  0.00    +0.000 C 
ATOM     14  C   UNL     1       9.656  17.561  17.466  0.00  0.00    +0.000 C 
ATOM     15  C   UNL     1      10.885  17.338  18.339  0.00  0.00    +0.000 C 
ATOM     16  C   UNL     1      11.174  15.875  18.640  0.00  0.00    +0.000 C 
ENDBRANCH   7  10
ENDBRANCH   4   7
BRANCH   1  18
ATOM     17  C   UNL     1       8.097   7.849  18.106  0.00  0.00    +0.000 C 
ATOM     18  C   UNL     1       8.004   9.090  17.610  0.00  0.00    +0.000 C 
BRANCH  17  21
ATOM     19  N   UNL     1       7.105   5.617  18.173  0.00  0.00    +0.000 N 
ATOM     20  C   UNL     1       7.243   5.585  19.625  0.00  0.00    +0.000 C 
ATOM     21  C   UNL     1       7.537   6.671  17.380  0.00  0.00    +0.000 C 
ATOM     22  O   UNL     1       7.467   6.684  16.154  0.00  0.00    +0.000 OA
BRANCH  19  23
ATOM     23  C   UNL     1       6.386   4.499  17.545  0.00  0.00    +0.000 C 
BRANCH  23  28
ATOM     24  C   UNL     1       2.905   6.008  18.032  0.00  0.00    +0.000 A 
ATOM     25  C   UNL     1       2.107   4.865  17.994  0.00  0.00    +0.000 A 
ATOM     26  C   UNL     1       2.682   3.619  17.755  0.00  0.00    +0.000 A 
ATOM     27  C   UNL     1       4.062   3.511  17.589  0.00  0.00    +0.000 A 
ATOM     28  C   UNL     1       4.882   4.648  17.628  0.00  0.00    +0.000 A 
ATOM     29  C   UNL     1       4.281   5.905  17.798  0.00  0.00    +0.000 A 
BRANCH  24  31
ATOM     30  C   UNL     1       2.192   7.523  19.687  0.00  0.00    +0.000 C 
ATOM     31  O   UNL     1       2.245   7.176  18.307  0.00  0.00    +0.000 OA
ENDBRANCH  24  31
ENDBRANCH  23  28
ENDBRANCH  19  23
ENDBRANCH  17  21
ENDBRANCH   1  18
TORSDOF 7
ENDMDL
MODEL 5
REMARK VINA RESULT:      -8.3      0.969      1.883
REMARK  Name = 
REMARK  9 active torsions:
REMARK  status: ('A' for Active; 'I' for Inactive)
REMARK    1  A    between atoms: C_1  and  O_2
REMARK    2  A    between atoms: O_2  and  C_3
REMARK    3  A    between atoms: C_7  and  C_8
REMARK    4  A    between atoms: C_8  and  N_9
REMARK    5  A    between atoms: N_9  and  C_10
REMARK    6  A    between atoms: C_11  and  C_13
REMARK    7  A    between atoms: C_14  and  C_15
REMARK    8  A    between atoms: C_18  and  S_19
REMARK    9  A    between atoms: S_19  and  N_22
REMARK                            x       y       z     vdW  Elec       q    Type
REMARK                         _______ _______ _______ _____ _____    ______ ____
ROOT
ATOM      1  C   UNL     1       1.606   7.539  20.605  0.00  0.00    +0.000 A 
ATOM      2  C   UNL     1       1.408   6.248  21.115  0.00  0.00    +0.000 A 
ATOM      3  C   UNL     1       1.745   5.124  20.354  0.00  0.00    +0.000 A 
ATOM      4  C   UNL     1       2.271   5.287  19.070  0.00  0.00    +0.000 A 
ATOM      5  C   UNL     1       2.506   6.571  18.565  0.00  0.00    +0.000 A 
ATOM      6  C   UNL     1       2.164   7.694  19.329  0.00  0.00    +0.000 A 
ENDROOT
BRANCH   4   7
ATOM      7  S   UNL     1       2.760   3.845  18.133  0.00  0.00    +0.000 S 
ATOM      8  O   UNL     1       2.844   2.732  19.058  0.00  0.00    +0.000 OA
ATOM      9  O   UNL     1       1.899   3.779  16.970  0.00  0.00    +0.000 OA
BRANCH   7  10
ATOM     10  N   UNL     1       4.347   4.225  17.610  0.00  0.00    +0.000 NA
ATOM     11  C   UNL     1       5.436   4.031  18.590  0.00  0.00    +0.000 C 
ATOM     12  C   UNL     1       6.477   5.147  18.507  0.00  0.00    +0.000 C 
ATOM     13  C   UNL     1       7.532   4.940  17.426  0.00  0.00    +0.000 C 
ATOM     14  C   UNL     1       6.972   4.923  16.012  0.00  0.00    +0.000 C 
ATOM     15  C   UNL     1       6.048   3.738  15.761  0.00  0.00    +0.000 C 
ATOM     16  C   UNL     1       4.603   3.981  16.170  0.00  0.00    +0.000 C 
ENDBRANCH   7  10
ENDBRANCH   4   7
BRANCH   1  18
ATOM     17  C   UNL     1       0.050   9.232  21.420  0.00  0.00    +0.000 C 
ATOM     18  C   UNL     1       1.279   8.700  21.435  0.00  0.00    +0.000 C 
BRANCH  17  21
ATOM     19  N   UNL     1      -0.584  11.592  21.430  0.00  0.00    +0.000 N 
ATOM     20  C   UNL     1      -0.523  11.629  19.973  0.00  0.00    +0.000 C 
ATOM     21  C   UNL     1      -0.279  10.470  22.188  0.00  0.00    +0.000 C 
ATOM     22  O   UNL     1      -0.282  10.445  23.415  0.00  0.00    +0.000 OA
BRANCH  19  23
ATOM     23  C   UNL     1      -1.083  12.796  22.108  0.00  0.00    +0.000 C 
BRANCH  23  28
ATOM     24  C   UNL     1      -4.870  12.931  21.580  0.00  0.00    +0.000 A 
ATOM     25  C   UNL     1      -5.329  12.876  22.896  0.00  0.00    +0.000 A 
ATOM     26  C   UNL     1      -4.424  12.739  23.947  0.00  0.00    +0.000 A 
ATOM     27  C   UNL     1      -3.056  12.691  23.683  0.00  0.00    +0.000 A 
ATOM     28  C   UNL     1      -2.575  12.748  22.367  0.00  0.00    +0.000 A 
ATOM     29  C   UNL     1      -3.500  12.815  21.315  0.00  0.00    +0.000 A 
BRANCH  24  31
ATOM     30  C   UNL     1      -5.506  12.595  19.339  0.00  0.00    +0.000 C 
ATOM     31  O   UNL     1      -5.839  13.101  20.628  0.00  0.00    +0.000 OA
ENDBRANCH  24  31
ENDBRANCH  23  28
ENDBRANCH  19  23
ENDBRANCH  17  21
ENDBRANCH   1  18
TORSDOF 7
ENDMDL
MODEL 6
REMARK VINA RESULT:      -8.2      1.336      2.084
REMARK  Name = 
REMARK  9 active torsions:
REMARK  status: ('A' for Active; 'I' for Inactive)
REMARK    1  A    between atoms: C_1  and  O_2
REMARK    2  A    between atoms: O_2  and  C_3
REMARK    3  A    between atoms: C_7  and  C_8
REMARK    4  A    between atoms: C_8  and  N_9
REMARK    5  A    between atoms: N_9  and  C_10
REMARK    6  A    between atoms: C_11  and  C_13
REMARK    7  A    between atoms: C_14  and  C_15
REMARK    8  A    between atoms: C_18  and  S_19
REMARK    9  A    between atoms: S_19  and  N_22
REMARK                            x       y       z     vdW  Elec       q    Type
REMARK                         _______ _______ _______ _____ _____    ______ ____
ROOT
ATOM      1  C   UNL     1       1.602   7.932  20.038  0.00  0.00    +0.000 A 
ATOM      2  C   UNL     1       2.139   7.824  18.748  0.00  0.00    +0.000 A 
ATOM      3  C   UNL     1       2.559   6.584  18.255  0.00  0.00    +0.000 A 
ATOM      4  C   UNL     1       2.454   5.445  19.059  0.00  0.00    +0.000 A 
ATOM      5  C   UNL     1       1.887   5.536  20.335  0.00  0.00    +0.000 A 
ATOM      6  C   UNL     1       1.471   6.781  20.825  0.00  0.00    +0.000 A 
ENDROOT
BRANCH   4   7
ATOM      7  S   UNL     1       2.933   3.855  18.395  0.00  0.00    +0.000 S 
ATOM      8  O   UNL     1       2.983   2.919  19.501  0.00  0.00    +0.000 OA
ATOM      9  O   UNL     1       2.088   3.600  17.247  0.00  0.00    +0.000 OA
BRANCH   7  10
ATOM     10  N   UNL     1       4.534   4.117  17.843  0.00  0.00    +0.000 NA
ATOM     11  C   UNL     1       4.692   4.552  16.440  0.00  0.00    +0.000 C 
ATOM     12  C   UNL     1       5.894   3.885  15.773  0.00  0.00    +0.000 C 
ATOM     13  C   UNL     1       7.225   4.577  16.045  0.00  0.00    +0.000 C 
ATOM     14  C   UNL     1       7.634   4.575  17.510  0.00  0.00    +0.000 C 
ATOM     15  C   UNL     1       6.688   5.388  18.384  0.00  0.00    +0.000 C 
ATOM     16  C   UNL     1       5.475   4.611  18.875  0.00  0.00    +0.000 C 
ENDBRANCH   7  10
ENDBRANCH   4   7
BRANCH   1  18
ATOM     17  C   UNL     1      -0.158   9.569  20.454  0.00  0.00    +0.000 C 
ATOM     18  C   UNL     1       1.137   9.235  20.518  0.00  0.00    +0.000 C 
BRANCH  17  21
ATOM     19  N   UNL     1      -0.925  11.096  22.201  0.00  0.00    +0.000 N 
ATOM     20  C   UNL     1      -0.852  10.025  23.189  0.00  0.00    +0.000 C 
ATOM     21  C   UNL     1      -0.639  10.925  20.854  0.00  0.00    +0.000 C 
ATOM     22  O   UNL     1      -0.745  11.810  20.009  0.00  0.00    +0.000 OA
BRANCH  19  23
ATOM     23  C   UNL     1      -1.237  12.443  22.699  0.00  0.00    +0.000 C 
BRANCH  23  28
ATOM     24  C   UNL     1      -4.818  13.521  21.893  0.00  0.00    +0.000 A 
ATOM     25  C   UNL     1      -5.435  13.358  23.133  0.00  0.00    +0.000 A 
ATOM     26  C   UNL     1      -4.714  12.848  24.211  0.00  0.00    +0.000 A 
ATOM     27  C   UNL     1      -3.364  12.534  24.058  0.00  0.00    +0.000 A 
ATOM     28  C   UNL     1      -2.725  12.694  22.820  0.00  0.00    +0.000 A 
ATOM     29  C   UNL     1      -3.481  13.141  21.725  0.00  0.00    +0.000 A 
BRANCH  24  31
ATOM     30  C   UNL     1      -5.397  15.448  20.672  0.00  0.00    +0.000 C 
ATOM     31  O   UNL     1      -5.606  14.060  20.912  0.00  0.00    +0.000 OA
ENDBRANCH  24  31
ENDBRANCH  23  28
ENDBRANCH  19  23
ENDBRANCH  17  21
ENDBRANCH   1  18
TORSDOF 7
ENDMDL
MODEL 7
REMARK VINA RESULT:      -8.2      0.781      1.229
REMARK  Name = 
REMARK  9 active torsions:
REMARK  status: ('A' for Active; 'I' for Inactive)
REMARK    1  A    between atoms: C_1  and  O_2
REMARK    2  A    between atoms: O_2  and  C_3
REMARK    3  A    between atoms: C_7  and  C_8
REMARK    4  A    between atoms: C_8  and  N_9
REMARK    5  A    between atoms: N_9  and  C_10
REMARK    6  A    between atoms: C_11  and  C_13
REMARK    7  A    between atoms: C_14  and  C_15
REMARK    8  A    between atoms: C_18  and  S_19
REMARK    9  A    between atoms: S_19  and  N_22
REMARK                            x       y       z     vdW  Elec       q    Type
REMARK                         _______ _______ _______ _____ _____    ______ ____
ROOT
ATOM      1  C   UNL     1       1.673   7.908  20.364  0.00  0.00    +0.000 A 
ATOM      2  C   UNL     1       2.231   7.877  19.078  0.00  0.00    +0.000 A 
ATOM      3  C   UNL     1       2.592   6.660  18.489  0.00  0.00    +0.000 A 
ATOM      4  C   UNL     1       2.407   5.467  19.193  0.00  0.00    +0.000 A 
ATOM      5  C   UNL     1       1.819   5.483  20.462  0.00  0.00    +0.000 A 
ATOM      6  C   UNL     1       1.462   6.704  21.049  0.00  0.00    +0.000 A 
ENDROOT
BRANCH   4   7
ATOM      7  S   UNL     1       2.811   3.913  18.405  0.00  0.00    +0.000 S 
ATOM      8  O   UNL     1       2.820   2.893  19.435  0.00  0.00    +0.000 OA
ATOM      9  O   UNL     1       1.954   3.786  17.245  0.00  0.00    +0.000 OA
BRANCH   7  10
ATOM     10  N   UNL     1       4.421   4.143  17.867  0.00  0.00    +0.000 NA
ATOM     11  C   UNL     1       4.599   4.579  16.466  0.00  0.00    +0.000 C 
ATOM     12  C   UNL     1       5.793   3.890  15.806  0.00  0.00    +0.000 C 
ATOM     13  C   UNL     1       7.136   4.554  16.091  0.00  0.00    +0.000 C 
ATOM     14  C   UNL     1       7.533   4.538  17.560  0.00  0.00    +0.000 C 
ATOM     15  C   UNL     1       6.596   5.368  18.429  0.00  0.00    +0.000 C 
ATOM     16  C   UNL     1       5.365   4.615  18.908  0.00  0.00    +0.000 C 
ENDBRANCH   7  10
ENDBRANCH   4   7
BRANCH   1  18
ATOM     17  C   UNL     1      -0.023   9.495  21.109  0.00  0.00    +0.000 C 
ATOM     18  C   UNL     1       1.270   9.191  20.944  0.00  0.00    +0.000 C 
BRANCH  17  21
ATOM     19  N   UNL     1      -0.863  11.743  20.649  0.00  0.00    +0.000 N 
ATOM     20  C   UNL     1      -0.811  11.484  19.215  0.00  0.00    +0.000 C 
ATOM     21  C   UNL     1      -0.456  10.832  21.614  0.00  0.00    +0.000 C 
ATOM     22  O   UNL     1      -0.452  11.061  22.820  0.00  0.00    +0.000 OA
BRANCH  19  23
ATOM     23  C   UNL     1      -1.463  13.014  21.077  0.00  0.00    +0.000 C 
BRANCH  23  28
ATOM     24  C   UNL     1      -4.954  12.747  22.619  0.00  0.00    +0.000 A 
ATOM     25  C   UNL     1      -5.739  12.560  21.481  0.00  0.00    +0.000 A 
ATOM     26  C   UNL     1      -5.153  12.576  20.217  0.00  0.00    +0.000 A 
ATOM     27  C   UNL     1      -3.774  12.746  20.093  0.00  0.00    +0.000 A 
ATOM     28  C   UNL     1      -2.968  12.932  21.225  0.00  0.00    +0.000 A 
ATOM     29  C   UNL     1      -3.581  12.984  22.487  0.00  0.00    +0.000 A 
BRANCH  24  31
ATOM     30  C   UNL     1      -4.841  12.231  24.913  0.00  0.00    +0.000 C 
ATOM     31  O   UNL     1      -5.624  12.678  23.811  0.00  0.00    +0.000 OA
ENDBRANCH  24  31
ENDBRANCH  23  28
ENDBRANCH  19  23
ENDBRANCH  17  21
ENDBRANCH   1  18
TORSDOF 7
ENDMDL
MODEL 8
REMARK VINA RESULT:      -8.2      1.102      1.662
REMARK  Name = 
REMARK  9 active torsions:
REMARK  status: ('A' for Active; 'I' for Inactive)
REMARK    1  A    between atoms: C_1  and  O_2
REMARK    2  A    between atoms: O_2  and  C_3
REMARK    3  A    between atoms: C_7  and  C_8
REMARK    4  A    between atoms: C_8  and  N_9
REMARK    5  A    between atoms: N_9  and  C_10
REMARK    6  A    between atoms: C_11  and  C_13
REMARK    7  A    between atoms: C_14  and  C_15
REMARK    8  A    between atoms: C_18  and  S_19
REMARK    9  A    between atoms: S_19  and  N_22
REMARK                            x       y       z     vdW  Elec       q    Type
REMARK                         _______ _______ _______ _____ _____    ______ ____
ROOT
ATOM      1  C   UNL     1       1.561   7.876  20.093  0.00  0.00    +0.000 A 
ATOM      2  C   UNL     1       2.039   7.778  18.779  0.00  0.00    +0.000 A 
ATOM      3  C   UNL     1       2.463   6.547  18.268  0.00  0.00    +0.000 A 
ATOM      4  C   UNL     1       2.422   5.408  19.077  0.00  0.00    +0.000 A 
ATOM      5  C   UNL     1       1.914   5.488  20.378  0.00  0.00    +0.000 A 
ATOM      6  C   UNL     1       1.494   6.723  20.887  0.00  0.00    +0.000 A 
ENDROOT
BRANCH   4   7
ATOM      7  S   UNL     1       2.905   3.828  18.391  0.00  0.00    +0.000 S 
ATOM      8  O   UNL     1       2.942   2.874  19.482  0.00  0.00    +0.000 OA
ATOM      9  O   UNL     1       2.072   3.594  17.230  0.00  0.00    +0.000 OA
BRANCH   7  10
ATOM     10  N   UNL     1       4.512   4.095  17.860  0.00  0.00    +0.000 NA
ATOM     11  C   UNL     1       4.687   4.529  16.459  0.00  0.00    +0.000 C 
ATOM     12  C   UNL     1       5.901   3.867  15.809  0.00  0.00    +0.000 C 
ATOM     13  C   UNL     1       7.226   4.565  16.098  0.00  0.00    +0.000 C 
ATOM     14  C   UNL     1       7.615   4.566  17.569  0.00  0.00    +0.000 C 
ATOM     15  C   UNL     1       6.653   5.376  18.429  0.00  0.00    +0.000 C 
ATOM     16  C   UNL     1       5.438   4.595  18.905  0.00  0.00    +0.000 C 
ENDBRANCH   7  10
ENDBRANCH   4   7
BRANCH   1  18
ATOM     17  C   UNL     1       1.026  10.237  19.790  0.00  0.00    +0.000 C 
ATOM     18  C   UNL     1       1.089   9.169  20.595  0.00  0.00    +0.000 C 
BRANCH  17  21
ATOM     19  N   UNL     1      -0.589  12.069  19.864  0.00  0.00    +0.000 N 
ATOM     20  C   UNL     1      -1.437  11.379  18.899  0.00  0.00    +0.000 C 
ATOM     21  C   UNL     1       0.635  11.583  20.303  0.00  0.00    +0.000 C 
ATOM     22  O   UNL     1       1.376  12.181  21.078  0.00  0.00    +0.000 OA
BRANCH  19  23
ATOM     23  C   UNL     1      -1.120  13.304  20.457  0.00  0.00    +0.000 C 
BRANCH  23  28
ATOM     24  C   UNL     1      -4.412  13.532  22.393  0.00  0.00    +0.000 A 
ATOM     25  C   UNL     1      -4.138  12.715  23.490  0.00  0.00    +0.000 A 
ATOM     26  C   UNL     1      -2.918  12.048  23.577  0.00  0.00    +0.000 A 
ATOM     27  C   UNL     1      -1.956  12.226  22.583  0.00  0.00    +0.000 A 
ATOM     28  C   UNL     1      -2.212  13.045  21.474  0.00  0.00    +0.000 A 
ATOM     29  C   UNL     1      -3.472  13.654  21.363  0.00  0.00    +0.000 A 
BRANCH  24  31
ATOM     30  C   UNL     1      -6.493  13.750  23.471  0.00  0.00    +0.000 C 
ATOM     31  O   UNL     1      -5.625  14.166  22.423  0.00  0.00    +0.000 OA
ENDBRANCH  24  31
ENDBRANCH  23  28
ENDBRANCH  19  23
ENDBRANCH  17  21
ENDBRANCH   1  18
TORSDOF 7
ENDMDL
MODEL 9
REMARK VINA RESULT:      -8.2      1.149      1.754
REMARK  Name = 
REMARK  9 active torsions:
REMARK  status: ('A' for Active; 'I' for Inactive)
REMARK    1  A    between atoms: C_1  and  O_2
REMARK    2  A    between atoms: O_2  and  C_3
REMARK    3  A    between atoms: C_7  and  C_8
REMARK    4  A    between atoms: C_8  and  N_9
REMARK    5  A    between atoms: N_9  and  C_10
REMARK    6  A    between atoms: C_11  and  C_13
REMARK    7  A    between atoms: C_14  and  C_15
REMARK    8  A    between atoms: C_18  and  S_19
REMARK    9  A    between atoms: S_19  and  N_22
REMARK                            x       y       z     vdW  Elec       q    Type
REMARK                         _______ _______ _______ _____ _____    ______ ____
ROOT
ATOM      1  C   UNL     1       1.637   7.535  20.397  0.00  0.00    +0.000 A 
ATOM      2  C   UNL     1       2.199   7.589  19.114  0.00  0.00    +0.000 A 
ATOM      3  C   UNL     1       2.603   6.418  18.464  0.00  0.00    +0.000 A 
ATOM      4  C   UNL     1       2.456   5.184  19.104  0.00  0.00    +0.000 A 
ATOM      5  C   UNL     1       1.864   5.114  20.370  0.00  0.00    +0.000 A 
ATOM      6  C   UNL     1       1.465   6.290  21.017  0.00  0.00    +0.000 A 
ENDROOT
BRANCH   4   7
ATOM      7  S   UNL     1       2.914   3.688  18.239  0.00  0.00    +0.000 S 
ATOM      8  O   UNL     1       2.949   2.614  19.213  0.00  0.00    +0.000 OA
ATOM      9  O   UNL     1       2.070   3.597  17.066  0.00  0.00    +0.000 OA
BRANCH   7  10
ATOM     10  N   UNL     1       4.521   3.996  17.727  0.00  0.00    +0.000 NA
ATOM     11  C   UNL     1       4.696   4.491  16.345  0.00  0.00    +0.000 C 
ATOM     12  C   UNL     1       5.921   3.871  15.674  0.00  0.00    +0.000 C 
ATOM     13  C   UNL     1       7.235   4.572  15.999  0.00  0.00    +0.000 C 
ATOM     14  C   UNL     1       7.618   4.516  17.470  0.00  0.00    +0.000 C 
ATOM     15  C   UNL     1       6.644   5.278  18.359  0.00  0.00    +0.000 C 
ATOM     16  C   UNL     1       5.436   4.462  18.796  0.00  0.00    +0.000 C 
ENDBRANCH   7  10
ENDBRANCH   4   7
BRANCH   1  18
ATOM     17  C   UNL     1       0.366   9.617  20.410  0.00  0.00    +0.000 C 
ATOM     18  C   UNL     1       1.190   8.771  21.042  0.00  0.00    +0.000 C 
BRANCH  17  21
ATOM     19  N   UNL     1      -0.605  11.844  20.148  0.00  0.00    +0.000 N 
ATOM     20  C   UNL     1      -0.761  11.622  18.714  0.00  0.00    +0.000 C 
ATOM     21  C   UNL     1      -0.029  10.924  21.013  0.00  0.00    +0.000 C 
ATOM     22  O   UNL     1       0.150  11.124  22.211  0.00  0.00    +0.000 OA
BRANCH  19  23
ATOM     23  C   UNL     1      -1.175  13.081  20.698  0.00  0.00    +0.000 C 
BRANCH  23  28
ATOM     24  C   UNL     1      -4.987  12.771  20.776  0.00  0.00    +0.000 A 
ATOM     25  C   UNL     1      -5.232  12.794  22.149  0.00  0.00    +0.000 A 
ATOM     26  C   UNL     1      -4.169  12.853  23.048  0.00  0.00    +0.000 A 
ATOM     27  C   UNL     1      -2.860  12.923  22.573  0.00  0.00    +0.000 A 
ATOM     28  C   UNL     1      -2.594  12.904  21.196  0.00  0.00    +0.000 A 
ATOM     29  C   UNL     1      -3.669  12.773  20.304  0.00  0.00    +0.000 A 
BRANCH  24  31
ATOM     30  C   UNL     1      -7.079  13.735  20.292  0.00  0.00    +0.000 C 
ATOM     31  O   UNL     1      -6.101  12.748  19.981  0.00  0.00    +0.000 OA
ENDBRANCH  24  31
ENDBRANCH  23  28
ENDBRANCH  19  23
ENDBRANCH  17  21
ENDBRANCH   1  18
TORSDOF 7
ENDMDL
