MODEL 1
REMARK VINA RESULT:      -8.1      0.000      0.000
REMARK  Name = 
REMARK  7 active torsions:
REMARK  status: ('A' for Active; 'I' for Inactive)
REMARK    1  A    between atoms: C_1  and  O_2
REMARK    2  A    between atoms: O_2  and  C_3
REMARK    3  A    between atoms: C_15  and  O_16
REMARK    4  A    between atoms: O_16  and  C_17
REMARK    5  A    between atoms: N_18  and  C_19
REMARK    6  A    between atoms: C_23  and  O_24
REMARK    7  A    between atoms: O_24  and  C_25
REMARK                            x       y       z     vdW  Elec       q    Type
REMARK                         _______ _______ _______ _____ _____    ______ ____
ROOT
ATOM      1  C   UNL     1       0.393  10.574  21.057  0.00  0.00    +0.000 A 
ATOM      2  C   UNL     1       0.654  10.453  19.690  0.00  0.00    +0.000 A 
ATOM      3  C   UNL     1       1.370   9.370  19.157  0.00  0.00    +0.000 A 
ATOM      4  C   UNL     1       1.687   9.394  17.807  0.00  0.00    +0.000 A 
ATOM      5  C   UNL     1       2.509   8.419  17.265  0.00  0.00    +0.000 A 
ATOM      6  C   UNL     1       2.928   7.304  18.015  0.00  0.00    +0.000 A 
ATOM      7  C   UNL     1       3.879   6.373  17.518  0.00  0.00    +0.000 A 
ATOM      8  C   UNL     1       4.637   6.614  16.328  0.00  0.00    +0.000 A 
ATOM      9  C   UNL     1       5.627   5.743  15.941  0.00  0.00    +0.000 A 
ATOM     10  C   UNL     1       5.918   4.642  16.682  0.00  0.00    +0.000 A 
ATOM     11  C   UNL     1       5.226   4.361  17.840  0.00  0.00    +0.000 A 
ATOM     12  C   UNL     1       4.160   5.200  18.270  0.00  0.00    +0.000 A 
ATOM     13  C   UNL     1       3.358   4.945  19.418  0.00  0.00    +0.000 A 
ATOM     14  N   UNL     1       2.494   5.895  19.882  0.00  0.00    +0.000 N 
ATOM     15  C   UNL     1       1.442   5.459  20.843  0.00  0.00    +0.000 C 
ATOM     16  C   UNL     1       2.396   7.147  19.320  0.00  0.00    +0.000 A 
ATOM     17  C   UNL     1       1.783   8.290  19.962  0.00  0.00    +0.000 A 
ATOM     18  C   UNL     1       1.631   8.515  21.358  0.00  0.00    +0.000 A 
ATOM     19  C   UNL     1       0.990   9.648  21.913  0.00  0.00    +0.000 A 
ATOM     20  O   UNL     1       6.942   3.918  16.165  0.00  0.00    +0.000 OA
ATOM     21  C   UNL     1       7.272   4.708  15.001  0.00  0.00    +0.000 C 
ATOM     22  O   UNL     1       6.441   5.881  14.863  0.00  0.00    +0.000 OA
ENDROOT
BRANCH   1  24
ATOM     23  C   UNL     1      -1.364  12.087  20.604  0.00  0.00    +0.000 C 
ATOM     24  O   UNL     1      -0.394  11.590  21.537  0.00  0.00    +0.000 OA
ENDBRANCH   1  24
BRANCH  13  25
ATOM     25  O   UNL     1       3.538   3.795  20.170  0.00  0.00    +0.000 OA
ATOM     26  C   UNL     1       2.917   2.602  19.675  0.00  0.00    +0.000 C 
ENDBRANCH  13  25
BRANCH  19  27
ATOM     27  O   UNL     1       1.051   9.643  23.280  0.00  0.00    +0.000 OA
ATOM     28  C   UNL     1      -0.093   9.302  24.047  0.00  0.00    +0.000 C 
ENDBRANCH  19  27
TORSDOF 3
ENDMDL
MODEL 2
REMARK VINA RESULT:      -7.2      2.279      4.697
REMARK  Name = 
REMARK  7 active torsions:
REMARK  status: ('A' for Active; 'I' for Inactive)
REMARK    1  A    between atoms: C_1  and  O_2
REMARK    2  A    between atoms: O_2  and  C_3
REMARK    3  A    between atoms: C_15  and  O_16
REMARK    4  A    between atoms: O_16  and  C_17
REMARK    5  A    between atoms: N_18  and  C_19
REMARK    6  A    between atoms: C_23  and  O_24
REMARK    7  A    between atoms: O_24  and  C_25
REMARK                            x       y       z     vdW  Elec       q    Type
REMARK                         _______ _______ _______ _____ _____    ______ ____
ROOT
ATOM      1  C   UNL     1      -1.607  12.069  20.003  0.00  0.00    +0.000 A 
ATOM      2  C   UNL     1      -1.122  11.313  21.072  0.00  0.00    +0.000 A 
ATOM      3  C   UNL     1      -0.265  10.217  20.886  0.00  0.00    +0.000 A 
ATOM      4  C   UNL     1       0.069   9.451  21.994  0.00  0.00    +0.000 A 
ATOM      5  C   UNL     1       0.797   8.281  21.840  0.00  0.00    +0.000 A 
ATOM      6  C   UNL     1       1.344   7.908  20.598  0.00  0.00    +0.000 A 
ATOM      7  C   UNL     1       1.972   6.650  20.396  0.00  0.00    +0.000 A 
ATOM      8  C   UNL     1       1.901   5.596  21.361  0.00  0.00    +0.000 A 
ATOM      9  C   UNL     1       2.424   4.356  21.082  0.00  0.00    +0.000 A 
ATOM     10  C   UNL     1       3.009   4.099  19.883  0.00  0.00    +0.000 A 
ATOM     11  C   UNL     1       3.102   5.072  18.913  0.00  0.00    +0.000 A 
ATOM     12  C   UNL     1       2.619   6.389  19.158  0.00  0.00    +0.000 A 
ATOM     13  C   UNL     1       2.733   7.465  18.233  0.00  0.00    +0.000 A 
ATOM     14  N   UNL     1       2.068   8.637  18.453  0.00  0.00    +0.000 N 
ATOM     15  C   UNL     1       2.495   9.828  17.666  0.00  0.00    +0.000 C 
ATOM     16  C   UNL     1       1.220   8.821  19.520  0.00  0.00    +0.000 A 
ATOM     17  C   UNL     1       0.235   9.877  19.615  0.00  0.00    +0.000 A 
ATOM     18  C   UNL     1      -0.390  10.570  18.540  0.00  0.00    +0.000 A 
ATOM     19  C   UNL     1      -1.325  11.618  18.712  0.00  0.00    +0.000 A 
ATOM     20  O   UNL     1       3.439   2.816  19.774  0.00  0.00    +0.000 OA
ATOM     21  C   UNL     1       3.041   2.287  21.059  0.00  0.00    +0.000 C 
ATOM     22  O   UNL     1       2.382   3.266  21.891  0.00  0.00    +0.000 OA
ENDROOT
BRANCH   1  24
ATOM     23  C   UNL     1      -3.767  12.949  20.380  0.00  0.00    +0.000 C 
ATOM     24  O   UNL     1      -2.362  13.194  20.219  0.00  0.00    +0.000 OA
ENDBRANCH   1  24
BRANCH  13  25
ATOM     25  O   UNL     1       3.397   7.300  17.028  0.00  0.00    +0.000 OA
ATOM     26  C   UNL     1       4.803   7.032  17.103  0.00  0.00    +0.000 C 
ENDBRANCH  13  25
BRANCH  19  27
ATOM     27  O   UNL     1      -1.820  12.054  17.513  0.00  0.00    +0.000 OA
ATOM     28  C   UNL     1      -2.834  11.321  16.846  0.00  0.00    +0.000 C 
ENDBRANCH  19  27
TORSDOF 3
ENDMDL
MODEL 3
REMARK VINA RESULT:      -6.7      3.094      6.425
REMARK  Name = 
REMARK  7 active torsions:
REMARK  status: ('A' for Active; 'I' for Inactive)
REMARK    1  A    between atoms: C_1  and  O_2
REMARK    2  A    between atoms: O_2  and  C_3
REMARK    3  A    between atoms: C_15  and  O_16
REMARK    4  A    between atoms: O_16  and  C_17
REMARK    5  A    between atoms: N_18  and  C_19
REMARK    6  A    between atoms: C_23  and  O_24
REMARK    7  A    between atoms: O_24  and  C_25
REMARK                            x       y       z     vdW  Elec       q    Type
REMARK                         _______ _______ _______ _____ _____    ______ ____
ROOT
ATOM      1  C   UNL     1      -3.742  13.313  23.007  0.00  0.00    +0.000 A 
ATOM      2  C   UNL     1      -2.940  12.290  23.517  0.00  0.00    +0.000 A 
ATOM      3  C   UNL     1      -1.916  11.694  22.765  0.00  0.00    +0.000 A 
ATOM      4  C   UNL     1      -1.252  10.604  23.309  0.00  0.00    +0.000 A 
ATOM      5  C   UNL     1      -0.331   9.898  22.551  0.00  0.00    +0.000 A 
ATOM      6  C   UNL     1       0.070  10.338  21.275  0.00  0.00    +0.000 A 
ATOM      7  C   UNL     1       0.905   9.555  20.433  0.00  0.00    +0.000 A 
ATOM      8  C   UNL     1       1.214   8.187  20.722  0.00  0.00    +0.000 A 
ATOM      9  C   UNL     1       1.932   7.430  19.827  0.00  0.00    +0.000 A 
ATOM     10  C   UNL     1       2.352   7.955  18.646  0.00  0.00    +0.000 A 
ATOM     11  C   UNL     1       2.079   9.263  18.312  0.00  0.00    +0.000 A 
ATOM     12  C   UNL     1       1.378  10.112  19.215  0.00  0.00    +0.000 A 
ATOM     13  C   UNL     1       1.112  11.489  18.972  0.00  0.00    +0.000 A 
ATOM     14  N   UNL     1       0.263  12.182  19.785  0.00  0.00    +0.000 N 
ATOM     15  C   UNL     1       0.296  13.670  19.708  0.00  0.00    +0.000 C 
ATOM     16  C   UNL     1      -0.418  11.590  20.825  0.00  0.00    +0.000 A 
ATOM     17  C   UNL     1      -1.572  12.164  21.483  0.00  0.00    +0.000 A 
ATOM     18  C   UNL     1      -2.496  13.100  20.940  0.00  0.00    +0.000 A 
ATOM     19  C   UNL     1      -3.588  13.641  21.659  0.00  0.00    +0.000 A 
ATOM     20  O   UNL     1       3.016   7.054  17.879  0.00  0.00    +0.000 OA
ATOM     21  C   UNL     1       2.955   5.882  18.722  0.00  0.00    +0.000 C 
ATOM     22  O   UNL     1       2.252   6.117  19.961  0.00  0.00    +0.000 OA
ENDROOT
BRANCH   1  24
ATOM     23  C   UNL     1      -4.223  15.183  24.367  0.00  0.00    +0.000 C 
ATOM     24  O   UNL     1      -4.669  13.944  23.797  0.00  0.00    +0.000 OA
ENDBRANCH   1  24
BRANCH  13  25
ATOM     25  O   UNL     1       1.588  12.114  17.831  0.00  0.00    +0.000 OA
ATOM     26  C   UNL     1       2.802  12.864  17.970  0.00  0.00    +0.000 C 
ENDBRANCH  13  25
BRANCH  19  27
ATOM     27  O   UNL     1      -4.353  14.460  20.872  0.00  0.00    +0.000 OA
ATOM     28  C   UNL     1      -5.605  14.012  20.377  0.00  0.00    +0.000 C 
ENDBRANCH  19  27
TORSDOF 3
ENDMDL
MODEL 4
REMARK VINA RESULT:      -6.5      8.056     11.506
REMARK  Name = 
REMARK  7 active torsions:
REMARK  status: ('A' for Active; 'I' for Inactive)
REMARK    1  A    between atoms: C_1  and  O_2
REMARK    2  A    between atoms: O_2  and  C_3
REMARK    3  A    between atoms: C_15  and  O_16
REMARK    4  A    between atoms: O_16  and  C_17
REMARK    5  A    between atoms: N_18  and  C_19
REMARK    6  A    between atoms: C_23  and  O_24
REMARK    7  A    between atoms: O_24  and  C_25
REMARK                            x       y       z     vdW  Elec       q    Type
REMARK                         _______ _______ _______ _____ _____    ______ ____
ROOT
ATOM      1  C   UNL     1      -4.253  11.438  17.022  0.00  0.00    +0.000 A 
ATOM      2  C   UNL     1      -3.099  11.362  17.805  0.00  0.00    +0.000 A 
ATOM      3  C   UNL     1      -3.042  11.881  19.108  0.00  0.00    +0.000 A 
ATOM      4  C   UNL     1      -1.819  11.870  19.764  0.00  0.00    +0.000 A 
ATOM      5  C   UNL     1      -1.682  12.495  20.994  0.00  0.00    +0.000 A 
ATOM      6  C   UNL     1      -2.789  13.027  21.681  0.00  0.00    +0.000 A 
ATOM      7  C   UNL     1      -2.645  13.789  22.872  0.00  0.00    +0.000 A 
ATOM      8  C   UNL     1      -1.373  14.254  23.333  0.00  0.00    +0.000 A 
ATOM      9  C   UNL     1      -1.285  15.083  24.426  0.00  0.00    +0.000 A 
ATOM     10  C   UNL     1      -2.402  15.489  25.085  0.00  0.00    +0.000 A 
ATOM     11  C   UNL     1      -3.654  15.079  24.684  0.00  0.00    +0.000 A 
ATOM     12  C   UNL     1      -3.808  14.185  23.586  0.00  0.00    +0.000 A 
ATOM     13  C   UNL     1      -5.059  13.666  23.150  0.00  0.00    +0.000 A 
ATOM     14  N   UNL     1      -5.150  12.982  21.972  0.00  0.00    +0.000 N 
ATOM     15  C   UNL     1      -6.377  12.168  21.741  0.00  0.00    +0.000 C 
ATOM     16  C   UNL     1      -4.077  12.812  21.128  0.00  0.00    +0.000 A 
ATOM     17  C   UNL     1      -4.178  12.422  19.738  0.00  0.00    +0.000 A 
ATOM     18  C   UNL     1      -5.288  12.616  18.869  0.00  0.00    +0.000 A 
ATOM     19  C   UNL     1      -5.325  12.177  17.523  0.00  0.00    +0.000 A 
ATOM     20  O   UNL     1      -2.126  16.328  26.117  0.00  0.00    +0.000 OA
ATOM     21  C   UNL     1      -0.686  16.410  26.021  0.00  0.00    +0.000 C 
ATOM     22  O   UNL     1      -0.149  15.625  24.934  0.00  0.00    +0.000 OA
ENDROOT
BRANCH   1  24
ATOM     23  C   UNL     1      -3.050  10.369  15.294  0.00  0.00    +0.000 C 
ATOM     24  O   UNL     1      -4.312  10.835  15.791  0.00  0.00    +0.000 OA
ENDBRANCH   1  24
BRANCH  13  25
ATOM     25  O   UNL     1      -6.229  13.965  23.830  0.00  0.00    +0.000 OA
ATOM     26  C   UNL     1      -6.883  15.190  23.472  0.00  0.00    +0.000 C 
ENDBRANCH  13  25
BRANCH  19  27
ATOM     27  O   UNL     1      -6.483  12.559  16.901  0.00  0.00    +0.000 OA
ATOM     28  C   UNL     1      -7.290  13.586  17.455  0.00  0.00    +0.000 C 
ENDBRANCH  19  27
TORSDOF 3
ENDMDL
MODEL 5
REMARK VINA RESULT:      -6.4      5.469      8.268
REMARK  Name = 
REMARK  7 active torsions:
REMARK  status: ('A' for Active; 'I' for Inactive)
REMARK    1  A    between atoms: C_1  and  O_2
REMARK    2  A    between atoms: O_2  and  C_3
REMARK    3  A    between atoms: C_15  and  O_16
REMARK    4  A    between atoms: O_16  and  C_17
REMARK    5  A    between atoms: N_18  and  C_19
REMARK    6  A    between atoms: C_23  and  O_24
REMARK    7  A    between atoms: O_24  and  C_25
REMARK                            x       y       z     vdW  Elec       q    Type
REMARK                         _______ _______ _______ _____ _____    ______ ____
ROOT
ATOM      1  C   UNL     1      -2.520  15.535  23.936  0.00  0.00    +0.000 A 
ATOM      2  C   UNL     1      -3.593  15.060  23.180  0.00  0.00    +0.000 A 
ATOM      3  C   UNL     1      -3.431  14.101  22.168  0.00  0.00    +0.000 A 
ATOM      4  C   UNL     1      -4.532  13.779  21.387  0.00  0.00    +0.000 A 
ATOM      5  C   UNL     1      -4.389  12.944  20.290  0.00  0.00    +0.000 A 
ATOM      6  C   UNL     1      -3.176  12.285  20.014  0.00  0.00    +0.000 A 
ATOM      7  C   UNL     1      -2.975  11.540  18.821  0.00  0.00    +0.000 A 
ATOM      8  C   UNL     1      -3.896  11.585  17.727  0.00  0.00    +0.000 A 
ATOM      9  C   UNL     1      -3.612  10.940  16.547  0.00  0.00    +0.000 A 
ATOM     10  C   UNL     1      -2.448  10.256  16.387  0.00  0.00    +0.000 A 
ATOM     11  C   UNL     1      -1.522  10.182  17.404  0.00  0.00    +0.000 A 
ATOM     12  C   UNL     1      -1.777  10.792  18.665  0.00  0.00    +0.000 A 
ATOM     13  C   UNL     1      -0.901  10.708  19.783  0.00  0.00    +0.000 A 
ATOM     14  N   UNL     1      -1.113  11.484  20.886  0.00  0.00    +0.000 N 
ATOM     15  C   UNL     1      -0.400  11.108  22.140  0.00  0.00    +0.000 C 
ATOM     16  C   UNL     1      -2.125  12.414  20.956  0.00  0.00    +0.000 A 
ATOM     17  C   UNL     1      -2.186  13.490  21.922  0.00  0.00    +0.000 A 
ATOM     18  C   UNL     1      -1.095  14.098  22.604  0.00  0.00    +0.000 A 
ATOM     19  C   UNL     1      -1.237  15.130  23.562  0.00  0.00    +0.000 A 
ATOM     20  O   UNL     1      -2.326   9.712  15.150  0.00  0.00    +0.000 OA
ATOM     21  C   UNL     1      -3.561  10.148  14.538  0.00  0.00    +0.000 C 
ATOM     22  O   UNL     1      -4.377  10.943  15.425  0.00  0.00    +0.000 OA
ENDROOT
BRANCH   1  24
ATOM     23  C   UNL     1      -4.051  16.928  25.074  0.00  0.00    +0.000 C 
ATOM     24  O   UNL     1      -2.721  16.396  24.985  0.00  0.00    +0.000 OA
ENDBRANCH   1  24
BRANCH  13  25
ATOM     25  O   UNL     1       0.259   9.953  19.723  0.00  0.00    +0.000 OA
ATOM     26  C   UNL     1       1.387  10.562  19.080  0.00  0.00    +0.000 C 
ENDBRANCH  13  25
BRANCH  19  27
ATOM     27  O   UNL     1      -0.022  15.578  24.005  0.00  0.00    +0.000 OA
ATOM     28  C   UNL     1       0.645  16.629  23.325  0.00  0.00    +0.000 C 
ENDBRANCH  19  27
TORSDOF 3
ENDMDL
MODEL 6
REMARK VINA RESULT:      -6.4      2.283      4.550
REMARK  Name = 
REMARK  7 active torsions:
REMARK  status: ('A' for Active; 'I' for Inactive)
REMARK    1  A    between atoms: C_1  and  O_2
REMARK    2  A    between atoms: O_2  and  C_3
REMARK    3  A    between atoms: C_15  and  O_16
REMARK    4  A    between atoms: O_16  and  C_17
REMARK    5  A    between atoms: N_18  and  C_19
REMARK    6  A    between atoms: C_23  and  O_24
REMARK    7  A    between atoms: O_24  and  C_25
REMARK                            x       y       z     vdW  Elec       q    Type
REMARK                         _______ _______ _______ _____ _____    ______ ____
ROOT
ATOM      1  C   UNL     1      -0.849  12.350  21.253  0.00  0.00    +0.000 A 
ATOM      2  C   UNL     1      -0.445  11.284  22.060  0.00  0.00    +0.000 A 
ATOM      3  C   UNL     1       0.206  10.155  21.539  0.00  0.00    +0.000 A 
ATOM      4  C   UNL     1       0.461   9.092  22.395  0.00  0.00    +0.000 A 
ATOM      5  C   UNL     1       0.974   7.904  21.899  0.00  0.00    +0.000 A 
ATOM      6  C   UNL     1       1.388   7.779  20.559  0.00  0.00    +0.000 A 
ATOM      7  C   UNL     1       1.785   6.533  20.004  0.00  0.00    +0.000 A 
ATOM      8  C   UNL     1       1.585   5.292  20.689  0.00  0.00    +0.000 A 
ATOM      9  C   UNL     1       1.879   4.099  20.073  0.00  0.00    +0.000 A 
ATOM     10  C   UNL     1       2.351   4.068  18.799  0.00  0.00    +0.000 A 
ATOM     11  C   UNL     1       2.558   5.229  18.088  0.00  0.00    +0.000 A 
ATOM     12  C   UNL     1       2.315   6.499  18.686  0.00  0.00    +0.000 A 
ATOM     13  C   UNL     1       2.563   7.743  18.042  0.00  0.00    +0.000 A 
ATOM     14  N   UNL     1       2.116   8.908  18.596  0.00  0.00    +0.000 N 
ATOM     15  C   UNL     1       2.697  10.182  18.084  0.00  0.00    +0.000 C 
ATOM     16  C   UNL     1       1.365   8.942  19.749  0.00  0.00    +0.000 A 
ATOM     17  C   UNL     1       0.577  10.076  20.184  0.00  0.00    +0.000 A 
ATOM     18  C   UNL     1       0.025  11.103  19.369  0.00  0.00    +0.000 A 
ATOM     19  C   UNL     1      -0.711  12.202  19.872  0.00  0.00    +0.000 A 
ATOM     20  O   UNL     1       2.554   2.804  18.346  0.00  0.00    +0.000 OA
ATOM     21  C   UNL     1       2.138   2.034  19.496  0.00  0.00    +0.000 C 
ATOM     22  O   UNL     1       1.695   2.859  20.595  0.00  0.00    +0.000 OA
ENDROOT
BRANCH   1  24
ATOM     23  C   UNL     1      -1.224  13.600  23.222  0.00  0.00    +0.000 C 
ATOM     24  O   UNL     1      -1.392  13.484  21.801  0.00  0.00    +0.000 OA
ENDBRANCH   1  24
BRANCH  13  25
ATOM     25  O   UNL     1       3.128   7.790  16.778  0.00  0.00    +0.000 OA
ATOM     26  C   UNL     1       4.490   7.354  16.668  0.00  0.00    +0.000 C 
ENDBRANCH  13  25
BRANCH  19  27
ATOM     27  O   UNL     1      -1.185  12.996  18.863  0.00  0.00    +0.000 OA
ATOM     28  C   UNL     1      -0.392  14.057  18.354  0.00  0.00    +0.000 C 
ENDBRANCH  19  27
TORSDOF 3
ENDMDL
MODEL 7
REMARK VINA RESULT:      -6.1      6.376      8.928
REMARK  Name = 
REMARK  7 active torsions:
REMARK  status: ('A' for Active; 'I' for Inactive)
REMARK    1  A    between atoms: C_1  and  O_2
REMARK    2  A    between atoms: O_2  and  C_3
REMARK    3  A    between atoms: C_15  and  O_16
REMARK    4  A    between atoms: O_16  and  C_17
REMARK    5  A    between atoms: N_18  and  C_19
REMARK    6  A    between atoms: C_23  and  O_24
REMARK    7  A    between atoms: O_24  and  C_25
REMARK                            x       y       z     vdW  Elec       q    Type
REMARK                         _______ _______ _______ _____ _____    ______ ____
ROOT
ATOM      1  C   UNL     1      -3.796  15.966  24.286  0.00  0.00    +0.000 A 
ATOM      2  C   UNL     1      -4.740  15.311  23.492  0.00  0.00    +0.000 A 
ATOM      3  C   UNL     1      -4.374  14.384  22.504  0.00  0.00    +0.000 A 
ATOM      4  C   UNL     1      -5.370  13.875  21.682  0.00  0.00    +0.000 A 
ATOM      5  C   UNL     1      -5.041  13.066  20.606  0.00  0.00    +0.000 A 
ATOM      6  C   UNL     1      -3.724  12.616  20.393  0.00  0.00    +0.000 A 
ATOM      7  C   UNL     1      -3.348  11.904  19.223  0.00  0.00    +0.000 A 
ATOM      8  C   UNL     1      -4.213  11.785  18.089  0.00  0.00    +0.000 A 
ATOM      9  C   UNL     1      -3.771  11.186  16.933  0.00  0.00    +0.000 A 
ATOM     10  C   UNL     1      -2.504  10.705  16.835  0.00  0.00    +0.000 A 
ATOM     11  C   UNL     1      -1.625  10.796  17.892  0.00  0.00    +0.000 A 
ATOM     12  C   UNL     1      -2.036  11.366  19.131  0.00  0.00    +0.000 A 
ATOM     13  C   UNL     1      -1.209  11.440  20.287  0.00  0.00    +0.000 A 
ATOM     14  N   UNL     1      -1.598  12.179  21.367  0.00  0.00    +0.000 N 
ATOM     15  C   UNL     1      -0.889  11.940  22.656  0.00  0.00    +0.000 C 
ATOM     16  C   UNL     1      -2.752  12.928  21.377  0.00  0.00    +0.000 A 
ATOM     17  C   UNL     1      -3.036  13.988  22.322  0.00  0.00    +0.000 A 
ATOM     18  C   UNL     1      -2.093  14.776  23.040  0.00  0.00    +0.000 A 
ATOM     19  C   UNL     1      -2.449  15.778  23.974  0.00  0.00    +0.000 A 
ATOM     20  O   UNL     1      -2.237  10.178  15.614  0.00  0.00    +0.000 OA
ATOM     21  C   UNL     1      -3.498  10.396  14.942  0.00  0.00    +0.000 C 
ATOM     22  O   UNL     1      -4.475  11.051  15.780  0.00  0.00    +0.000 OA
ENDROOT
BRANCH   1  24
ATOM     23  C   UNL     1      -5.262  17.682  24.983  0.00  0.00    +0.000 C 
ATOM     24  O   UNL     1      -4.186  16.791  25.310  0.00  0.00    +0.000 OA
ENDBRANCH   1  24
BRANCH  13  25
ATOM     25  O   UNL     1       0.062  10.889  20.289  0.00  0.00    +0.000 OA
ATOM     26  C   UNL     1       1.123  11.724  19.806  0.00  0.00    +0.000 C 
ENDBRANCH  13  25
BRANCH  19  27
ATOM     27  O   UNL     1      -1.346  16.427  24.461  0.00  0.00    +0.000 OA
ATOM     28  C   UNL     1      -0.816  16.086  25.732  0.00  0.00    +0.000 C 
ENDBRANCH  19  27
TORSDOF 3
ENDMDL
MODEL 8
REMARK VINA RESULT:      -6.0      1.883      8.063
REMARK  Name = 
REMARK  7 active torsions:
REMARK  status: ('A' for Active; 'I' for Inactive)
REMARK    1  A    between atoms: C_1  and  O_2
REMARK    2  A    between atoms: O_2  and  C_3
REMARK    3  A    between atoms: C_15  and  O_16
REMARK    4  A    between atoms: O_16  and  C_17
REMARK    5  A    between atoms: N_18  and  C_19
REMARK    6  A    between atoms: C_23  and  O_24
REMARK    7  A    between atoms: O_24  and  C_25
REMARK                            x       y       z     vdW  Elec       q    Type
REMARK                         _______ _______ _______ _____ _____    ______ ____
ROOT
ATOM      1  C   UNL     1       4.590   4.001  19.353  0.00  0.00    +0.000 A 
ATOM      2  C   UNL     1       3.421   4.149  20.101  0.00  0.00    +0.000 A 
ATOM      3  C   UNL     1       2.710   5.358  20.149  0.00  0.00    +0.000 A 
ATOM      4  C   UNL     1       1.628   5.450  21.014  0.00  0.00    +0.000 A 
ATOM      5  C   UNL     1       0.983   6.663  21.199  0.00  0.00    +0.000 A 
ATOM      6  C   UNL     1       1.297   7.794  20.422  0.00  0.00    +0.000 A 
ATOM      7  C   UNL     1       0.744   9.074  20.693  0.00  0.00    +0.000 A 
ATOM      8  C   UNL     1       0.011   9.352  21.891  0.00  0.00    +0.000 A 
ATOM      9  C   UNL     1      -0.412  10.630  22.170  0.00  0.00    +0.000 A 
ATOM     10  C   UNL     1      -0.135  11.658  21.326  0.00  0.00    +0.000 A 
ATOM     11  C   UNL     1       0.572  11.452  20.162  0.00  0.00    +0.000 A 
ATOM     12  C   UNL     1       0.999  10.144  19.794  0.00  0.00    +0.000 A 
ATOM     13  C   UNL     1       1.676   9.839  18.580  0.00  0.00    +0.000 A 
ATOM     14  N   UNL     1       2.233   8.606  18.392  0.00  0.00    +0.000 N 
ATOM     15  C   UNL     1       2.607   8.225  17.001  0.00  0.00    +0.000 C 
ATOM     16  C   UNL     1       2.226   7.632  19.363  0.00  0.00    +0.000 A 
ATOM     17  C   UNL     1       3.084   6.466  19.365  0.00  0.00    +0.000 A 
ATOM     18  C   UNL     1       4.352   6.330  18.734  0.00  0.00    +0.000 A 
ATOM     19  C   UNL     1       5.122   5.143  18.753  0.00  0.00    +0.000 A 
ATOM     20  O   UNL     1      -0.602  12.849  21.779  0.00  0.00    +0.000 OA
ATOM     21  C   UNL     1      -1.205  12.445  23.029  0.00  0.00    +0.000 C 
ATOM     22  O   UNL     1      -1.074  11.031  23.286  0.00  0.00    +0.000 OA
ENDROOT
BRANCH   1  24
ATOM     23  C   UNL     1       4.499   1.695  19.857  0.00  0.00    +0.000 C 
ATOM     24  O   UNL     1       5.208   2.781  19.244  0.00  0.00    +0.000 OA
ENDBRANCH   1  24
BRANCH  13  25
ATOM     25  O   UNL     1       1.913  10.820  17.631  0.00  0.00    +0.000 OA
ATOM     26  C   UNL     1       2.670  11.959  18.062  0.00  0.00    +0.000 C 
ENDBRANCH  13  25
BRANCH  19  27
ATOM     27  O   UNL     1       6.329   5.315  18.130  0.00  0.00    +0.000 OA
ATOM     28  C   UNL     1       7.471   5.706  18.875  0.00  0.00    +0.000 C 
ENDBRANCH  19  27
TORSDOF 3
ENDMDL
MODEL 9
REMARK VINA RESULT:      -5.9      2.447      8.926
REMARK  Name = 
REMARK  7 active torsions:
REMARK  status: ('A' for Active; 'I' for Inactive)
REMARK    1  A    between atoms: C_1  and  O_2
REMARK    2  A    between atoms: O_2  and  C_3
REMARK    3  A    between atoms: C_15  and  O_16
REMARK    4  A    between atoms: O_16  and  C_17
REMARK    5  A    between atoms: N_18  and  C_19
REMARK    6  A    between atoms: C_23  and  O_24
REMARK    7  A    between atoms: O_24  and  C_25
REMARK                            x       y       z     vdW  Elec       q    Type
REMARK                         _______ _______ _______ _____ _____    ______ ____
ROOT
ATOM      1  C   UNL     1       2.941   6.503  19.344  0.00  0.00    +0.000 A 
ATOM      2  C   UNL     1       2.326   6.827  20.555  0.00  0.00    +0.000 A 
ATOM      3  C   UNL     1       1.473   7.933  20.689  0.00  0.00    +0.000 A 
ATOM      4  C   UNL     1       1.004   8.250  21.957  0.00  0.00    +0.000 A 
ATOM      5  C   UNL     1       0.274   9.411  22.161  0.00  0.00    +0.000 A 
ATOM      6  C   UNL     1      -0.140  10.223  21.088  0.00  0.00    +0.000 A 
ATOM      7  C   UNL     1      -0.766  11.482  21.292  0.00  0.00    +0.000 A 
ATOM      8  C   UNL     1      -0.822  12.110  22.577  0.00  0.00    +0.000 A 
ATOM      9  C   UNL     1      -1.336  13.377  22.714  0.00  0.00    +0.000 A 
ATOM     10  C   UNL     1      -1.790  14.067  21.635  0.00  0.00    +0.000 A 
ATOM     11  C   UNL     1      -1.756  13.517  20.373  0.00  0.00    +0.000 A 
ATOM     12  C   UNL     1      -1.277  12.191  20.172  0.00  0.00    +0.000 A 
ATOM     13  C   UNL     1      -1.267  11.530  18.912  0.00  0.00    +0.000 A 
ATOM     14  N   UNL     1      -0.608  10.344  18.760  0.00  0.00    +0.000 N 
ATOM     15  C   UNL     1      -0.922   9.532  17.550  0.00  0.00    +0.000 C 
ATOM     16  C   UNL     1       0.121   9.764  19.773  0.00  0.00    +0.000 A 
ATOM     17  C   UNL     1       1.110   8.725  19.583  0.00  0.00    +0.000 A 
ATOM     18  C   UNL     1       1.863   8.458  18.405  0.00  0.00    +0.000 A 
ATOM     19  C   UNL     1       2.795   7.399  18.285  0.00  0.00    +0.000 A 
ATOM     20  O   UNL     1      -2.230  15.311  21.955  0.00  0.00    +0.000 OA
ATOM     21  C   UNL     1      -1.987  15.325  23.380  0.00  0.00    +0.000 C 
ATOM     22  O   UNL     1      -1.405  14.096  23.864  0.00  0.00    +0.000 OA
ENDROOT
BRANCH   1  24
ATOM     23  C   UNL     1       2.978   4.237  18.678  0.00  0.00    +0.000 C 
ATOM     24  O   UNL     1       3.689   5.360  19.217  0.00  0.00    +0.000 OA
ENDBRANCH   1  24
BRANCH  13  25
ATOM     25  O   UNL     1      -1.797  12.138  17.785  0.00  0.00    +0.000 OA
ATOM     26  C   UNL     1      -3.113  11.725  17.393  0.00  0.00    +0.000 C 
ENDBRANCH  13  25
BRANCH  19  27
ATOM     27  O   UNL     1       3.427   7.420  17.071  0.00  0.00    +0.000 OA
ATOM     28  C   UNL     1       4.799   7.074  16.971  0.00  0.00    +0.000 C 
ENDBRANCH  19  27
TORSDOF 3
ENDMDL
