MODEL 1
REMARK VINA RESULT:      -8.3      0.000      0.000
REMARK  Name = 
REMARK  7 active torsions:
REMARK  status: ('A' for Active; 'I' for Inactive)
REMARK    1  A    between atoms: C_2  and  C_3
REMARK    2  A    between atoms: N_5  and  C_6
REMARK    3  A    between atoms: C_6  and  C_7
REMARK    4  A    between atoms: N_19  and  C_20
REMARK    5  A    between atoms: C_20  and  C_21
REMARK    6  A    between atoms: C_31  and  O_32
REMARK    7  A    between atoms: O_32  and  C_33
REMARK                            x       y       z     vdW  Elec       q    Type
REMARK                         _______ _______ _______ _____ _____    ______ ____
ROOT
ATOM      1  C   UNL     1      -3.287  11.195  17.415  0.00  0.00    +0.000 A 
ATOM      2  C   UNL     1      -4.629  11.062  17.729  0.00  0.00    +0.000 A 
ATOM      3  C   UNL     1      -4.867  11.686  18.972  0.00  0.00    +0.000 A 
ATOM      4  C   UNL     1      -6.018  11.839  19.768  0.00  0.00    +0.000 A 
ATOM      5  C   UNL     1      -5.920  12.485  21.003  0.00  0.00    +0.000 A 
ATOM      6  C   UNL     1      -4.691  12.946  21.460  0.00  0.00    +0.000 A 
ATOM      7  C   UNL     1      -3.538  12.805  20.685  0.00  0.00    +0.000 A 
ATOM      8  C   UNL     1      -3.650  12.207  19.416  0.00  0.00    +0.000 A 
ATOM      9  N   UNL     1      -2.689  11.941  18.441  0.00  0.00    +0.000 N 
ATOM     10  C   UNL     1      -1.307  12.318  18.550  0.00  0.00    +0.000 A 
ATOM     11  N   UNL     1      -0.433  11.358  18.264  0.00  0.00    +0.000 NA
ATOM     12  C   UNL     1       0.859  11.651  18.415  0.00  0.00    +0.000 A 
ATOM     13  N   UNL     1       1.768  10.570  18.521  0.00  0.00    +0.000 N 
ATOM     14  C   UNL     1       1.312  12.964  18.532  0.00  0.00    +0.000 A 
ATOM     15  C   UNL     1       2.657  13.320  18.266  0.00  0.00    +0.000 A 
ATOM     16  C   UNL     1       3.107  14.607  18.487  0.00  0.00    +0.000 A 
ATOM     17  C   UNL     1       2.235  15.512  19.062  0.00  0.00    +0.000 A 
ATOM     18  C   UNL     1       0.892  15.167  19.331  0.00  0.00    +0.000 A 
ATOM     19  C   UNL     1       0.361  13.899  18.972  0.00  0.00    +0.000 A 
ATOM     20  N   UNL     1      -0.957  13.539  19.025  0.00  0.00    +0.000 NA
ATOM     21  H   UNL     1       2.581  10.870  19.056  0.00  0.00    +0.000 HD
ENDROOT
BRANCH  18  22
ATOM     22  O   UNL     1       0.261  16.225  19.938  0.00  0.00    +0.000 OA
ATOM     23  C   UNL     1       0.599  17.552  19.579  0.00  0.00    +0.000 C 
ENDBRANCH  18  22
BRANCH   1  24
ATOM     24  C   UNL     1      -2.633  10.715  16.157  0.00  0.00    +0.000 C 
BRANCH  24  27
ATOM     25  C   UNL     1      -3.409  10.004  13.919  0.00  0.00    +0.000 C 
ATOM     26  O   UNL     1      -2.295   9.717  13.492  0.00  0.00    +0.000 OA
ATOM     27  N   UNL     1      -3.678  10.459  15.186  0.00  0.00    +0.000 N 
ATOM     28  H   UNL     1      -4.609  10.751  15.419  0.00  0.00    +0.000 HD
BRANCH  25  30
ATOM     29  C   UNL     1      -4.579   9.740  11.752  0.00  0.00    +0.000 C 
ATOM     30  C   UNL     1      -4.637   9.905  13.081  0.00  0.00    +0.000 C 
ENDBRANCH  25  30
ENDBRANCH  24  27
ENDBRANCH   1  24
BRANCH  13  31
ATOM     31  C   UNL     1       1.135   9.470  19.266  0.00  0.00    +0.000 C 
BRANCH  31  32
ATOM     32  C   UNL     1       1.942   8.212  19.076  0.00  0.00    +0.000 A 
ATOM     33  C   UNL     1       2.759   8.030  17.949  0.00  0.00    +0.000 A 
ATOM     34  C   UNL     1       3.500   6.859  17.802  0.00  0.00    +0.000 A 
ATOM     35  C   UNL     1       3.439   5.869  18.784  0.00  0.00    +0.000 A 
ATOM     36  C   UNL     1       2.633   6.044  19.907  0.00  0.00    +0.000 A 
ATOM     37  C   UNL     1       1.891   7.212  20.054  0.00  0.00    +0.000 A 
ENDBRANCH  31  32
ENDBRANCH  13  31
TORSDOF 6
ENDMDL
MODEL 2
REMARK VINA RESULT:      -8.3      2.865      7.003
REMARK  Name = 
REMARK  7 active torsions:
REMARK  status: ('A' for Active; 'I' for Inactive)
REMARK    1  A    between atoms: C_2  and  C_3
REMARK    2  A    between atoms: N_5  and  C_6
REMARK    3  A    between atoms: C_6  and  C_7
REMARK    4  A    between atoms: N_19  and  C_20
REMARK    5  A    between atoms: C_20  and  C_21
REMARK    6  A    between atoms: C_31  and  O_32
REMARK    7  A    between atoms: O_32  and  C_33
REMARK                            x       y       z     vdW  Elec       q    Type
REMARK                         _______ _______ _______ _____ _____    ______ ____
ROOT
ATOM      1  C   UNL     1      -1.002  11.517  18.972  0.00  0.00    +0.000 A 
ATOM      2  C   UNL     1      -0.157  10.421  19.012  0.00  0.00    +0.000 A 
ATOM      3  C   UNL     1      -0.005  10.015  20.354  0.00  0.00    +0.000 A 
ATOM      4  C   UNL     1       0.737   8.991  20.973  0.00  0.00    +0.000 A 
ATOM      5  C   UNL     1       0.717   8.871  22.365  0.00  0.00    +0.000 A 
ATOM      6  C   UNL     1      -0.003   9.773  23.139  0.00  0.00    +0.000 A 
ATOM      7  C   UNL     1      -0.747  10.795  22.544  0.00  0.00    +0.000 A 
ATOM      8  C   UNL     1      -0.772  10.878  21.140  0.00  0.00    +0.000 A 
ATOM      9  N   UNL     1      -1.416  11.775  20.287  0.00  0.00    +0.000 N 
ATOM     10  C   UNL     1      -2.289  12.824  20.733  0.00  0.00    +0.000 A 
ATOM     11  N   UNL     1      -2.056  14.020  20.203  0.00  0.00    +0.000 NA
ATOM     12  C   UNL     1      -2.805  15.034  20.640  0.00  0.00    +0.000 A 
ATOM     13  N   UNL     1      -2.324  16.348  20.416  0.00  0.00    +0.000 N 
ATOM     14  C   UNL     1      -3.986  14.829  21.351  0.00  0.00    +0.000 A 
ATOM     15  C   UNL     1      -4.986  15.827  21.447  0.00  0.00    +0.000 A 
ATOM     16  C   UNL     1      -6.102  15.640  22.239  0.00  0.00    +0.000 A 
ATOM     17  C   UNL     1      -6.169  14.493  23.008  0.00  0.00    +0.000 A 
ATOM     18  C   UNL     1      -5.177  13.492  22.920  0.00  0.00    +0.000 A 
ATOM     19  C   UNL     1      -4.099  13.588  21.999  0.00  0.00    +0.000 A 
ATOM     20  N   UNL     1      -3.199  12.599  21.714  0.00  0.00    +0.000 NA
ATOM     21  H   UNL     1      -2.697  16.964  21.136  0.00  0.00    +0.000 HD
ENDROOT
BRANCH  18  22
ATOM     22  O   UNL     1      -5.460  12.488  23.814  0.00  0.00    +0.000 OA
ATOM     23  C   UNL     1      -4.647  12.310  24.958  0.00  0.00    +0.000 C 
ENDBRANCH  18  22
BRANCH   1  24
ATOM     24  C   UNL     1      -1.462  12.220  17.732  0.00  0.00    +0.000 C 
BRANCH  24  27
ATOM     25  C   UNL     1      -3.057  10.948  16.336  0.00  0.00    +0.000 C 
ATOM     26  O   UNL     1      -4.055  11.556  16.710  0.00  0.00    +0.000 OA
ATOM     27  N   UNL     1      -1.771  11.210  16.741  0.00  0.00    +0.000 N 
ATOM     28  H   UNL     1      -1.028  10.604  16.447  0.00  0.00    +0.000 HD
BRANCH  25  30
ATOM     29  C   UNL     1      -3.236   9.997  14.056  0.00  0.00    +0.000 C 
ATOM     30  C   UNL     1      -3.127   9.809  15.379  0.00  0.00    +0.000 C 
ENDBRANCH  25  30
ENDBRANCH  24  27
ENDBRANCH   1  24
BRANCH  13  31
ATOM     31  C   UNL     1      -0.859  16.360  20.545  0.00  0.00    +0.000 C 
BRANCH  31  32
ATOM     32  C   UNL     1      -0.257  16.981  19.311  0.00  0.00    +0.000 A 
ATOM     33  C   UNL     1       1.119  16.895  19.047  0.00  0.00    +0.000 A 
ATOM     34  C   UNL     1       1.649  17.472  17.895  0.00  0.00    +0.000 A 
ATOM     35  C   UNL     1       0.808  18.127  16.995  0.00  0.00    +0.000 A 
ATOM     36  C   UNL     1      -0.559  18.213  17.248  0.00  0.00    +0.000 A 
ATOM     37  C   UNL     1      -1.090  17.639  18.399  0.00  0.00    +0.000 A 
ENDBRANCH  31  32
ENDBRANCH  13  31
TORSDOF 6
ENDMDL
MODEL 3
REMARK VINA RESULT:      -8.1      3.008      7.086
REMARK  Name = 
REMARK  7 active torsions:
REMARK  status: ('A' for Active; 'I' for Inactive)
REMARK    1  A    between atoms: C_2  and  C_3
REMARK    2  A    between atoms: N_5  and  C_6
REMARK    3  A    between atoms: C_6  and  C_7
REMARK    4  A    between atoms: N_19  and  C_20
REMARK    5  A    between atoms: C_20  and  C_21
REMARK    6  A    between atoms: C_31  and  O_32
REMARK    7  A    between atoms: O_32  and  C_33
REMARK                            x       y       z     vdW  Elec       q    Type
REMARK                         _______ _______ _______ _____ _____    ______ ____
ROOT
ATOM      1  C   UNL     1      -0.963  11.301  18.892  0.00  0.00    +0.000 A 
ATOM      2  C   UNL     1      -0.119  10.205  18.952  0.00  0.00    +0.000 A 
ATOM      3  C   UNL     1       0.062   9.847  20.304  0.00  0.00    +0.000 A 
ATOM      4  C   UNL     1       0.816   8.843  20.942  0.00  0.00    +0.000 A 
ATOM      5  C   UNL     1       0.827   8.773  22.338  0.00  0.00    +0.000 A 
ATOM      6  C   UNL     1       0.126   9.704  23.095  0.00  0.00    +0.000 A 
ATOM      7  C   UNL     1      -0.629  10.706  22.481  0.00  0.00    +0.000 A 
ATOM      8  C   UNL     1      -0.686  10.739  21.075  0.00  0.00    +0.000 A 
ATOM      9  N   UNL     1      -1.347  11.607  20.206  0.00  0.00    +0.000 N 
ATOM     10  C   UNL     1      -2.207  12.674  20.634  0.00  0.00    +0.000 A 
ATOM     11  N   UNL     1      -1.983  13.850  20.057  0.00  0.00    +0.000 NA
ATOM     12  C   UNL     1      -2.720  14.880  20.474  0.00  0.00    +0.000 A 
ATOM     13  N   UNL     1      -2.243  16.184  20.193  0.00  0.00    +0.000 N 
ATOM     14  C   UNL     1      -3.886  14.704  21.218  0.00  0.00    +0.000 A 
ATOM     15  C   UNL     1      -4.882  15.707  21.301  0.00  0.00    +0.000 A 
ATOM     16  C   UNL     1      -5.980  15.551  22.124  0.00  0.00    +0.000 A 
ATOM     17  C   UNL     1      -6.032  14.433  22.934  0.00  0.00    +0.000 A 
ATOM     18  C   UNL     1      -5.044  13.426  22.860  0.00  0.00    +0.000 A 
ATOM     19  C   UNL     1      -3.987  13.487  21.913  0.00  0.00    +0.000 A 
ATOM     20  N   UNL     1      -3.095  12.487  21.642  0.00  0.00    +0.000 NA
ATOM     21  H   UNL     1      -2.598  16.827  20.899  0.00  0.00    +0.000 HD
ENDROOT
BRANCH  18  22
ATOM     22  O   UNL     1      -5.308  12.456  23.795  0.00  0.00    +0.000 OA
ATOM     23  C   UNL     1      -4.494  12.342  24.947  0.00  0.00    +0.000 C 
ENDBRANCH  18  22
BRANCH   1  24
ATOM     24  C   UNL     1      -1.448  11.962  17.639  0.00  0.00    +0.000 C 
BRANCH  24  27
ATOM     25  C   UNL     1      -3.737  11.106  17.257  0.00  0.00    +0.000 C 
ATOM     26  O   UNL     1      -3.385  10.037  16.768  0.00  0.00    +0.000 OA
ATOM     27  N   UNL     1      -2.890  12.078  17.731  0.00  0.00    +0.000 N 
ATOM     28  H   UNL     1      -3.267  12.956  18.035  0.00  0.00    +0.000 HD
BRANCH  25  30
ATOM     29  C   UNL     1      -5.641  12.129  18.467  0.00  0.00    +0.000 C 
ATOM     30  C   UNL     1      -5.170  11.494  17.385  0.00  0.00    +0.000 C 
ENDBRANCH  25  30
ENDBRANCH  24  27
ENDBRANCH   1  24
BRANCH  13  31
ATOM     31  C   UNL     1      -0.775  16.197  20.289  0.00  0.00    +0.000 C 
BRANCH  31  32
ATOM     32  C   UNL     1      -0.204  16.904  19.086  0.00  0.00    +0.000 A 
ATOM     33  C   UNL     1      -1.019  17.656  18.225  0.00  0.00    +0.000 A 
ATOM     34  C   UNL     1      -0.465  18.305  17.125  0.00  0.00    +0.000 A 
ATOM     35  C   UNL     1       0.907  18.219  16.884  0.00  0.00    +0.000 A 
ATOM     36  C   UNL     1       1.722  17.478  17.736  0.00  0.00    +0.000 A 
ATOM     37  C   UNL     1       1.170  16.827  18.835  0.00  0.00    +0.000 A 
ENDBRANCH  31  32
ENDBRANCH  13  31
TORSDOF 6
ENDMDL
MODEL 4
REMARK VINA RESULT:      -8.0      2.664      7.347
REMARK  Name = 
REMARK  7 active torsions:
REMARK  status: ('A' for Active; 'I' for Inactive)
REMARK    1  A    between atoms: C_2  and  C_3
REMARK    2  A    between atoms: N_5  and  C_6
REMARK    3  A    between atoms: C_6  and  C_7
REMARK    4  A    between atoms: N_19  and  C_20
REMARK    5  A    between atoms: C_20  and  C_21
REMARK    6  A    between atoms: C_31  and  O_32
REMARK    7  A    between atoms: O_32  and  C_33
REMARK                            x       y       z     vdW  Elec       q    Type
REMARK                         _______ _______ _______ _____ _____    ______ ____
ROOT
ATOM      1  C   UNL     1       0.228   9.148  21.342  0.00  0.00    +0.000 A 
ATOM      2  C   UNL     1       0.779   7.878  21.336  0.00  0.00    +0.000 A 
ATOM      3  C   UNL     1       1.586   7.739  20.188  0.00  0.00    +0.000 A 
ATOM      4  C   UNL     1       2.356   6.678  19.673  0.00  0.00    +0.000 A 
ATOM      5  C   UNL     1       3.024   6.839  18.457  0.00  0.00    +0.000 A 
ATOM      6  C   UNL     1       2.907   8.025  17.741  0.00  0.00    +0.000 A 
ATOM      7  C   UNL     1       2.149   9.089  18.235  0.00  0.00    +0.000 A 
ATOM      8  C   UNL     1       1.526   8.946  19.488  0.00  0.00    +0.000 A 
ATOM      9  N   UNL     1       0.724   9.825  20.218  0.00  0.00    +0.000 N 
ATOM     10  C   UNL     1       0.419  11.167  19.806  0.00  0.00    +0.000 A 
ATOM     11  N   UNL     1      -0.865  11.503  19.874  0.00  0.00    +0.000 NA
ATOM     12  C   UNL     1      -1.196  12.720  19.440  0.00  0.00    +0.000 A 
ATOM     13  N   UNL     1      -2.556  12.953  19.117  0.00  0.00    +0.000 N 
ATOM     14  C   UNL     1      -0.245  13.719  19.241  0.00  0.00    +0.000 A 
ATOM     15  C   UNL     1      -0.596  15.091  19.202  0.00  0.00    +0.000 A 
ATOM     16  C   UNL     1       0.346  16.056  18.903  0.00  0.00    +0.000 A 
ATOM     17  C   UNL     1       1.616  15.639  18.552  0.00  0.00    +0.000 A 
ATOM     18  C   UNL     1       1.976  14.275  18.588  0.00  0.00    +0.000 A 
ATOM     19  C   UNL     1       1.072  13.276  19.040  0.00  0.00    +0.000 A 
ATOM     20  N   UNL     1       1.381  11.966  19.280  0.00  0.00    +0.000 NA
ATOM     21  H   UNL     1      -2.609  13.690  18.417  0.00  0.00    +0.000 HD
ENDROOT
BRANCH  18  22
ATOM     22  O   UNL     1       3.271  14.132  18.153  0.00  0.00    +0.000 OA
ATOM     23  C   UNL     1       4.014  15.268  17.755  0.00  0.00    +0.000 C 
ENDBRANCH  18  22
BRANCH   1  24
ATOM     24  C   UNL     1      -0.651   9.715  22.414  0.00  0.00    +0.000 C 
BRANCH  24  27
ATOM     25  C   UNL     1      -1.234  12.040  23.022  0.00  0.00    +0.000 C 
ATOM     26  O   UNL     1      -2.365  11.779  23.420  0.00  0.00    +0.000 OA
ATOM     27  N   UNL     1      -0.328  11.120  22.552  0.00  0.00    +0.000 N 
ATOM     28  H   UNL     1       0.543  11.437  22.167  0.00  0.00    +0.000 HD
BRANCH  25  30
ATOM     29  C   UNL     1      -1.476  14.484  22.700  0.00  0.00    +0.000 C 
ATOM     30  C   UNL     1      -0.698  13.429  22.986  0.00  0.00    +0.000 C 
ENDBRANCH  25  30
ENDBRANCH  24  27
ENDBRANCH   1  24
BRANCH  13  31
ATOM     31  C   UNL     1      -3.131  11.738  18.519  0.00  0.00    +0.000 C 
BRANCH  31  32
ATOM     32  C   UNL     1      -4.584  11.636  18.902  0.00  0.00    +0.000 A 
ATOM     33  C   UNL     1      -5.110  12.364  19.981  0.00  0.00    +0.000 A 
ATOM     34  C   UNL     1      -6.459  12.256  20.309  0.00  0.00    +0.000 A 
ATOM     35  C   UNL     1      -7.295  11.431  19.557  0.00  0.00    +0.000 A 
ATOM     36  C   UNL     1      -6.782  10.708  18.482  0.00  0.00    +0.000 A 
ATOM     37  C   UNL     1      -5.434  10.813  18.154  0.00  0.00    +0.000 A 
ENDBRANCH  31  32
ENDBRANCH  13  31
TORSDOF 6
ENDMDL
MODEL 5
REMARK VINA RESULT:      -8.0      2.845      6.868
REMARK  Name = 
REMARK  7 active torsions:
REMARK  status: ('A' for Active; 'I' for Inactive)
REMARK    1  A    between atoms: C_2  and  C_3
REMARK    2  A    between atoms: N_5  and  C_6
REMARK    3  A    between atoms: C_6  and  C_7
REMARK    4  A    between atoms: N_19  and  C_20
REMARK    5  A    between atoms: C_20  and  C_21
REMARK    6  A    between atoms: C_31  and  O_32
REMARK    7  A    between atoms: O_32  and  C_33
REMARK                            x       y       z     vdW  Elec       q    Type
REMARK                         _______ _______ _______ _____ _____    ______ ____
ROOT
ATOM      1  C   UNL     1      -1.114  11.376  18.838  0.00  0.00    +0.000 A 
ATOM      2  C   UNL     1      -0.408  10.191  18.712  0.00  0.00    +0.000 A 
ATOM      3  C   UNL     1       0.056   9.803  19.986  0.00  0.00    +0.000 A 
ATOM      4  C   UNL     1       0.827   8.716  20.441  0.00  0.00    +0.000 A 
ATOM      5  C   UNL     1       1.170   8.632  21.793  0.00  0.00    +0.000 A 
ATOM      6  C   UNL     1       0.782   9.630  22.680  0.00  0.00    +0.000 A 
ATOM      7  C   UNL     1       0.016  10.715  22.249  0.00  0.00    +0.000 A 
ATOM      8  C   UNL     1      -0.377  10.767  20.899  0.00  0.00    +0.000 A 
ATOM      9  N   UNL     1      -1.130  11.711  20.200  0.00  0.00    +0.000 N 
ATOM     10  C   UNL     1      -1.736  12.864  20.805  0.00  0.00    +0.000 A 
ATOM     11  N   UNL     1      -1.531  14.012  20.168  0.00  0.00    +0.000 NA
ATOM     12  C   UNL     1      -2.025  15.115  20.732  0.00  0.00    +0.000 A 
ATOM     13  N   UNL     1      -1.488  16.360  20.319  0.00  0.00    +0.000 N 
ATOM     14  C   UNL     1      -2.986  15.064  21.741  0.00  0.00    +0.000 A 
ATOM     15  C   UNL     1      -3.814  16.173  22.044  0.00  0.00    +0.000 A 
ATOM     16  C   UNL     1      -4.688  16.134  23.112  0.00  0.00    +0.000 A 
ATOM     17  C   UNL     1      -4.665  15.021  23.932  0.00  0.00    +0.000 A 
ATOM     18  C   UNL     1      -3.844  13.911  23.639  0.00  0.00    +0.000 A 
ATOM     19  C   UNL     1      -3.049  13.861  22.462  0.00  0.00    +0.000 A 
ATOM     20  N   UNL     1      -2.367  12.769  22.002  0.00  0.00    +0.000 NA
ATOM     21  H   UNL     1      -1.587  17.032  21.078  0.00  0.00    +0.000 HD
ENDROOT
BRANCH  18  22
ATOM     22  O   UNL     1      -3.978  12.968  24.628  0.00  0.00    +0.000 OA
ATOM     23  C   UNL     1      -5.186  12.243  24.757  0.00  0.00    +0.000 C 
ENDBRANCH  18  22
BRANCH   1  24
ATOM     24  C   UNL     1      -1.814  12.097  17.729  0.00  0.00    +0.000 C 
BRANCH  24  27
ATOM     25  C   UNL     1      -3.371  10.941  16.194  0.00  0.00    +0.000 C 
ATOM     26  O   UNL     1      -4.363  11.583  16.524  0.00  0.00    +0.000 OA
ATOM     27  N   UNL     1      -2.104  11.132  16.688  0.00  0.00    +0.000 N 
ATOM     28  H   UNL     1      -1.370  10.501  16.423  0.00  0.00    +0.000 HD
BRANCH  25  30
ATOM     29  C   UNL     1      -2.965   9.977  13.949  0.00  0.00    +0.000 C 
ATOM     30  C   UNL     1      -3.429   9.834  15.199  0.00  0.00    +0.000 C 
ENDBRANCH  25  30
ENDBRANCH  24  27
ENDBRANCH   1  24
BRANCH  13  31
ATOM     31  C   UNL     1      -0.049  16.207  20.054  0.00  0.00    +0.000 C 
BRANCH  31  32
ATOM     32  C   UNL     1       0.304  16.942  18.787  0.00  0.00    +0.000 A 
ATOM     33  C   UNL     1      -0.670  17.622  18.040  0.00  0.00    +0.000 A 
ATOM     34  C   UNL     1      -0.315  18.300  16.876  0.00  0.00    +0.000 A 
ATOM     35  C   UNL     1       1.015  18.312  16.457  0.00  0.00    +0.000 A 
ATOM     36  C   UNL     1       1.989  17.643  17.195  0.00  0.00    +0.000 A 
ATOM     37  C   UNL     1       1.636  16.964  18.357  0.00  0.00    +0.000 A 
ENDBRANCH  31  32
ENDBRANCH  13  31
TORSDOF 6
ENDMDL
MODEL 6
REMARK VINA RESULT:      -7.9      2.944      6.588
REMARK  Name = 
REMARK  7 active torsions:
REMARK  status: ('A' for Active; 'I' for Inactive)
REMARK    1  A    between atoms: C_2  and  C_3
REMARK    2  A    between atoms: N_5  and  C_6
REMARK    3  A    between atoms: C_6  and  C_7
REMARK    4  A    between atoms: N_19  and  C_20
REMARK    5  A    between atoms: C_20  and  C_21
REMARK    6  A    between atoms: C_31  and  O_32
REMARK    7  A    between atoms: O_32  and  C_33
REMARK                            x       y       z     vdW  Elec       q    Type
REMARK                         _______ _______ _______ _____ _____    ______ ____
ROOT
ATOM      1  C   UNL     1      -0.965  11.701  19.060  0.00  0.00    +0.000 A 
ATOM      2  C   UNL     1      -0.422  10.430  19.145  0.00  0.00    +0.000 A 
ATOM      3  C   UNL     1      -0.353  10.058  20.504  0.00  0.00    +0.000 A 
ATOM      4  C   UNL     1       0.117   8.907  21.165  0.00  0.00    +0.000 A 
ATOM      5  C   UNL     1       0.093   8.856  22.561  0.00  0.00    +0.000 A 
ATOM      6  C   UNL     1      -0.363   9.944  23.297  0.00  0.00    +0.000 A 
ATOM      7  C   UNL     1      -0.835  11.094  22.660  0.00  0.00    +0.000 A 
ATOM      8  C   UNL     1      -0.864  11.120  21.254  0.00  0.00    +0.000 A 
ATOM      9  N   UNL     1      -1.277  12.112  20.364  0.00  0.00    +0.000 N 
ATOM     10  C   UNL     1      -1.848  13.367  20.767  0.00  0.00    +0.000 A 
ATOM     11  N   UNL     1      -1.330  14.441  20.180  0.00  0.00    +0.000 NA
ATOM     12  C   UNL     1      -1.791  15.628  20.575  0.00  0.00    +0.000 A 
ATOM     13  N   UNL     1      -0.999  16.767  20.288  0.00  0.00    +0.000 N 
ATOM     14  C   UNL     1      -2.973  15.759  21.302  0.00  0.00    +0.000 A 
ATOM     15  C   UNL     1      -3.688  16.981  21.358  0.00  0.00    +0.000 A 
ATOM     16  C   UNL     1      -4.800  17.116  22.166  0.00  0.00    +0.000 A 
ATOM     17  C   UNL     1      -5.140  16.058  22.987  0.00  0.00    +0.000 A 
ATOM     18  C   UNL     1      -4.435  14.836  22.939  0.00  0.00    +0.000 A 
ATOM     19  C   UNL     1      -3.384  14.617  22.008  0.00  0.00    +0.000 A 
ATOM     20  N   UNL     1      -2.768  13.422  21.763  0.00  0.00    +0.000 NA
ATOM     21  H   UNL     1      -1.192  17.488  20.980  0.00  0.00    +0.000 HD
ENDROOT
BRANCH  18  22
ATOM     22  O   UNL     1      -4.945  13.976  23.881  0.00  0.00    +0.000 OA
ATOM     23  C   UNL     1      -5.933  13.032  23.516  0.00  0.00    +0.000 C 
ENDBRANCH  18  22
BRANCH   1  24
ATOM     24  C   UNL     1      -1.254  12.444  17.792  0.00  0.00    +0.000 C 
BRANCH  24  27
ATOM     25  C   UNL     1      -3.160  11.194  16.833  0.00  0.00    +0.000 C 
ATOM     26  O   UNL     1      -4.013  11.705  17.553  0.00  0.00    +0.000 OA
ATOM     27  N   UNL     1      -1.822  11.502  16.849  0.00  0.00    +0.000 N 
ATOM     28  H   UNL     1      -1.186  10.970  16.284  0.00  0.00    +0.000 HD
BRANCH  25  30
ATOM     29  C   UNL     1      -2.966  10.140  14.600  0.00  0.00    +0.000 C 
ATOM     30  C   UNL     1      -3.484  10.135  15.836  0.00  0.00    +0.000 C 
ENDBRANCH  25  30
ENDBRANCH  24  27
ENDBRANCH   1  24
BRANCH  13  31
ATOM     31  C   UNL     1       0.424  16.415  20.406  0.00  0.00    +0.000 C 
BRANCH  31  32
ATOM     32  C   UNL     1       1.131  16.762  19.122  0.00  0.00    +0.000 A 
ATOM     33  C   UNL     1       0.600  17.704  18.226  0.00  0.00    +0.000 A 
ATOM     34  C   UNL     1       1.278  18.012  17.049  0.00  0.00    +0.000 A 
ATOM     35  C   UNL     1       2.495  17.392  16.764  0.00  0.00    +0.000 A 
ATOM     36  C   UNL     1       3.031  16.460  17.650  0.00  0.00    +0.000 A 
ATOM     37  C   UNL     1       2.353  16.149  18.825  0.00  0.00    +0.000 A 
ENDBRANCH  31  32
ENDBRANCH  13  31
TORSDOF 6
ENDMDL
MODEL 7
REMARK VINA RESULT:      -7.8      2.964      7.086
REMARK  Name = 
REMARK  7 active torsions:
REMARK  status: ('A' for Active; 'I' for Inactive)
REMARK    1  A    between atoms: C_2  and  C_3
REMARK    2  A    between atoms: N_5  and  C_6
REMARK    3  A    between atoms: C_6  and  C_7
REMARK    4  A    between atoms: N_19  and  C_20
REMARK    5  A    between atoms: C_20  and  C_21
REMARK    6  A    between atoms: C_31  and  O_32
REMARK    7  A    between atoms: O_32  and  C_33
REMARK                            x       y       z     vdW  Elec       q    Type
REMARK                         _______ _______ _______ _____ _____    ______ ____
ROOT
ATOM      1  C   UNL     1      -1.262  11.202  18.910  0.00  0.00    +0.000 A 
ATOM      2  C   UNL     1      -0.529  10.028  18.847  0.00  0.00    +0.000 A 
ATOM      3  C   UNL     1      -0.048   9.726  20.138  0.00  0.00    +0.000 A 
ATOM      4  C   UNL     1       0.751   8.685  20.649  0.00  0.00    +0.000 A 
ATOM      5  C   UNL     1       1.104   8.688  22.001  0.00  0.00    +0.000 A 
ATOM      6  C   UNL     1       0.698   9.726  22.832  0.00  0.00    +0.000 A 
ATOM      7  C   UNL     1      -0.095  10.767  22.344  0.00  0.00    +0.000 A 
ATOM      8  C   UNL     1      -0.498  10.731  20.997  0.00  0.00    +0.000 A 
ATOM      9  N   UNL     1      -1.277  11.615  20.250  0.00  0.00    +0.000 N 
ATOM     10  C   UNL     1      -1.907  12.787  20.791  0.00  0.00    +0.000 A 
ATOM     11  N   UNL     1      -1.732  13.901  20.087  0.00  0.00    +0.000 NA
ATOM     12  C   UNL     1      -2.248  15.023  20.591  0.00  0.00    +0.000 A 
ATOM     13  N   UNL     1      -1.743  16.253  20.102  0.00  0.00    +0.000 N 
ATOM     14  C   UNL     1      -3.202  15.009  21.608  0.00  0.00    +0.000 A 
ATOM     15  C   UNL     1      -4.054  16.113  21.852  0.00  0.00    +0.000 A 
ATOM     16  C   UNL     1      -4.920  16.117  22.928  0.00  0.00    +0.000 A 
ATOM     17  C   UNL     1      -4.866  15.054  23.811  0.00  0.00    +0.000 A 
ATOM     18  C   UNL     1      -4.020  13.948  23.576  0.00  0.00    +0.000 A 
ATOM     19  C   UNL     1      -3.232  13.848  22.398  0.00  0.00    +0.000 A 
ATOM     20  N   UNL     1      -2.527  12.747  21.997  0.00  0.00    +0.000 NA
ATOM     21  H   UNL     1      -1.853  16.966  20.821  0.00  0.00    +0.000 HD
ENDROOT
BRANCH  18  22
ATOM     22  O   UNL     1      -4.126  13.062  24.619  0.00  0.00    +0.000 OA
ATOM     23  C   UNL     1      -5.207  12.150  24.667  0.00  0.00    +0.000 C 
ENDBRANCH  18  22
BRANCH   1  24
ATOM     24  C   UNL     1      -1.986  11.841  17.766  0.00  0.00    +0.000 C 
BRANCH  24  27
ATOM     25  C   UNL     1      -4.350  11.519  17.115  0.00  0.00    +0.000 C 
ATOM     26  O   UNL     1      -4.113  11.208  15.952  0.00  0.00    +0.000 OA
ATOM     27  N   UNL     1      -3.403  11.810  18.067  0.00  0.00    +0.000 N 
ATOM     28  H   UNL     1      -3.693  12.138  18.969  0.00  0.00    +0.000 HD
BRANCH  25  30
ATOM     29  C   UNL     1      -5.986  11.859  18.943  0.00  0.00    +0.000 C 
ATOM     30  C   UNL     1      -5.737  11.638  17.645  0.00  0.00    +0.000 C 
ENDBRANCH  25  30
ENDBRANCH  24  27
ENDBRANCH   1  24
BRANCH  13  31
ATOM     31  C   UNL     1      -0.303  16.119  19.836  0.00  0.00    +0.000 C 
BRANCH  31  32
ATOM     32  C   UNL     1       0.071  16.997  18.670  0.00  0.00    +0.000 A 
ATOM     33  C   UNL     1       1.387  17.044  18.183  0.00  0.00    +0.000 A 
ATOM     34  C   UNL     1       1.704  17.859  17.099  0.00  0.00    +0.000 A 
ATOM     35  C   UNL     1       0.710  18.622  16.487  0.00  0.00    +0.000 A 
ATOM     36  C   UNL     1      -0.599  18.578  16.962  0.00  0.00    +0.000 A 
ATOM     37  C   UNL     1      -0.918  17.766  18.046  0.00  0.00    +0.000 A 
ENDBRANCH  31  32
ENDBRANCH  13  31
TORSDOF 6
ENDMDL
MODEL 8
REMARK VINA RESULT:      -7.6      2.934      6.609
REMARK  Name = 
REMARK  7 active torsions:
REMARK  status: ('A' for Active; 'I' for Inactive)
REMARK    1  A    between atoms: C_2  and  C_3
REMARK    2  A    between atoms: N_5  and  C_6
REMARK    3  A    between atoms: C_6  and  C_7
REMARK    4  A    between atoms: N_19  and  C_20
REMARK    5  A    between atoms: C_20  and  C_21
REMARK    6  A    between atoms: C_31  and  O_32
REMARK    7  A    between atoms: O_32  and  C_33
REMARK                            x       y       z     vdW  Elec       q    Type
REMARK                         _______ _______ _______ _____ _____    ______ ____
ROOT
ATOM      1  C   UNL     1      -0.901  11.510  19.084  0.00  0.00    +0.000 A 
ATOM      2  C   UNL     1      -0.362  10.239  19.188  0.00  0.00    +0.000 A 
ATOM      3  C   UNL     1      -0.280   9.893  20.553  0.00  0.00    +0.000 A 
ATOM      4  C   UNL     1       0.195   8.754  21.232  0.00  0.00    +0.000 A 
ATOM      5  C   UNL     1       0.185   8.731  22.628  0.00  0.00    +0.000 A 
ATOM      6  C   UNL     1      -0.260   9.834  23.348  0.00  0.00    +0.000 A 
ATOM      7  C   UNL     1      -0.736  10.973  22.693  0.00  0.00    +0.000 A 
ATOM      8  C   UNL     1      -0.779  10.971  21.287  0.00  0.00    +0.000 A 
ATOM      9  N   UNL     1      -1.198  11.948  20.383  0.00  0.00    +0.000 N 
ATOM     10  C   UNL     1      -1.762  13.211  20.767  0.00  0.00    +0.000 A 
ATOM     11  N   UNL     1      -1.247  14.272  20.154  0.00  0.00    +0.000 NA
ATOM     12  C   UNL     1      -1.701  15.469  20.530  0.00  0.00    +0.000 A 
ATOM     13  N   UNL     1      -0.908  16.599  20.212  0.00  0.00    +0.000 N 
ATOM     14  C   UNL     1      -2.874  15.618  21.267  0.00  0.00    +0.000 A 
ATOM     15  C   UNL     1      -3.585  16.842  21.307  0.00  0.00    +0.000 A 
ATOM     16  C   UNL     1      -4.688  16.997  22.123  0.00  0.00    +0.000 A 
ATOM     17  C   UNL     1      -5.023  15.956  22.969  0.00  0.00    +0.000 A 
ATOM     18  C   UNL     1      -4.321  14.731  22.937  0.00  0.00    +0.000 A 
ATOM     19  C   UNL     1      -3.281  14.490  22.000  0.00  0.00    +0.000 A 
ATOM     20  N   UNL     1      -2.671  13.289  21.772  0.00  0.00    +0.000 NA
ATOM     21  H   UNL     1      -1.091  17.335  20.893  0.00  0.00    +0.000 HD
ENDROOT
BRANCH  18  22
ATOM     22  O   UNL     1      -4.824  13.891  23.901  0.00  0.00    +0.000 OA
ATOM     23  C   UNL     1      -5.946  13.078  23.617  0.00  0.00    +0.000 C 
ENDBRANCH  18  22
BRANCH   1  24
ATOM     24  C   UNL     1      -1.202  12.229  17.805  0.00  0.00    +0.000 C 
BRANCH  24  27
ATOM     25  C   UNL     1      -3.181  11.126  16.813  0.00  0.00    +0.000 C 
ATOM     26  O   UNL     1      -2.560  10.192  16.314  0.00  0.00    +0.000 OA
ATOM     27  N   UNL     1      -2.628  12.131  17.569  0.00  0.00    +0.000 N 
ATOM     28  H   UNL     1      -3.202  12.899  17.863  0.00  0.00    +0.000 HD
BRANCH  25  30
ATOM     29  C   UNL     1      -5.499  11.247  17.678  0.00  0.00    +0.000 C 
ATOM     30  C   UNL     1      -4.651  11.291  16.641  0.00  0.00    +0.000 C 
ENDBRANCH  25  30
ENDBRANCH  24  27
ENDBRANCH   1  24
BRANCH  13  31
ATOM     31  C   UNL     1       0.515  16.245  20.322  0.00  0.00    +0.000 C 
BRANCH  31  32
ATOM     32  C   UNL     1       1.229  16.655  19.061  0.00  0.00    +0.000 A 
ATOM     33  C   UNL     1       2.456  16.081  18.695  0.00  0.00    +0.000 A 
ATOM     34  C   UNL     1       3.091  16.473  17.519  0.00  0.00    +0.000 A 
ATOM     35  C   UNL     1       2.501  17.432  16.696  0.00  0.00    +0.000 A 
ATOM     36  C   UNL     1       1.281  18.004  17.050  0.00  0.00    +0.000 A 
ATOM     37  C   UNL     1       0.646  17.615  18.225  0.00  0.00    +0.000 A 
ENDBRANCH  31  32
ENDBRANCH  13  31
TORSDOF 6
ENDMDL
MODEL 9
REMARK VINA RESULT:      -7.5      3.049      7.115
REMARK  Name = 
REMARK  7 active torsions:
REMARK  status: ('A' for Active; 'I' for Inactive)
REMARK    1  A    between atoms: C_2  and  C_3
REMARK    2  A    between atoms: N_5  and  C_6
REMARK    3  A    between atoms: C_6  and  C_7
REMARK    4  A    between atoms: N_19  and  C_20
REMARK    5  A    between atoms: C_20  and  C_21
REMARK    6  A    between atoms: C_31  and  O_32
REMARK    7  A    between atoms: O_32  and  C_33
REMARK                            x       y       z     vdW  Elec       q    Type
REMARK                         _______ _______ _______ _____ _____    ______ ____
ROOT
ATOM      1  C   UNL     1       1.166  12.481  19.852  0.00  0.00    +0.000 A 
ATOM      2  C   UNL     1       2.133  12.709  18.887  0.00  0.00    +0.000 A 
ATOM      3  C   UNL     1       2.325  14.100  18.759  0.00  0.00    +0.000 A 
ATOM      4  C   UNL     1       3.154  14.886  17.935  0.00  0.00    +0.000 A 
ATOM      5  C   UNL     1       3.080  16.279  18.014  0.00  0.00    +0.000 A 
ATOM      6  C   UNL     1       2.175  16.889  18.875  0.00  0.00    +0.000 A 
ATOM      7  C   UNL     1       1.346  16.126  19.702  0.00  0.00    +0.000 A 
ATOM      8  C   UNL     1       1.463  14.725  19.663  0.00  0.00    +0.000 A 
ATOM      9  N   UNL     1       0.781  13.729  20.362  0.00  0.00    +0.000 N 
ATOM     10  C   UNL     1      -0.205  13.988  21.374  0.00  0.00    +0.000 A 
ATOM     11  N   UNL     1      -1.335  13.299  21.255  0.00  0.00    +0.000 NA
ATOM     12  C   UNL     1      -2.299  13.558  22.140  0.00  0.00    +0.000 A 
ATOM     13  N   UNL     1      -3.618  13.164  21.806  0.00  0.00    +0.000 N 
ATOM     14  C   UNL     1      -2.050  14.249  23.325  0.00  0.00    +0.000 A 
ATOM     15  C   UNL     1      -2.920  14.164  24.439  0.00  0.00    +0.000 A 
ATOM     16  C   UNL     1      -2.709  14.936  25.565  0.00  0.00    +0.000 A 
ATOM     17  C   UNL     1      -1.681  15.859  25.537  0.00  0.00    +0.000 A 
ATOM     18  C   UNL     1      -0.807  15.952  24.432  0.00  0.00    +0.000 A 
ATOM     19  C   UNL     1      -0.907  15.066  23.325  0.00  0.00    +0.000 A 
ATOM     20  N   UNL     1      -0.008  14.958  22.301  0.00  0.00    +0.000 NA
ATOM     21  H   UNL     1      -4.278  13.773  22.286  0.00  0.00    +0.000 HD
ENDROOT
BRANCH  18  22
ATOM     22  O   UNL     1       0.089  16.971  24.640  0.00  0.00    +0.000 OA
ATOM     23  C   UNL     1       0.292  17.479  25.945  0.00  0.00    +0.000 C 
ENDBRANCH  18  22
BRANCH   1  24
ATOM     24  C   UNL     1       0.704  11.137  20.325  0.00  0.00    +0.000 C 
BRANCH  24  27
ATOM     25  C   UNL     1      -0.602  10.166  18.464  0.00  0.00    +0.000 C 
ATOM     26  O   UNL     1       0.365   9.699  17.869  0.00  0.00    +0.000 OA
ATOM     27  N   UNL     1      -0.548  10.841  19.658  0.00  0.00    +0.000 N 
ATOM     28  H   UNL     1      -1.380  11.262  20.026  0.00  0.00    +0.000 HD
BRANCH  25  30
ATOM     29  C   UNL     1      -2.251  10.018  16.621  0.00  0.00    +0.000 C 
ATOM     30  C   UNL     1      -1.991  10.064  17.935  0.00  0.00    +0.000 C 
ENDBRANCH  25  30
ENDBRANCH  24  27
ENDBRANCH   1  24
BRANCH  13  31
ATOM     31  C   UNL     1      -3.830  13.341  20.361  0.00  0.00    +0.000 C 
BRANCH  31  32
ATOM     32  C   UNL     1      -4.946  12.437  19.907  0.00  0.00    +0.000 A 
ATOM     33  C   UNL     1      -4.954  11.872  18.622  0.00  0.00    +0.000 A 
ATOM     34  C   UNL     1      -5.995  11.034  18.231  0.00  0.00    +0.000 A 
ATOM     35  C   UNL     1      -7.028  10.744  19.123  0.00  0.00    +0.000 A 
ATOM     36  C   UNL     1      -7.025  11.297  20.402  0.00  0.00    +0.000 A 
ATOM     37  C   UNL     1      -5.987  12.136  20.793  0.00  0.00    +0.000 A 
ENDBRANCH  31  32
ENDBRANCH  13  31
TORSDOF 6
ENDMDL
