MODEL 1
REMARK VINA RESULT:      -6.9      0.000      0.000
REMARK  Name = 
REMARK  9 active torsions:
REMARK  status: ('A' for Active; 'I' for Inactive)
REMARK    1  A    between atoms: C_1  and  C_2
REMARK    2  A    between atoms: C_2  and  C_3
REMARK    3  A    between atoms: C_3  and  C_4
REMARK    4  A    between atoms: C_4  and  C_5
REMARK    5  A    between atoms: N_7  and  C_8
REMARK    6  A    between atoms: C_8  and  C_9
REMARK    7  A    between atoms: N_11  and  C_12
REMARK    8  A    between atoms: N_23  and  C_24
REMARK    9  A    between atoms: C_24  and  C_25
REMARK                            x       y       z     vdW  Elec       q    Type
REMARK                         _______ _______ _______ _____ _____    ______ ____
ROOT
ATOM      1  C   UNL     1       2.544   7.104  19.584  0.00  0.00    +0.000 C 
ENDROOT
BRANCH   1   4
ATOM      2  C   UNL     1       3.766   4.695  17.367  0.00  0.00    +0.000 A 
ATOM      3  N   UNL     1       3.789   5.929  17.792  0.00  0.00    +0.000 NA
ATOM      4  N   UNL     1       2.765   5.987  18.702  0.00  0.00    +0.000 N 
ATOM      5  C   UNL     1       2.214   4.722  18.876  0.00  0.00    +0.000 A 
ATOM      6  O   UNL     1       1.400   4.388  19.722  0.00  0.00    +0.000 OA
ATOM      7  N   UNL     1       2.792   3.942  17.903  0.00  0.00    +0.000 N 
BRANCH   7   8
ATOM      8  C   UNL     1       2.378   2.571  17.654  0.00  0.00    +0.000 C 
ATOM      9  C   UNL     1       3.246   1.585  18.428  0.00  0.00    +0.000 C 
ENDBRANCH   7   8
BRANCH   2  10
ATOM     10  C   UNL     1       4.759   4.184  16.356  0.00  0.00    +0.000 C 
BRANCH  10  11
ATOM     11  C   UNL     1       5.555   5.297  15.678  0.00  0.00    +0.000 C 
BRANCH  11  13
ATOM     12  C   UNL     1       7.448   4.597  17.198  0.00  0.00    +0.000 C 
ATOM     13  C   UNL     1       7.069   5.117  15.821  0.00  0.00    +0.000 C 
ENDBRANCH  11  13
ENDBRANCH  10  11
ENDBRANCH   2  10
ENDBRANCH   1   4
BRANCH   1  14
ATOM     14  C   UNL     1       1.892   8.288  18.864  0.00  0.00    +0.000 C 
ATOM     15  O   UNL     1       1.890   8.361  17.635  0.00  0.00    +0.000 OA
ATOM     16  N   UNL     1       1.163   9.160  19.651  0.00  0.00    +0.000 N 
ATOM     17  H   UNL     1       1.339   9.142  20.650  0.00  0.00    +0.000 HD
BRANCH  16  18
ATOM     18  C   UNL     1       0.487  10.311  19.061  0.00  0.00    +0.000 C 
ATOM     19  C   UNL     1       1.239  11.619  19.264  0.00  0.00    +0.000 C 
ATOM     20  O   UNL     1       0.794  12.153  20.520  0.00  0.00    +0.000 OA
ATOM     21  C   UNL     1      -0.521  11.646  20.798  0.00  0.00    +0.000 C 
ATOM     22  C   UNL     1      -0.540  11.079  22.233  0.00  0.00    +0.000 C 
ATOM     23  C   UNL     1      -1.611  11.865  22.990  0.00  0.00    +0.000 C 
ATOM     24  C   UNL     1      -2.509  12.445  21.912  0.00  0.00    +0.000 C 
ATOM     25  C   UNL     1      -1.522  12.812  20.817  0.00  0.00    +0.000 C 
ATOM     26  C   UNL     1      -0.843  10.598  19.727  0.00  0.00    +0.000 C 
ENDBRANCH  16  18
ENDBRANCH   1  14
TORSDOF 7
ENDMDL
MODEL 2
REMARK VINA RESULT:      -6.9      4.878      7.345
REMARK  Name = 
REMARK  9 active torsions:
REMARK  status: ('A' for Active; 'I' for Inactive)
REMARK    1  A    between atoms: C_1  and  C_2
REMARK    2  A    between atoms: C_2  and  C_3
REMARK    3  A    between atoms: C_3  and  C_4
REMARK    4  A    between atoms: C_4  and  C_5
REMARK    5  A    between atoms: N_7  and  C_8
REMARK    6  A    between atoms: C_8  and  C_9
REMARK    7  A    between atoms: N_11  and  C_12
REMARK    8  A    between atoms: N_23  and  C_24
REMARK    9  A    between atoms: C_24  and  C_25
REMARK                            x       y       z     vdW  Elec       q    Type
REMARK                         _______ _______ _______ _____ _____    ______ ____
ROOT
ATOM      1  C   UNL     1       6.990   5.264  16.094  0.00  0.00    +0.000 C 
ENDROOT
BRANCH   1   4
ATOM      2  C   UNL     1       5.695   3.804  13.195  0.00  0.00    +0.000 A 
ATOM      3  N   UNL     1       5.564   4.050  14.469  0.00  0.00    +0.000 NA
ATOM      4  N   UNL     1       6.755   4.632  14.820  0.00  0.00    +0.000 N 
ATOM      5  C   UNL     1       7.542   4.820  13.689  0.00  0.00    +0.000 A 
ATOM      6  O   UNL     1       8.584   5.451  13.619  0.00  0.00    +0.000 OA
ATOM      7  N   UNL     1       6.887   4.153  12.682  0.00  0.00    +0.000 N 
BRANCH   7   8
ATOM      8  C   UNL     1       7.456   3.988  11.355  0.00  0.00    +0.000 C 
ATOM      9  C   UNL     1       7.656   2.514  11.020  0.00  0.00    +0.000 C 
ENDBRANCH   7   8
BRANCH   2  10
ATOM     10  C   UNL     1       4.587   3.178  12.388  0.00  0.00    +0.000 C 
BRANCH  10  11
ATOM     11  C   UNL     1       4.085   4.074  11.258  0.00  0.00    +0.000 C 
BRANCH  11  13
ATOM     12  C   UNL     1       2.661   4.257   9.179  0.00  0.00    +0.000 C 
ATOM     13  C   UNL     1       3.135   3.347  10.301  0.00  0.00    +0.000 C 
ENDBRANCH  11  13
ENDBRANCH  10  11
ENDBRANCH   2  10
ENDBRANCH   1   4
BRANCH   1  14
ATOM     14  C   UNL     1       5.742   5.974  16.624  0.00  0.00    +0.000 C 
ATOM     15  O   UNL     1       5.495   7.140  16.314  0.00  0.00    +0.000 OA
ATOM     16  N   UNL     1       4.834   5.191  17.312  0.00  0.00    +0.000 N 
ATOM     17  H   UNL     1       5.165   4.301  17.671  0.00  0.00    +0.000 HD
BRANCH  16  18
ATOM     18  C   UNL     1       3.602   5.766  17.843  0.00  0.00    +0.000 C 
ATOM     19  C   UNL     1       3.684   6.096  19.326  0.00  0.00    +0.000 C 
ATOM     20  O   UNL     1       3.291   4.908  20.030  0.00  0.00    +0.000 OA
ATOM     21  C   UNL     1       2.442   4.125  19.177  0.00  0.00    +0.000 C 
ATOM     22  C   UNL     1       2.962   2.673  19.157  0.00  0.00    +0.000 C 
ATOM     23  C   UNL     1       1.815   1.800  19.668  0.00  0.00    +0.000 C 
ATOM     24  C   UNL     1       0.564   2.635  19.461  0.00  0.00    +0.000 C 
ATOM     25  C   UNL     1       1.038   4.037  19.796  0.00  0.00    +0.000 C 
ATOM     26  C   UNL     1       2.445   4.789  17.794  0.00  0.00    +0.000 C 
ENDBRANCH  16  18
ENDBRANCH   1  14
TORSDOF 7
ENDMDL
MODEL 3
REMARK VINA RESULT:      -6.8      1.419      1.998
REMARK  Name = 
REMARK  9 active torsions:
REMARK  status: ('A' for Active; 'I' for Inactive)
REMARK    1  A    between atoms: C_1  and  C_2
REMARK    2  A    between atoms: C_2  and  C_3
REMARK    3  A    between atoms: C_3  and  C_4
REMARK    4  A    between atoms: C_4  and  C_5
REMARK    5  A    between atoms: N_7  and  C_8
REMARK    6  A    between atoms: C_8  and  C_9
REMARK    7  A    between atoms: N_11  and  C_12
REMARK    8  A    between atoms: N_23  and  C_24
REMARK    9  A    between atoms: C_24  and  C_25
REMARK                            x       y       z     vdW  Elec       q    Type
REMARK                         _______ _______ _______ _____ _____    ______ ____
ROOT
ATOM      1  C   UNL     1       2.378   6.737  19.759  0.00  0.00    +0.000 C 
ENDROOT
BRANCH   1   4
ATOM      2  C   UNL     1       5.325   5.257  18.603  0.00  0.00    +0.000 A 
ATOM      3  N   UNL     1       4.750   6.109  19.406  0.00  0.00    +0.000 NA
ATOM      4  N   UNL     1       3.436   6.099  19.016  0.00  0.00    +0.000 N 
ATOM      5  C   UNL     1       3.240   5.133  18.035  0.00  0.00    +0.000 A 
ATOM      6  O   UNL     1       2.172   4.751  17.586  0.00  0.00    +0.000 OA
ATOM      7  N   UNL     1       4.502   4.705  17.698  0.00  0.00    +0.000 N 
BRANCH   7   8
ATOM      8  C   UNL     1       4.746   3.786  16.598  0.00  0.00    +0.000 C 
ATOM      9  C   UNL     1       5.281   4.521  15.374  0.00  0.00    +0.000 C 
ENDBRANCH   7   8
BRANCH   2  10
ATOM     10  C   UNL     1       6.794   4.937  18.704  0.00  0.00    +0.000 C 
BRANCH  10  11
ATOM     11  C   UNL     1       7.682   6.180  18.698  0.00  0.00    +0.000 C 
BRANCH  11  13
ATOM     12  C   UNL     1       7.818   8.498  17.701  0.00  0.00    +0.000 C 
ATOM     13  C   UNL     1       7.501   7.034  17.439  0.00  0.00    +0.000 C 
ENDBRANCH  11  13
ENDBRANCH  10  11
ENDBRANCH   2  10
ENDBRANCH   1   4
BRANCH   1  14
ATOM     14  C   UNL     1       1.988   8.091  19.160  0.00  0.00    +0.000 C 
ATOM     15  O   UNL     1       2.278   8.379  17.998  0.00  0.00    +0.000 OA
ATOM     16  N   UNL     1       1.152   8.883  19.924  0.00  0.00    +0.000 N 
ATOM     17  H   UNL     1       1.088   8.671  20.915  0.00  0.00    +0.000 HD
BRANCH  16  18
ATOM     18  C   UNL     1       0.706  10.185  19.438  0.00  0.00    +0.000 C 
ATOM     19  C   UNL     1       1.565  11.339  19.935  0.00  0.00    +0.000 C 
ATOM     20  O   UNL     1       1.006  11.751  21.192  0.00  0.00    +0.000 OA
ATOM     21  C   UNL     1      -0.385  11.393  21.218  0.00  0.00    +0.000 C 
ATOM     22  C   UNL     1      -0.678  10.641  22.533  0.00  0.00    +0.000 C 
ATOM     23  C   UNL     1      -1.751  11.453  23.260  0.00  0.00    +0.000 C 
ATOM     24  C   UNL     1      -2.409  12.293  22.178  0.00  0.00    +0.000 C 
ATOM     25  C   UNL     1      -1.238  12.670  21.289  0.00  0.00    +0.000 C 
ATOM     26  C   UNL     1      -0.665  10.555  19.965  0.00  0.00    +0.000 C 
ENDBRANCH  16  18
ENDBRANCH   1  14
TORSDOF 7
ENDMDL
MODEL 4
REMARK VINA RESULT:      -6.7      2.171      3.521
REMARK  Name = 
REMARK  9 active torsions:
REMARK  status: ('A' for Active; 'I' for Inactive)
REMARK    1  A    between atoms: C_1  and  C_2
REMARK    2  A    between atoms: C_2  and  C_3
REMARK    3  A    between atoms: C_3  and  C_4
REMARK    4  A    between atoms: C_4  and  C_5
REMARK    5  A    between atoms: N_7  and  C_8
REMARK    6  A    between atoms: C_8  and  C_9
REMARK    7  A    between atoms: N_11  and  C_12
REMARK    8  A    between atoms: N_23  and  C_24
REMARK    9  A    between atoms: C_24  and  C_25
REMARK                            x       y       z     vdW  Elec       q    Type
REMARK                         _______ _______ _______ _____ _____    ______ ____
ROOT
ATOM      1  C   UNL     1       2.630   8.708  17.342  0.00  0.00    +0.000 C 
ENDROOT
BRANCH   1   4
ATOM      2  C   UNL     1       2.684   6.148  19.720  0.00  0.00    +0.000 A 
ATOM      3  N   UNL     1       2.126   7.241  19.275  0.00  0.00    +0.000 NA
ATOM      4  N   UNL     1       2.957   7.651  18.264  0.00  0.00    +0.000 N 
ATOM      5  C   UNL     1       3.956   6.706  18.059  0.00  0.00    +0.000 A 
ATOM      6  O   UNL     1       4.760   6.677  17.142  0.00  0.00    +0.000 OA
ATOM      7  N   UNL     1       3.830   5.819  19.102  0.00  0.00    +0.000 N 
BRANCH   7   8
ATOM      8  C   UNL     1       4.783   4.747  19.335  0.00  0.00    +0.000 C 
ATOM      9  C   UNL     1       4.456   3.524  18.484  0.00  0.00    +0.000 C 
ENDBRANCH   7   8
BRANCH   2  10
ATOM     10  C   UNL     1       2.073   5.342  20.837  0.00  0.00    +0.000 C 
BRANCH  10  11
ATOM     11  C   UNL     1       0.850   4.539  20.400  0.00  0.00    +0.000 C 
BRANCH  11  13
ATOM     12  C   UNL     1       0.992   2.502  18.912  0.00  0.00    +0.000 C 
ATOM     13  C   UNL     1       1.121   3.033  20.331  0.00  0.00    +0.000 C 
ENDBRANCH  11  13
ENDBRANCH  10  11
ENDBRANCH   2  10
ENDBRANCH   1   4
BRANCH   1  14
ATOM     14  C   UNL     1       1.460   9.564  17.836  0.00  0.00    +0.000 C 
ATOM     15  O   UNL     1       0.294   9.211  17.655  0.00  0.00    +0.000 OA
ATOM     16  N   UNL     1       1.783  10.642  18.639  0.00  0.00    +0.000 N 
ATOM     17  H   UNL     1       2.743  10.971  18.612  0.00  0.00    +0.000 HD
BRANCH  16  18
ATOM     18  C   UNL     1       0.741  11.511  19.177  0.00  0.00    +0.000 C 
ATOM     19  C   UNL     1       1.281  12.600  20.092  0.00  0.00    +0.000 C 
ATOM     20  O   UNL     1       1.328  12.038  21.412  0.00  0.00    +0.000 OA
ATOM     21  C   UNL     1       0.358  10.982  21.500  0.00  0.00    +0.000 C 
ATOM     22  C   UNL     1       1.041   9.728  22.082  0.00  0.00    +0.000 C 
ATOM     23  C   UNL     1       0.277   9.379  23.360  0.00  0.00    +0.000 C 
ATOM     24  C   UNL     1      -1.075  10.053  23.207  0.00  0.00    +0.000 C 
ATOM     25  C   UNL     1      -0.719  11.364  22.528  0.00  0.00    +0.000 C 
ATOM     26  C   UNL     1      -0.210  10.765  20.091  0.00  0.00    +0.000 C 
ENDBRANCH  16  18
ENDBRANCH   1  14
TORSDOF 7
ENDMDL
MODEL 5
REMARK VINA RESULT:      -6.7      1.965      8.606
REMARK  Name = 
REMARK  9 active torsions:
REMARK  status: ('A' for Active; 'I' for Inactive)
REMARK    1  A    between atoms: C_1  and  C_2
REMARK    2  A    between atoms: C_2  and  C_3
REMARK    3  A    between atoms: C_3  and  C_4
REMARK    4  A    between atoms: C_4  and  C_5
REMARK    5  A    between atoms: N_7  and  C_8
REMARK    6  A    between atoms: C_8  and  C_9
REMARK    7  A    between atoms: N_11  and  C_12
REMARK    8  A    between atoms: N_23  and  C_24
REMARK    9  A    between atoms: C_24  and  C_25
REMARK                            x       y       z     vdW  Elec       q    Type
REMARK                         _______ _______ _______ _____ _____    ______ ____
ROOT
ATOM      1  C   UNL     1       1.186   9.076  17.883  0.00  0.00    +0.000 C 
ENDROOT
BRANCH   1   4
ATOM      2  C   UNL     1      -0.338  11.450  19.945  0.00  0.00    +0.000 A 
ATOM      3  N   UNL     1      -0.355  10.252  19.427  0.00  0.00    +0.000 NA
ATOM      4  N   UNL     1       0.690  10.258  18.540  0.00  0.00    +0.000 N 
ATOM      5  C   UNL     1       1.386  11.459  18.637  0.00  0.00    +0.000 A 
ATOM      6  O   UNL     1       2.454  11.730  18.111  0.00  0.00    +0.000 OA
ATOM      7  N   UNL     1       0.617  12.254  19.452  0.00  0.00    +0.000 N 
BRANCH   7   8
ATOM      8  C   UNL     1       0.928  13.653  19.696  0.00  0.00    +0.000 C 
ATOM      9  C   UNL     1       0.063  14.568  18.835  0.00  0.00    +0.000 C 
ENDBRANCH   7   8
BRANCH   2  10
ATOM     10  C   UNL     1      -1.322  11.871  21.006  0.00  0.00    +0.000 C 
BRANCH  10  11
ATOM     11  C   UNL     1      -0.745  11.816  22.418  0.00  0.00    +0.000 C 
BRANCH  11  13
ATOM     12  C   UNL     1       0.033   9.520  23.132  0.00  0.00    +0.000 C 
ATOM     13  C   UNL     1      -1.108  10.525  23.159  0.00  0.00    +0.000 C 
ENDBRANCH  11  13
ENDBRANCH  10  11
ENDBRANCH   2  10
ENDBRANCH   1   4
BRANCH   1  14
ATOM     14  C   UNL     1       2.035   8.209  18.817  0.00  0.00    +0.000 C 
ATOM     15  O   UNL     1       1.921   8.295  20.041  0.00  0.00    +0.000 OA
ATOM     16  N   UNL     1       2.790   7.218  18.219  0.00  0.00    +0.000 N 
ATOM     17  H   UNL     1       2.968   7.305  17.224  0.00  0.00    +0.000 HD
BRANCH  16  18
ATOM     18  C   UNL     1       3.620   6.325  19.022  0.00  0.00    +0.000 C 
ATOM     19  C   UNL     1       4.524   5.431  18.186  0.00  0.00    +0.000 C 
ATOM     20  O   UNL     1       3.762   4.253  17.880  0.00  0.00    +0.000 OA
ATOM     21  C   UNL     1       2.759   4.075  18.894  0.00  0.00    +0.000 C 
ATOM     22  C   UNL     1       1.395   3.857  18.209  0.00  0.00    +0.000 C 
ATOM     23  C   UNL     1       0.894   2.490  18.678  0.00  0.00    +0.000 C 
ATOM     24  C   UNL     1       1.656   2.211  19.961  0.00  0.00    +0.000 C 
ATOM     25  C   UNL     1       3.035   2.771  19.659  0.00  0.00    +0.000 C 
ATOM     26  C   UNL     1       2.795   5.316  19.794  0.00  0.00    +0.000 C 
ENDBRANCH  16  18
ENDBRANCH   1  14
TORSDOF 7
ENDMDL
MODEL 6
REMARK VINA RESULT:      -6.7      2.843      8.720
REMARK  Name = 
REMARK  9 active torsions:
REMARK  status: ('A' for Active; 'I' for Inactive)
REMARK    1  A    between atoms: C_1  and  C_2
REMARK    2  A    between atoms: C_2  and  C_3
REMARK    3  A    between atoms: C_3  and  C_4
REMARK    4  A    between atoms: C_4  and  C_5
REMARK    5  A    between atoms: N_7  and  C_8
REMARK    6  A    between atoms: C_8  and  C_9
REMARK    7  A    between atoms: N_11  and  C_12
REMARK    8  A    between atoms: N_23  and  C_24
REMARK    9  A    between atoms: C_24  and  C_25
REMARK                            x       y       z     vdW  Elec       q    Type
REMARK                         _______ _______ _______ _____ _____    ______ ____
ROOT
ATOM      1  C   UNL     1       3.475   4.292  19.068  0.00  0.00    +0.000 C 
ENDROOT
BRANCH   1   4
ATOM      2  C   UNL     1       2.352   7.601  19.084  0.00  0.00    +0.000 A 
ATOM      3  N   UNL     1       3.131   6.695  18.562  0.00  0.00    +0.000 NA
ATOM      4  N   UNL     1       2.966   5.604  19.377  0.00  0.00    +0.000 N 
ATOM      5  C   UNL     1       1.983   5.866  20.326  0.00  0.00    +0.000 A 
ATOM      6  O   UNL     1       1.479   5.067  21.097  0.00  0.00    +0.000 OA
ATOM      7  N   UNL     1       1.706   7.206  20.194  0.00  0.00    +0.000 N 
BRANCH   7   8
ATOM      8  C   UNL     1       0.822   7.914  21.105  0.00  0.00    +0.000 C 
ATOM      9  C   UNL     1       1.604   8.869  22.000  0.00  0.00    +0.000 C 
ENDBRANCH   7   8
BRANCH   2  10
ATOM     10  C   UNL     1       2.207   8.972  18.475  0.00  0.00    +0.000 C 
BRANCH  10  11
ATOM     11  C   UNL     1       0.925   9.137  17.663  0.00  0.00    +0.000 C 
BRANCH  11  13
ATOM     12  C   UNL     1      -1.408  10.107  17.609  0.00  0.00    +0.000 C 
ATOM     13  C   UNL     1      -0.048  10.142  18.288  0.00  0.00    +0.000 C 
ENDBRANCH  11  13
ENDBRANCH  10  11
ENDBRANCH   2  10
ENDBRANCH   1   4
BRANCH   1  14
ATOM     14  C   UNL     1       4.913   4.340  18.544  0.00  0.00    +0.000 C 
ATOM     15  O   UNL     1       5.866   4.081  19.280  0.00  0.00    +0.000 OA
ATOM     16  N   UNL     1       5.065   4.509  17.180  0.00  0.00    +0.000 N 
ATOM     17  H   UNL     1       4.271   4.877  16.666  0.00  0.00    +0.000 HD
BRANCH  16  18
ATOM     18  C   UNL     1       6.393   4.550  16.577  0.00  0.00    +0.000 C 
ATOM     19  C   UNL     1       6.716   5.887  15.926  0.00  0.00    +0.000 C 
ATOM     20  O   UNL     1       6.236   5.809  14.575  0.00  0.00    +0.000 OA
ATOM     21  C   UNL     1       6.203   4.430  14.175  0.00  0.00    +0.000 C 
ATOM     22  C   UNL     1       4.818   4.122  13.570  0.00  0.00    +0.000 C 
ATOM     23  C   UNL     1       5.072   3.645  12.140  0.00  0.00    +0.000 C 
ATOM     24  C   UNL     1       6.520   3.189  12.128  0.00  0.00    +0.000 C 
ATOM     25  C   UNL     1       7.199   4.209  13.025  0.00  0.00    +0.000 C 
ATOM     26  C   UNL     1       6.525   3.587  15.415  0.00  0.00    +0.000 C 
ENDBRANCH  16  18
ENDBRANCH   1  14
TORSDOF 7
ENDMDL
MODEL 7
REMARK VINA RESULT:      -6.6      1.146      1.281
REMARK  Name = 
REMARK  9 active torsions:
REMARK  status: ('A' for Active; 'I' for Inactive)
REMARK    1  A    between atoms: C_1  and  C_2
REMARK    2  A    between atoms: C_2  and  C_3
REMARK    3  A    between atoms: C_3  and  C_4
REMARK    4  A    between atoms: C_4  and  C_5
REMARK    5  A    between atoms: N_7  and  C_8
REMARK    6  A    between atoms: C_8  and  C_9
REMARK    7  A    between atoms: N_11  and  C_12
REMARK    8  A    between atoms: N_23  and  C_24
REMARK    9  A    between atoms: C_24  and  C_25
REMARK                            x       y       z     vdW  Elec       q    Type
REMARK                         _______ _______ _______ _____ _____    ______ ____
ROOT
ATOM      1  C   UNL     1       2.080   7.506  19.782  0.00  0.00    +0.000 C 
ENDROOT
BRANCH   1   4
ATOM      2  C   UNL     1       4.135   5.941  17.428  0.00  0.00    +0.000 A 
ATOM      3  N   UNL     1       3.812   7.028  18.073  0.00  0.00    +0.000 NA
ATOM      4  N   UNL     1       2.680   6.680  18.764  0.00  0.00    +0.000 N 
ATOM      5  C   UNL     1       2.415   5.326  18.589  0.00  0.00    +0.000 A 
ATOM      6  O   UNL     1       1.585   4.659  19.185  0.00  0.00    +0.000 OA
ATOM      7  N   UNL     1       3.293   4.912  17.616  0.00  0.00    +0.000 N 
BRANCH   7   8
ATOM      8  C   UNL     1       3.247   3.579  17.039  0.00  0.00    +0.000 C 
ATOM      9  C   UNL     1       3.873   2.552  17.976  0.00  0.00    +0.000 C 
ENDBRANCH   7   8
BRANCH   2  10
ATOM     10  C   UNL     1       5.357   5.873  16.548  0.00  0.00    +0.000 C 
BRANCH  10  11
ATOM     11  C   UNL     1       6.561   5.237  17.239  0.00  0.00    +0.000 C 
BRANCH  11  13
ATOM     12  C   UNL     1       7.618   7.516  17.506  0.00  0.00    +0.000 C 
ATOM     13  C   UNL     1       7.279   6.201  18.189  0.00  0.00    +0.000 C 
ENDBRANCH  11  13
ENDBRANCH  10  11
ENDBRANCH   2  10
ENDBRANCH   1   4
BRANCH   1  14
ATOM     14  C   UNL     1       1.549   8.825  19.215  0.00  0.00    +0.000 C 
ATOM     15  O   UNL     1       1.354   8.965  18.008  0.00  0.00    +0.000 OA
ATOM     16  N   UNL     1       1.138   9.769  20.138  0.00  0.00    +0.000 N 
ATOM     17  H   UNL     1       1.473   9.665  21.090  0.00  0.00    +0.000 HD
BRANCH  16  18
ATOM     18  C   UNL     1       0.598  11.053  19.703  0.00  0.00    +0.000 C 
ATOM     19  C   UNL     1       1.285  12.245  20.353  0.00  0.00    +0.000 C 
ATOM     20  O   UNL     1       0.583  12.501  21.579  0.00  0.00    +0.000 OA
ATOM     21  C   UNL     1      -0.759  12.005  21.455  0.00  0.00    +0.000 C 
ATOM     22  C   UNL     1      -1.079  11.129  22.683  0.00  0.00    +0.000 C 
ATOM     23  C   UNL     1      -2.289  11.771  23.363  0.00  0.00    +0.000 C 
ATOM     24  C   UNL     1      -2.941  12.621  22.287  0.00  0.00    +0.000 C 
ATOM     25  C   UNL     1      -1.746  13.181  21.535  0.00  0.00    +0.000 C 
ATOM     26  C   UNL     1      -0.844  11.242  20.127  0.00  0.00    +0.000 C 
ENDBRANCH  16  18
ENDBRANCH   1  14
TORSDOF 7
ENDMDL
MODEL 8
REMARK VINA RESULT:      -6.6      2.476      8.636
REMARK  Name = 
REMARK  9 active torsions:
REMARK  status: ('A' for Active; 'I' for Inactive)
REMARK    1  A    between atoms: C_1  and  C_2
REMARK    2  A    between atoms: C_2  and  C_3
REMARK    3  A    between atoms: C_3  and  C_4
REMARK    4  A    between atoms: C_4  and  C_5
REMARK    5  A    between atoms: N_7  and  C_8
REMARK    6  A    between atoms: C_8  and  C_9
REMARK    7  A    between atoms: N_11  and  C_12
REMARK    8  A    between atoms: N_23  and  C_24
REMARK    9  A    between atoms: C_24  and  C_25
REMARK                            x       y       z     vdW  Elec       q    Type
REMARK                         _______ _______ _______ _____ _____    ______ ____
ROOT
ATOM      1  C   UNL     1       0.990   9.270  20.580  0.00  0.00    +0.000 C 
ENDROOT
BRANCH   1   4
ATOM      2  C   UNL     1      -1.410  11.286  19.033  0.00  0.00    +0.000 A 
ATOM      3  N   UNL     1      -0.858  10.110  19.155  0.00  0.00    +0.000 NA
ATOM      4  N   UNL     1       0.206  10.328  19.993  0.00  0.00    +0.000 N 
ATOM      5  C   UNL     1       0.193  11.644  20.443  0.00  0.00    +0.000 A 
ATOM      6  O   UNL     1       0.895  12.126  21.316  0.00  0.00    +0.000 OA
ATOM      7  N   UNL     1      -0.781  12.267  19.699  0.00  0.00    +0.000 N 
BRANCH   7   8
ATOM      8  C   UNL     1      -1.018  13.699  19.767  0.00  0.00    +0.000 C 
ATOM      9  C   UNL     1      -0.111  14.454  18.801  0.00  0.00    +0.000 C 
ENDBRANCH   7   8
BRANCH   2  10
ATOM     10  C   UNL     1      -2.650  11.498  18.203  0.00  0.00    +0.000 C 
BRANCH  10  11
ATOM     11  C   UNL     1      -3.136  10.226  17.511  0.00  0.00    +0.000 C 
BRANCH  11  13
ATOM     12  C   UNL     1      -3.541  10.373  15.021  0.00  0.00    +0.000 C 
ATOM     13  C   UNL     1      -2.535  10.044  16.113  0.00  0.00    +0.000 C 
ENDBRANCH  11  13
ENDBRANCH  10  11
ENDBRANCH   2  10
ENDBRANCH   1   4
BRANCH   1  14
ATOM     14  C   UNL     1       1.785   8.490  19.530  0.00  0.00    +0.000 C 
ATOM     15  O   UNL     1       2.149   9.025  18.482  0.00  0.00    +0.000 OA
ATOM     16  N   UNL     1       2.218   7.230  19.897  0.00  0.00    +0.000 N 
ATOM     17  H   UNL     1       1.754   6.791  20.686  0.00  0.00    +0.000 HD
BRANCH  16  18
ATOM     18  C   UNL     1       2.999   6.411  18.977  0.00  0.00    +0.000 C 
ATOM     19  C   UNL     1       2.140   5.568  18.045  0.00  0.00    +0.000 C 
ATOM     20  O   UNL     1       1.881   4.335  18.734  0.00  0.00    +0.000 OA
ATOM     21  C   UNL     1       2.936   4.104  19.681  0.00  0.00    +0.000 C 
ATOM     22  C   UNL     1       2.310   3.780  21.052  0.00  0.00    +0.000 C 
ATOM     23  C   UNL     1       2.818   2.390  21.437  0.00  0.00    +0.000 C 
ATOM     24  C   UNL     1       4.073   2.186  20.608  0.00  0.00    +0.000 C 
ATOM     25  C   UNL     1       3.708   2.835  19.284  0.00  0.00    +0.000 C 
ATOM     26  C   UNL     1       3.818   5.359  19.698  0.00  0.00    +0.000 C 
ENDBRANCH  16  18
ENDBRANCH   1  14
TORSDOF 7
ENDMDL
MODEL 9
REMARK VINA RESULT:      -6.6      5.775      7.083
REMARK  Name = 
REMARK  9 active torsions:
REMARK  status: ('A' for Active; 'I' for Inactive)
REMARK    1  A    between atoms: C_1  and  C_2
REMARK    2  A    between atoms: C_2  and  C_3
REMARK    3  A    between atoms: C_3  and  C_4
REMARK    4  A    between atoms: C_4  and  C_5
REMARK    5  A    between atoms: N_7  and  C_8
REMARK    6  A    between atoms: C_8  and  C_9
REMARK    7  A    between atoms: N_11  and  C_12
REMARK    8  A    between atoms: N_23  and  C_24
REMARK    9  A    between atoms: C_24  and  C_25
REMARK                            x       y       z     vdW  Elec       q    Type
REMARK                         _______ _______ _______ _____ _____    ______ ____
ROOT
ATOM      1  C   UNL     1       8.208   7.285  18.687  0.00  0.00    +0.000 C 
ENDROOT
BRANCH   1   4
ATOM      2  C   UNL     1       6.112   5.673  16.402  0.00  0.00    +0.000 A 
ATOM      3  N   UNL     1       7.012   6.590  16.629  0.00  0.00    +0.000 NA
ATOM      4  N   UNL     1       7.162   6.579  17.992  0.00  0.00    +0.000 N 
ATOM      5  C   UNL     1       6.403   5.552  18.544  0.00  0.00    +0.000 A 
ATOM      6  O   UNL     1       6.429   5.161  19.699  0.00  0.00    +0.000 OA
ATOM      7  N   UNL     1       5.636   5.077  17.507  0.00  0.00    +0.000 N 
BRANCH   7   8
ATOM      8  C   UNL     1       4.595   4.081  17.698  0.00  0.00    +0.000 C 
ATOM      9  C   UNL     1       3.230   4.737  17.874  0.00  0.00    +0.000 C 
ENDBRANCH   7   8
BRANCH   2  10
ATOM     10  C   UNL     1       5.660   5.333  15.005  0.00  0.00    +0.000 C 
BRANCH  10  11
ATOM     11  C   UNL     1       6.202   3.996  14.506  0.00  0.00    +0.000 C 
BRANCH  11  13
ATOM     12  C   UNL     1       5.483   3.252  12.201  0.00  0.00    +0.000 C 
ATOM     13  C   UNL     1       6.526   4.008  13.009  0.00  0.00    +0.000 C 
ENDBRANCH  11  13
ENDBRANCH  10  11
ENDBRANCH   2  10
ENDBRANCH   1   4
BRANCH   1  14
ATOM     14  C   UNL     1       8.350   8.730  18.200  0.00  0.00    +0.000 C 
ATOM     15  O   UNL     1       7.551   9.210  17.395  0.00  0.00    +0.000 OA
ATOM     16  N   UNL     1       9.299   9.505  18.840  0.00  0.00    +0.000 N 
ATOM     17  H   UNL     1      10.021   9.018  19.362  0.00  0.00    +0.000 HD
BRANCH  16  18
ATOM     18  C   UNL     1       9.501  10.900  18.465  0.00  0.00    +0.000 C 
ATOM     19  C   UNL     1      10.905  11.406  18.763  0.00  0.00    +0.000 C 
ATOM     20  O   UNL     1      10.884  11.896  20.112  0.00  0.00    +0.000 OA
ATOM     21  C   UNL     1       9.540  12.281  20.443  0.00  0.00    +0.000 C 
ATOM     22  C   UNL     1       9.156  11.633  21.789  0.00  0.00    +0.000 C 
ATOM     23  C   UNL     1       8.810  12.783  22.735  0.00  0.00    +0.000 C 
ATOM     24  C   UNL     1       8.485  13.956  21.825  0.00  0.00    +0.000 C 
ATOM     25  C   UNL     1       9.493  13.795  20.701  0.00  0.00    +0.000 C 
ATOM     26  C   UNL     1       8.640  11.844  19.281  0.00  0.00    +0.000 C 
ENDBRANCH  16  18
ENDBRANCH   1  14
TORSDOF 7
ENDMDL
