MODEL 1
REMARK VINA RESULT:      -7.4      0.000      0.000
REMARK  Name = 
REMARK  12 active torsions:
REMARK  status: ('A' for Active; 'I' for Inactive)
REMARK    1  A    between atoms: C_1  and  O_2
REMARK    2  A    between atoms: O_2  and  C_3
REMARK    3  A    between atoms: C_3  and  C_5
REMARK    4  A    between atoms: C_5  and  N_6
REMARK    5  A    between atoms: C_5  and  C_24
REMARK    6  A    between atoms: N_6  and  S_7
REMARK    7  A    between atoms: S_7  and  C_10
REMARK    8  A    between atoms: C_13  and  C_14
REMARK    9  A    between atoms: C_19  and  O_20
REMARK   10  A    between atoms: O_20  and  C_21
REMARK   11  A    between atoms: C_24  and  C_25
REMARK   12  A    between atoms: C_24  and  C_26
REMARK                            x       y       z     vdW  Elec       q    Type
REMARK                         _______ _______ _______ _____ _____    ______ ____
ROOT
ATOM      1  C   UNL     1       2.610   6.971  18.897  0.00  0.00    +0.000 A 
ATOM      2  C   UNL     1       2.450   7.873  17.852  0.00  0.00    +0.000 A 
ATOM      3  C   UNL     1       1.729   9.058  18.067  0.00  0.00    +0.000 A 
ATOM      4  C   UNL     1       1.166   9.390  19.323  0.00  0.00    +0.000 A 
ATOM      5  C   UNL     1       1.315   8.449  20.342  0.00  0.00    +0.000 A 
ATOM      6  C   UNL     1       1.962   7.230  20.105  0.00  0.00    +0.000 A 
ENDROOT
BRANCH   4   7
ATOM      7  C   UNL     1       0.349  10.621  19.500  0.00  0.00    +0.000 A 
ATOM      8  C   UNL     1       0.864  11.622  20.358  0.00  0.00    +0.000 A 
ATOM      9  C   UNL     1       0.171  12.796  20.636  0.00  0.00    +0.000 A 
ATOM     10  C   UNL     1      -1.062  13.015  20.045  0.00  0.00    +0.000 A 
ATOM     11  C   UNL     1      -1.583  12.074  19.158  0.00  0.00    +0.000 A 
ATOM     12  C   UNL     1      -0.888  10.888  18.859  0.00  0.00    +0.000 A 
BRANCH  12  13
ATOM     13  O   UNL     1      -1.399   9.950  17.990  0.00  0.00    +0.000 OA
ATOM     14  C   UNL     1      -2.787  10.070  17.671  0.00  0.00    +0.000 C 
ENDBRANCH  12  13
ENDBRANCH   4   7
BRANCH   1  15
ATOM     15  S   UNL     1       3.514   5.453  18.641  0.00  0.00    +0.000 S 
ATOM     16  O   UNL     1       2.835   4.716  17.599  0.00  0.00    +0.000 OA
ATOM     17  O   UNL     1       3.768   4.863  19.939  0.00  0.00    +0.000 OA
BRANCH  15  18
ATOM     18  N   UNL     1       4.991   5.905  17.937  0.00  0.00    +0.000 NA
ATOM     19  H   UNL     1       4.885   6.829  17.509  0.00  0.00    +0.000 HD
BRANCH  18  20
ATOM     20  C   UNL     1       5.786   4.933  17.106  0.00  0.00    +0.000 C 
BRANCH  20  21
ATOM     21  C   UNL     1       5.886   5.423  15.647  0.00  0.00    +0.000 C 
ATOM     22  C   UNL     1       5.514   4.416  14.558  0.00  0.00    +0.000 C 
ATOM     23  C   UNL     1       5.054   6.694  15.408  0.00  0.00    +0.000 C 
ENDBRANCH  20  21
BRANCH  20  24
ATOM     24  C   UNL     1       7.152   4.610  17.738  0.00  0.00    +0.000 C 
ATOM     25  O   UNL     1       8.136   4.202  17.138  0.00  0.00    +0.000 OA
BRANCH  24  27
ATOM     26  C   UNL     1       8.021   5.749  19.590  0.00  0.00    +0.000 C 
ATOM     27  O   UNL     1       7.097   4.776  19.094  0.00  0.00    +0.000 OA
ENDBRANCH  24  27
ENDBRANCH  20  24
ENDBRANCH  18  20
ENDBRANCH  15  18
ENDBRANCH   1  15
TORSDOF 8
ENDMDL
MODEL 2
REMARK VINA RESULT:      -7.3      1.765      2.979
REMARK  Name = 
REMARK  12 active torsions:
REMARK  status: ('A' for Active; 'I' for Inactive)
REMARK    1  A    between atoms: C_1  and  O_2
REMARK    2  A    between atoms: O_2  and  C_3
REMARK    3  A    between atoms: C_3  and  C_5
REMARK    4  A    between atoms: C_5  and  N_6
REMARK    5  A    between atoms: C_5  and  C_24
REMARK    6  A    between atoms: N_6  and  S_7
REMARK    7  A    between atoms: S_7  and  C_10
REMARK    8  A    between atoms: C_13  and  C_14
REMARK    9  A    between atoms: C_19  and  O_20
REMARK   10  A    between atoms: O_20  and  C_21
REMARK   11  A    between atoms: C_24  and  C_25
REMARK   12  A    between atoms: C_24  and  C_26
REMARK                            x       y       z     vdW  Elec       q    Type
REMARK                         _______ _______ _______ _____ _____    ______ ____
ROOT
ATOM      1  C   UNL     1       3.256   5.241  18.827  0.00  0.00    +0.000 A 
ATOM      2  C   UNL     1       3.194   6.464  18.168  0.00  0.00    +0.000 A 
ATOM      3  C   UNL     1       2.527   7.541  18.772  0.00  0.00    +0.000 A 
ATOM      4  C   UNL     1       1.922   7.443  20.049  0.00  0.00    +0.000 A 
ATOM      5  C   UNL     1       1.972   6.194  20.670  0.00  0.00    +0.000 A 
ATOM      6  C   UNL     1       2.566   5.099  20.032  0.00  0.00    +0.000 A 
ENDROOT
BRANCH   4   7
ATOM      7  C   UNL     1       1.163   8.583  20.632  0.00  0.00    +0.000 A 
ATOM      8  C   UNL     1       1.109   8.671  22.042  0.00  0.00    +0.000 A 
ATOM      9  C   UNL     1       0.394   9.665  22.702  0.00  0.00    +0.000 A 
ATOM     10  C   UNL     1      -0.281  10.623  21.963  0.00  0.00    +0.000 A 
ATOM     11  C   UNL     1      -0.215  10.598  20.570  0.00  0.00    +0.000 A 
ATOM     12  C   UNL     1       0.514   9.605  19.891  0.00  0.00    +0.000 A 
BRANCH  12  13
ATOM     13  O   UNL     1       0.579   9.568  18.516  0.00  0.00    +0.000 OA
ATOM     14  C   UNL     1      -0.585  10.011  17.814  0.00  0.00    +0.000 C 
ENDBRANCH  12  13
ENDBRANCH   4   7
BRANCH   1  15
ATOM     15  S   UNL     1       4.091   3.857  18.072  0.00  0.00    +0.000 S 
ATOM     16  O   UNL     1       3.624   3.763  16.706  0.00  0.00    +0.000 OA
ATOM     17  O   UNL     1       3.997   2.732  18.979  0.00  0.00    +0.000 OA
BRANCH  15  18
ATOM     18  N   UNL     1       5.718   4.318  17.926  0.00  0.00    +0.000 NA
ATOM     19  H   UNL     1       6.213   4.064  18.785  0.00  0.00    +0.000 HD
BRANCH  18  20
ATOM     20  C   UNL     1       6.098   5.668  17.377  0.00  0.00    +0.000 C 
BRANCH  20  21
ATOM     21  C   UNL     1       7.451   6.127  17.956  0.00  0.00    +0.000 C 
ATOM     22  C   UNL     1       7.789   7.612  17.818  0.00  0.00    +0.000 C 
ATOM     23  C   UNL     1       7.598   5.754  19.441  0.00  0.00    +0.000 C 
ENDBRANCH  20  21
BRANCH  20  24
ATOM     24  C   UNL     1       6.045   5.706  15.840  0.00  0.00    +0.000 C 
ATOM     25  O   UNL     1       5.332   6.438  15.169  0.00  0.00    +0.000 OA
BRANCH  24  27
ATOM     26  C   UNL     1       6.227   3.915  14.342  0.00  0.00    +0.000 C 
ATOM     27  O   UNL     1       6.867   4.747  15.314  0.00  0.00    +0.000 OA
ENDBRANCH  24  27
ENDBRANCH  20  24
ENDBRANCH  18  20
ENDBRANCH  15  18
ENDBRANCH   1  15
TORSDOF 8
ENDMDL
MODEL 3
REMARK VINA RESULT:      -7.3      1.954      3.313
REMARK  Name = 
REMARK  12 active torsions:
REMARK  status: ('A' for Active; 'I' for Inactive)
REMARK    1  A    between atoms: C_1  and  O_2
REMARK    2  A    between atoms: O_2  and  C_3
REMARK    3  A    between atoms: C_3  and  C_5
REMARK    4  A    between atoms: C_5  and  N_6
REMARK    5  A    between atoms: C_5  and  C_24
REMARK    6  A    between atoms: N_6  and  S_7
REMARK    7  A    between atoms: S_7  and  C_10
REMARK    8  A    between atoms: C_13  and  C_14
REMARK    9  A    between atoms: C_19  and  O_20
REMARK   10  A    between atoms: O_20  and  C_21
REMARK   11  A    between atoms: C_24  and  C_25
REMARK   12  A    between atoms: C_24  and  C_26
REMARK                            x       y       z     vdW  Elec       q    Type
REMARK                         _______ _______ _______ _____ _____    ______ ____
ROOT
ATOM      1  C   UNL     1       3.855   5.148  18.675  0.00  0.00    +0.000 A 
ATOM      2  C   UNL     1       3.878   6.135  17.697  0.00  0.00    +0.000 A 
ATOM      3  C   UNL     1       3.126   7.306  17.879  0.00  0.00    +0.000 A 
ATOM      4  C   UNL     1       2.348   7.539  19.039  0.00  0.00    +0.000 A 
ATOM      5  C   UNL     1       2.319   6.515  19.988  0.00  0.00    +0.000 A 
ATOM      6  C   UNL     1       3.004   5.314  19.768  0.00  0.00    +0.000 A 
ENDROOT
BRANCH   4   7
ATOM      7  C   UNL     1       1.508   8.760  19.172  0.00  0.00    +0.000 A 
ATOM      8  C   UNL     1       1.022   9.344  17.978  0.00  0.00    +0.000 A 
ATOM      9  C   UNL     1       0.264  10.511  17.972  0.00  0.00    +0.000 A 
ATOM     10  C   UNL     1      -0.048  11.126  19.174  0.00  0.00    +0.000 A 
ATOM     11  C   UNL     1       0.373  10.556  20.375  0.00  0.00    +0.000 A 
ATOM     12  C   UNL     1       1.130   9.370  20.396  0.00  0.00    +0.000 A 
BRANCH  12  13
ATOM     13  O   UNL     1       1.557   8.805  21.577  0.00  0.00    +0.000 OA
ATOM     14  C   UNL     1       0.820   9.155  22.750  0.00  0.00    +0.000 C 
ENDBRANCH  12  13
ENDBRANCH   4   7
BRANCH   1  15
ATOM     15  S   UNL     1       4.797   3.647  18.458  0.00  0.00    +0.000 S 
ATOM     16  O   UNL     1       4.289   2.986  17.276  0.00  0.00    +0.000 OA
ATOM     17  O   UNL     1       4.854   2.969  19.735  0.00  0.00    +0.000 OA
BRANCH  15  18
ATOM     18  N   UNL     1       6.361   4.139  18.020  0.00  0.00    +0.000 NA
ATOM     19  H   UNL     1       6.957   4.132  18.852  0.00  0.00    +0.000 HD
BRANCH  18  20
ATOM     20  C   UNL     1       6.580   5.329  17.122  0.00  0.00    +0.000 C 
BRANCH  20  21
ATOM     21  C   UNL     1       7.598   6.302  17.751  0.00  0.00    +0.000 C 
ATOM     22  C   UNL     1       7.323   7.795  17.568  0.00  0.00    +0.000 C 
ATOM     23  C   UNL     1       7.787   6.045  19.255  0.00  0.00    +0.000 C 
ENDBRANCH  20  21
BRANCH  20  24
ATOM     24  C   UNL     1       6.938   4.914  15.684  0.00  0.00    +0.000 C 
ATOM     25  O   UNL     1       7.772   5.455  14.972  0.00  0.00    +0.000 OA
BRANCH  24  27
ATOM     26  C   UNL     1       5.990   3.801  13.855  0.00  0.00    +0.000 C 
ATOM     27  O   UNL     1       6.136   3.884  15.276  0.00  0.00    +0.000 OA
ENDBRANCH  24  27
ENDBRANCH  20  24
ENDBRANCH  18  20
ENDBRANCH  15  18
ENDBRANCH   1  15
TORSDOF 8
ENDMDL
MODEL 4
REMARK VINA RESULT:      -7.2      2.544      3.532
REMARK  Name = 
REMARK  12 active torsions:
REMARK  status: ('A' for Active; 'I' for Inactive)
REMARK    1  A    between atoms: C_1  and  O_2
REMARK    2  A    between atoms: O_2  and  C_3
REMARK    3  A    between atoms: C_3  and  C_5
REMARK    4  A    between atoms: C_5  and  N_6
REMARK    5  A    between atoms: C_5  and  C_24
REMARK    6  A    between atoms: N_6  and  S_7
REMARK    7  A    between atoms: S_7  and  C_10
REMARK    8  A    between atoms: C_13  and  C_14
REMARK    9  A    between atoms: C_19  and  O_20
REMARK   10  A    between atoms: O_20  and  C_21
REMARK   11  A    between atoms: C_24  and  C_25
REMARK   12  A    between atoms: C_24  and  C_26
REMARK                            x       y       z     vdW  Elec       q    Type
REMARK                         _______ _______ _______ _____ _____    ______ ____
ROOT
ATOM      1  C   UNL     1       2.794   7.108  18.708  0.00  0.00    +0.000 A 
ATOM      2  C   UNL     1       2.220   7.277  19.962  0.00  0.00    +0.000 A 
ATOM      3  C   UNL     1       1.415   8.401  20.206  0.00  0.00    +0.000 A 
ATOM      4  C   UNL     1       1.143   9.374  19.214  0.00  0.00    +0.000 A 
ATOM      5  C   UNL     1       1.761   9.193  17.976  0.00  0.00    +0.000 A 
ATOM      6  C   UNL     1       2.629   8.116  17.758  0.00  0.00    +0.000 A 
ENDROOT
BRANCH   4   7
ATOM      7  C   UNL     1       0.342  10.589  19.525  0.00  0.00    +0.000 A 
ATOM      8  C   UNL     1       0.989  11.626  20.238  0.00  0.00    +0.000 A 
ATOM      9  C   UNL     1       0.331  12.790  20.624  0.00  0.00    +0.000 A 
ATOM     10  C   UNL     1      -1.001  12.961  20.290  0.00  0.00    +0.000 A 
ATOM     11  C   UNL     1      -1.662  11.983  19.548  0.00  0.00    +0.000 A 
ATOM     12  C   UNL     1      -1.006  10.807  19.141  0.00  0.00    +0.000 A 
BRANCH  12  13
ATOM     13  O   UNL     1      -1.653   9.832  18.415  0.00  0.00    +0.000 OA
ATOM     14  C   UNL     1      -1.991  10.164  17.066  0.00  0.00    +0.000 C 
ENDBRANCH  12  13
ENDBRANCH   4   7
BRANCH   1  15
ATOM     15  S   UNL     1       3.829   5.690  18.380  0.00  0.00    +0.000 S 
ATOM     16  O   UNL     1       4.787   5.596  19.459  0.00  0.00    +0.000 OA
ATOM     17  O   UNL     1       4.255   5.761  16.998  0.00  0.00    +0.000 OA
BRANCH  15  18
ATOM     18  N   UNL     1       2.834   4.331  18.585  0.00  0.00    +0.000 NA
ATOM     19  H   UNL     1       1.857   4.615  18.472  0.00  0.00    +0.000 HD
BRANCH  18  20
ATOM     20  C   UNL     1       3.062   3.363  19.716  0.00  0.00    +0.000 C 
BRANCH  20  21
ATOM     21  C   UNL     1       1.721   2.954  20.359  0.00  0.00    +0.000 C 
ATOM     22  C   UNL     1       1.757   2.573  21.839  0.00  0.00    +0.000 C 
ATOM     23  C   UNL     1       0.644   4.039  20.185  0.00  0.00    +0.000 C 
ENDBRANCH  20  21
BRANCH  20  24
ATOM     24  C   UNL     1       3.927   2.164  19.290  0.00  0.00    +0.000 C 
ATOM     25  O   UNL     1       3.592   1.285  18.508  0.00  0.00    +0.000 OA
BRANCH  24  27
ATOM     26  C   UNL     1       5.166   1.243  21.051  0.00  0.00    +0.000 C 
ATOM     27  O   UNL     1       5.116   2.174  19.966  0.00  0.00    +0.000 OA
ENDBRANCH  24  27
ENDBRANCH  20  24
ENDBRANCH  18  20
ENDBRANCH  15  18
ENDBRANCH   1  15
TORSDOF 8
ENDMDL
MODEL 5
REMARK VINA RESULT:      -7.2      1.867      2.987
REMARK  Name = 
REMARK  12 active torsions:
REMARK  status: ('A' for Active; 'I' for Inactive)
REMARK    1  A    between atoms: C_1  and  O_2
REMARK    2  A    between atoms: O_2  and  C_3
REMARK    3  A    between atoms: C_3  and  C_5
REMARK    4  A    between atoms: C_5  and  N_6
REMARK    5  A    between atoms: C_5  and  C_24
REMARK    6  A    between atoms: N_6  and  S_7
REMARK    7  A    between atoms: S_7  and  C_10
REMARK    8  A    between atoms: C_13  and  C_14
REMARK    9  A    between atoms: C_19  and  O_20
REMARK   10  A    between atoms: O_20  and  C_21
REMARK   11  A    between atoms: C_24  and  C_25
REMARK   12  A    between atoms: C_24  and  C_26
REMARK                            x       y       z     vdW  Elec       q    Type
REMARK                         _______ _______ _______ _____ _____    ______ ____
ROOT
ATOM      1  C   UNL     1       3.190   4.953  19.358  0.00  0.00    +0.000 A 
ATOM      2  C   UNL     1       3.303   6.140  18.645  0.00  0.00    +0.000 A 
ATOM      3  C   UNL     1       2.631   7.285  19.099  0.00  0.00    +0.000 A 
ATOM      4  C   UNL     1       1.848   7.291  20.279  0.00  0.00    +0.000 A 
ATOM      5  C   UNL     1       1.727   6.076  20.955  0.00  0.00    +0.000 A 
ATOM      6  C   UNL     1       2.330   4.915  20.456  0.00  0.00    +0.000 A 
ENDROOT
BRANCH   4   7
ATOM      7  C   UNL     1       1.093   8.504  20.697  0.00  0.00    +0.000 A 
ATOM      8  C   UNL     1       0.758   8.618  22.067  0.00  0.00    +0.000 A 
ATOM      9  C   UNL     1       0.016   9.683  22.568  0.00  0.00    +0.000 A 
ATOM     10  C   UNL     1      -0.401  10.686  21.709  0.00  0.00    +0.000 A 
ATOM     11  C   UNL     1      -0.053  10.634  20.360  0.00  0.00    +0.000 A 
ATOM     12  C   UNL     1       0.707   9.568  19.842  0.00  0.00    +0.000 A 
BRANCH  12  13
ATOM     13  O   UNL     1       1.049   9.505  18.510  0.00  0.00    +0.000 OA
ATOM     14  C   UNL     1       1.873  10.562  18.015  0.00  0.00    +0.000 C 
ENDBRANCH  12  13
ENDBRANCH   4   7
BRANCH   1  15
ATOM     15  S   UNL     1       4.029   3.482  18.791  0.00  0.00    +0.000 S 
ATOM     16  O   UNL     1       3.559   3.207  17.451  0.00  0.00    +0.000 OA
ATOM     17  O   UNL     1       3.940   2.488  19.840  0.00  0.00    +0.000 OA
BRANCH  15  18
ATOM     18  N   UNL     1       5.653   3.925  18.580  0.00  0.00    +0.000 NA
ATOM     19  H   UNL     1       6.107   3.969  19.497  0.00  0.00    +0.000 HD
BRANCH  18  20
ATOM     20  C   UNL     1       6.040   5.047  17.653  0.00  0.00    +0.000 C 
BRANCH  20  21
ATOM     21  C   UNL     1       6.831   6.131  18.413  0.00  0.00    +0.000 C 
ATOM     22  C   UNL     1       7.981   5.648  19.298  0.00  0.00    +0.000 C 
ATOM     23  C   UNL     1       7.393   7.204  17.465  0.00  0.00    +0.000 C 
ENDBRANCH  20  21
BRANCH  20  24
ATOM     24  C   UNL     1       6.759   4.536  16.392  0.00  0.00    +0.000 C 
ATOM     25  O   UNL     1       7.964   4.354  16.282  0.00  0.00    +0.000 OA
BRANCH  24  27
ATOM     26  C   UNL     1       6.483   4.168  14.096  0.00  0.00    +0.000 C 
ATOM     27  O   UNL     1       5.865   4.375  15.369  0.00  0.00    +0.000 OA
ENDBRANCH  24  27
ENDBRANCH  20  24
ENDBRANCH  18  20
ENDBRANCH  15  18
ENDBRANCH   1  15
TORSDOF 8
ENDMDL
MODEL 6
REMARK VINA RESULT:      -7.1      1.262      1.845
REMARK  Name = 
REMARK  12 active torsions:
REMARK  status: ('A' for Active; 'I' for Inactive)
REMARK    1  A    between atoms: C_1  and  O_2
REMARK    2  A    between atoms: O_2  and  C_3
REMARK    3  A    between atoms: C_3  and  C_5
REMARK    4  A    between atoms: C_5  and  N_6
REMARK    5  A    between atoms: C_5  and  C_24
REMARK    6  A    between atoms: N_6  and  S_7
REMARK    7  A    between atoms: S_7  and  C_10
REMARK    8  A    between atoms: C_13  and  C_14
REMARK    9  A    between atoms: C_19  and  O_20
REMARK   10  A    between atoms: O_20  and  C_21
REMARK   11  A    between atoms: C_24  and  C_25
REMARK   12  A    between atoms: C_24  and  C_26
REMARK                            x       y       z     vdW  Elec       q    Type
REMARK                         _______ _______ _______ _____ _____    ______ ____
ROOT
ATOM      1  C   UNL     1       2.654   7.065  18.779  0.00  0.00    +0.000 A 
ATOM      2  C   UNL     1       2.428   7.844  17.650  0.00  0.00    +0.000 A 
ATOM      3  C   UNL     1       1.690   9.032  17.769  0.00  0.00    +0.000 A 
ATOM      4  C   UNL     1       1.176   9.490  19.006  0.00  0.00    +0.000 A 
ATOM      5  C   UNL     1       1.391   8.669  20.114  0.00  0.00    +0.000 A 
ATOM      6  C   UNL     1       2.055   7.443  19.981  0.00  0.00    +0.000 A 
ENDROOT
BRANCH   4   7
ATOM      7  C   UNL     1       0.340  10.718  19.087  0.00  0.00    +0.000 A 
ATOM      8  C   UNL     1      -1.045  10.545  19.321  0.00  0.00    +0.000 A 
ATOM      9  C   UNL     1      -1.933  11.615  19.372  0.00  0.00    +0.000 A 
ATOM     10  C   UNL     1      -1.456  12.905  19.207  0.00  0.00    +0.000 A 
ATOM     11  C   UNL     1      -0.091  13.121  19.019  0.00  0.00    +0.000 A 
ATOM     12  C   UNL     1       0.820  12.049  18.977  0.00  0.00    +0.000 A 
BRANCH  12  13
ATOM     13  O   UNL     1       2.168  12.253  18.784  0.00  0.00    +0.000 OA
ATOM     14  C   UNL     1       2.562  13.571  18.399  0.00  0.00    +0.000 C 
ENDBRANCH  12  13
ENDBRANCH   4   7
BRANCH   1  15
ATOM     15  S   UNL     1       3.581   5.545  18.647  0.00  0.00    +0.000 S 
ATOM     16  O   UNL     1       3.017   4.788  17.551  0.00  0.00    +0.000 OA
ATOM     17  O   UNL     1       3.695   4.977  19.974  0.00  0.00    +0.000 OA
BRANCH  15  18
ATOM     18  N   UNL     1       5.124   5.987  18.097  0.00  0.00    +0.000 NA
ATOM     19  H   UNL     1       5.063   6.897  17.632  0.00  0.00    +0.000 HD
BRANCH  18  20
ATOM     20  C   UNL     1       6.011   4.998  17.389  0.00  0.00    +0.000 C 
BRANCH  20  21
ATOM     21  C   UNL     1       6.015   5.263  15.870  0.00  0.00    +0.000 C 
ATOM     22  C   UNL     1       5.482   4.143  14.976  0.00  0.00    +0.000 C 
ATOM     23  C   UNL     1       5.251   6.548  15.508  0.00  0.00    +0.000 C 
ENDBRANCH  20  21
BRANCH  20  24
ATOM     24  C   UNL     1       7.421   4.937  18.003  0.00  0.00    +0.000 C 
ATOM     25  O   UNL     1       8.281   4.110  17.734  0.00  0.00    +0.000 OA
BRANCH  24  27
ATOM     26  C   UNL     1       8.089   7.137  18.449  0.00  0.00    +0.000 C 
ATOM     27  O   UNL     1       7.564   5.907  18.957  0.00  0.00    +0.000 OA
ENDBRANCH  24  27
ENDBRANCH  20  24
ENDBRANCH  18  20
ENDBRANCH  15  18
ENDBRANCH   1  15
TORSDOF 8
ENDMDL
MODEL 7
REMARK VINA RESULT:      -7.1      2.772      3.800
REMARK  Name = 
REMARK  12 active torsions:
REMARK  status: ('A' for Active; 'I' for Inactive)
REMARK    1  A    between atoms: C_1  and  O_2
REMARK    2  A    between atoms: O_2  and  C_3
REMARK    3  A    between atoms: C_3  and  C_5
REMARK    4  A    between atoms: C_5  and  N_6
REMARK    5  A    between atoms: C_5  and  C_24
REMARK    6  A    between atoms: N_6  and  S_7
REMARK    7  A    between atoms: S_7  and  C_10
REMARK    8  A    between atoms: C_13  and  C_14
REMARK    9  A    between atoms: C_19  and  O_20
REMARK   10  A    between atoms: O_20  and  C_21
REMARK   11  A    between atoms: C_24  and  C_25
REMARK   12  A    between atoms: C_24  and  C_26
REMARK                            x       y       z     vdW  Elec       q    Type
REMARK                         _______ _______ _______ _____ _____    ______ ____
ROOT
ATOM      1  C   UNL     1       2.654   7.495  18.649  0.00  0.00    +0.000 A 
ATOM      2  C   UNL     1       2.359   8.449  17.682  0.00  0.00    +0.000 A 
ATOM      3  C   UNL     1       1.495   9.509  17.998  0.00  0.00    +0.000 A 
ATOM      4  C   UNL     1       0.919   9.664  19.282  0.00  0.00    +0.000 A 
ATOM      5  C   UNL     1       1.208   8.674  20.221  0.00  0.00    +0.000 A 
ATOM      6  C   UNL     1       2.003   7.573  19.880  0.00  0.00    +0.000 A 
ENDROOT
BRANCH   4   7
ATOM      7  C   UNL     1      -0.047  10.761  19.565  0.00  0.00    +0.000 A 
ATOM      8  C   UNL     1      -1.333  10.658  18.985  0.00  0.00    +0.000 A 
ATOM      9  C   UNL     1      -2.304  11.642  19.141  0.00  0.00    +0.000 A 
ATOM     10  C   UNL     1      -2.022  12.762  19.906  0.00  0.00    +0.000 A 
ATOM     11  C   UNL     1      -0.782  12.880  20.532  0.00  0.00    +0.000 A 
ATOM     12  C   UNL     1       0.205  11.887  20.392  0.00  0.00    +0.000 A 
BRANCH  12  13
ATOM     13  O   UNL     1       1.436  11.999  21.000  0.00  0.00    +0.000 OA
ATOM     14  C   UNL     1       2.224  13.133  20.633  0.00  0.00    +0.000 C 
ENDBRANCH  12  13
ENDBRANCH   4   7
BRANCH   1  15
ATOM     15  S   UNL     1       3.743   6.134  18.264  0.00  0.00    +0.000 S 
ATOM     16  O   UNL     1       4.627   5.954  19.394  0.00  0.00    +0.000 OA
ATOM     17  O   UNL     1       4.261   6.343  16.928  0.00  0.00    +0.000 OA
BRANCH  15  18
ATOM     18  N   UNL     1       2.769   4.744  18.271  0.00  0.00    +0.000 NA
ATOM     19  H   UNL     1       1.824   4.999  17.973  0.00  0.00    +0.000 HD
BRANCH  18  20
ATOM     20  C   UNL     1       2.806   3.774  19.423  0.00  0.00    +0.000 C 
BRANCH  20  21
ATOM     21  C   UNL     1       1.375   3.407  19.868  0.00  0.00    +0.000 C 
ATOM     22  C   UNL     1       0.560   2.538  18.910  0.00  0.00    +0.000 C 
ATOM     23  C   UNL     1       1.359   2.721  21.245  0.00  0.00    +0.000 C 
ENDBRANCH  20  21
BRANCH  20  24
ATOM     24  C   UNL     1       3.686   2.549  19.123  0.00  0.00    +0.000 C 
ATOM     25  O   UNL     1       3.402   1.635  18.361  0.00  0.00    +0.000 OA
BRANCH  24  27
ATOM     26  C   UNL     1       4.931   1.482  20.795  0.00  0.00    +0.000 C 
ATOM     27  O   UNL     1       4.820   2.582  19.888  0.00  0.00    +0.000 OA
ENDBRANCH  24  27
ENDBRANCH  20  24
ENDBRANCH  18  20
ENDBRANCH  15  18
ENDBRANCH   1  15
TORSDOF 8
ENDMDL
MODEL 8
REMARK VINA RESULT:      -7.0      0.932      1.443
REMARK  Name = 
REMARK  12 active torsions:
REMARK  status: ('A' for Active; 'I' for Inactive)
REMARK    1  A    between atoms: C_1  and  O_2
REMARK    2  A    between atoms: O_2  and  C_3
REMARK    3  A    between atoms: C_3  and  C_5
REMARK    4  A    between atoms: C_5  and  N_6
REMARK    5  A    between atoms: C_5  and  C_24
REMARK    6  A    between atoms: N_6  and  S_7
REMARK    7  A    between atoms: S_7  and  C_10
REMARK    8  A    between atoms: C_13  and  C_14
REMARK    9  A    between atoms: C_19  and  O_20
REMARK   10  A    between atoms: O_20  and  C_21
REMARK   11  A    between atoms: C_24  and  C_25
REMARK   12  A    between atoms: C_24  and  C_26
REMARK                            x       y       z     vdW  Elec       q    Type
REMARK                         _______ _______ _______ _____ _____    ______ ____
ROOT
ATOM      1  C   UNL     1       2.308   7.269  19.029  0.00  0.00    +0.000 A 
ATOM      2  C   UNL     1       1.830   7.550  20.304  0.00  0.00    +0.000 A 
ATOM      3  C   UNL     1       1.130   8.746  20.531  0.00  0.00    +0.000 A 
ATOM      4  C   UNL     1       0.869   9.682  19.502  0.00  0.00    +0.000 A 
ATOM      5  C   UNL     1       1.389   9.387  18.241  0.00  0.00    +0.000 A 
ATOM      6  C   UNL     1       2.157   8.235  18.034  0.00  0.00    +0.000 A 
ENDROOT
BRANCH   4   7
ATOM      7  C   UNL     1       0.184  10.972  19.789  0.00  0.00    +0.000 A 
ATOM      8  C   UNL     1       0.899  11.931  20.544  0.00  0.00    +0.000 A 
ATOM      9  C   UNL     1       0.348  13.154  20.913  0.00  0.00    +0.000 A 
ATOM     10  C   UNL     1      -0.943  13.465  20.519  0.00  0.00    +0.000 A 
ATOM     11  C   UNL     1      -1.665  12.566  19.735  0.00  0.00    +0.000 A 
ATOM     12  C   UNL     1      -1.115  11.331  19.345  0.00  0.00    +0.000 A 
BRANCH  12  13
ATOM     13  O   UNL     1      -1.824  10.433  18.578  0.00  0.00    +0.000 OA
ATOM     14  C   UNL     1      -3.014  10.928  17.960  0.00  0.00    +0.000 C 
ENDBRANCH  12  13
ENDBRANCH   4   7
BRANCH   1  15
ATOM     15  S   UNL     1       3.208   5.759  18.722  0.00  0.00    +0.000 S 
ATOM     16  O   UNL     1       2.470   5.011  17.728  0.00  0.00    +0.000 OA
ATOM     17  O   UNL     1       3.550   5.177  20.003  0.00  0.00    +0.000 OA
BRANCH  15  18
ATOM     18  N   UNL     1       4.632   6.221  17.923  0.00  0.00    +0.000 NA
ATOM     19  H   UNL     1       4.384   6.740  17.076  0.00  0.00    +0.000 HD
BRANCH  18  20
ATOM     20  C   UNL     1       5.769   5.251  17.734  0.00  0.00    +0.000 C 
BRANCH  20  21
ATOM     21  C   UNL     1       6.095   5.083  16.236  0.00  0.00    +0.000 C 
ATOM     22  C   UNL     1       5.878   3.693  15.638  0.00  0.00    +0.000 C 
ATOM     23  C   UNL     1       5.327   6.090  15.363  0.00  0.00    +0.000 C 
ENDBRANCH  20  21
BRANCH  20  24
ATOM     24  C   UNL     1       6.994   5.617  18.590  0.00  0.00    +0.000 C 
ATOM     25  O   UNL     1       7.107   5.423  19.793  0.00  0.00    +0.000 OA
BRANCH  24  27
ATOM     26  C   UNL     1       7.905   7.685  17.976  0.00  0.00    +0.000 C 
ATOM     27  O   UNL     1       7.929   6.262  17.828  0.00  0.00    +0.000 OA
ENDBRANCH  24  27
ENDBRANCH  20  24
ENDBRANCH  18  20
ENDBRANCH  15  18
ENDBRANCH   1  15
TORSDOF 8
ENDMDL
MODEL 9
REMARK VINA RESULT:      -7.0      2.770      3.819
REMARK  Name = 
REMARK  12 active torsions:
REMARK  status: ('A' for Active; 'I' for Inactive)
REMARK    1  A    between atoms: C_1  and  O_2
REMARK    2  A    between atoms: O_2  and  C_3
REMARK    3  A    between atoms: C_3  and  C_5
REMARK    4  A    between atoms: C_5  and  N_6
REMARK    5  A    between atoms: C_5  and  C_24
REMARK    6  A    between atoms: N_6  and  S_7
REMARK    7  A    between atoms: S_7  and  C_10
REMARK    8  A    between atoms: C_13  and  C_14
REMARK    9  A    between atoms: C_19  and  O_20
REMARK   10  A    between atoms: O_20  and  C_21
REMARK   11  A    between atoms: C_24  and  C_25
REMARK   12  A    between atoms: C_24  and  C_26
REMARK                            x       y       z     vdW  Elec       q    Type
REMARK                         _______ _______ _______ _____ _____    ______ ____
ROOT
ATOM      1  C   UNL     1       2.631   7.563  18.612  0.00  0.00    +0.000 A 
ATOM      2  C   UNL     1       2.242   8.562  17.727  0.00  0.00    +0.000 A 
ATOM      3  C   UNL     1       1.345   9.553  18.155  0.00  0.00    +0.000 A 
ATOM      4  C   UNL     1       0.825   9.593  19.472  0.00  0.00    +0.000 A 
ATOM      5  C   UNL     1       1.208   8.558  20.326  0.00  0.00    +0.000 A 
ATOM      6  C   UNL     1       2.038   7.524  19.874  0.00  0.00    +0.000 A 
ENDROOT
BRANCH   4   7
ATOM      7  C   UNL     1      -0.177  10.617  19.875  0.00  0.00    +0.000 A 
ATOM      8  C   UNL     1      -1.001  11.152  18.857  0.00  0.00    +0.000 A 
ATOM      9  C   UNL     1      -1.943  12.146  19.103  0.00  0.00    +0.000 A 
ATOM     10  C   UNL     1      -2.102  12.627  20.392  0.00  0.00    +0.000 A 
ATOM     11  C   UNL     1      -1.341  12.094  21.432  0.00  0.00    +0.000 A 
ATOM     12  C   UNL     1      -0.394  11.080  21.198  0.00  0.00    +0.000 A 
BRANCH  12  13
ATOM     13  O   UNL     1       0.368  10.553  22.217  0.00  0.00    +0.000 OA
ATOM     14  C   UNL     1      -0.336   9.821  23.222  0.00  0.00    +0.000 C 
ENDBRANCH  12  13
ENDBRANCH   4   7
BRANCH   1  15
ATOM     15  S   UNL     1       3.763   6.288  18.084  0.00  0.00    +0.000 S 
ATOM     16  O   UNL     1       4.572   5.929  19.227  0.00  0.00    +0.000 OA
ATOM     17  O   UNL     1       4.366   6.717  16.839  0.00  0.00    +0.000 OA
BRANCH  15  18
ATOM     18  N   UNL     1       2.813   4.912  17.796  0.00  0.00    +0.000 NA
ATOM     19  H   UNL     1       1.900   5.207  17.439  0.00  0.00    +0.000 HD
BRANCH  18  20
ATOM     20  C   UNL     1       2.743   3.791  18.799  0.00  0.00    +0.000 C 
BRANCH  20  21
ATOM     21  C   UNL     1       1.509   3.954  19.710  0.00  0.00    +0.000 C 
ATOM     22  C   UNL     1       0.418   2.890  19.584  0.00  0.00    +0.000 C 
ATOM     23  C   UNL     1       1.898   4.047  21.195  0.00  0.00    +0.000 C 
ENDBRANCH  20  21
BRANCH  20  24
ATOM     24  C   UNL     1       2.832   2.407  18.131  0.00  0.00    +0.000 C 
ATOM     25  O   UNL     1       2.366   2.111  17.040  0.00  0.00    +0.000 OA
BRANCH  24  27
ATOM     26  C   UNL     1       4.546   2.084  19.694  0.00  0.00    +0.000 C 
ATOM     27  O   UNL     1       3.453   1.518  18.965  0.00  0.00    +0.000 OA
ENDBRANCH  24  27
ENDBRANCH  20  24
ENDBRANCH  18  20
ENDBRANCH  15  18
ENDBRANCH   1  15
TORSDOF 8
ENDMDL
